default_name
  -OEChem-02102213163D

 29 29  0     1  0  0  0  0  0999 V2000
   -3.6042   -3.5728    1.4576 H   0  0  0  0  0  0  0  0  0  0  0  0
   -3.5202   -2.6488    0.8866 C   0  0  0  0  0  0  0  0  0  0  0  0
   -4.2052   -1.9048    1.2896 H   0  0  0  0  0  0  0  0  0  0  0  0
   -3.7552   -2.8428   -0.1584 H   0  0  0  0  0  0  0  0  0  0  0  0
   -2.1052   -2.1358    0.9946 C   0  0  0  0  0  0  0  0  0  0  0  0
   -1.2852   -2.7288    1.6826 O   0  0  0  0  0  0  0  0  0  0  0  0
   -1.8202   -1.0288    0.3146 N   0  0  0  0  0  0  0  0  0  0  0  0
   -2.5542   -0.5788   -0.2104 H   0  0  0  0  0  0  0  0  0  0  0  0
   -0.5102   -0.3728    0.3086 C   0  0  1  0  0  0  0  0  0  0  0  0
    0.0719   -0.7468    1.1521 H   0  0  0  0  0  0  0  0  0  0  0  0
    0.2338   -0.7427   -0.9878 C   0  0  0  0  0  0  0  0  0  0  0  0
    0.3424   -1.8275   -1.0404 H   0  0  0  0  0  0  0  0  0  0  0  0
   -0.3631   -0.4234   -1.8441 H   0  0  0  0  0  0  0  0  0  0  0  0
    1.6006   -0.1183   -1.0986 C   0  0  0  0  0  0  0  0  0  0  0  0
    2.4859   -0.2729   -2.1437 N   0  0  0  0  0  0  0  0  0  0  0  0
    2.3685   -0.8850   -2.9372 H   0  0  0  0  0  0  0  0  0  0  0  0
    3.5384    0.5316   -1.9192 C   0  0  0  0  0  0  0  0  0  0  0  0
    4.4034    0.6255   -2.5644 H   0  0  0  0  0  0  0  0  0  0  0  0
    3.3674    1.2121   -0.7764 N   0  0  0  0  0  0  0  0  0  0  0  0
    2.1416    0.8046   -0.2436 C   0  0  0  0  0  0  0  0  0  0  0  0
    1.6833    1.1777    0.6631 H   0  0  0  0  0  0  0  0  0  0  0  0
   -0.6600    1.1486    0.4782 C   0  0  0  0  0  0  0  0  0  0  0  0
   -1.5001    1.7648   -0.1771 O   0  0  0  0  0  0  0  0  0  0  0  0
    0.1634    1.7559    1.3418 N   0  0  0  0  0  0  0  0  0  0  0  0
    0.8618    1.1897    1.8008 H   0  0  0  0  0  0  0  0  0  0  0  0
    0.1509    3.1886    1.6256 C   0  0  0  0  0  0  0  0  0  0  0  0
   -0.8272    3.4794    2.0152 H   0  0  0  0  0  0  0  0  0  0  0  0
    0.9172    3.4314    2.3624 H   0  0  0  0  0  0  0  0  0  0  0  0
    0.3414    3.7499    0.7095 H   0  0  0  0  0  0  0  0  0  0  0  0
  5  6  2  0  0  0  0
  5  7  1  0  0  0  0
  2  3  1  0  0  0  0
  2  4  1  0  0  0  0
  2  5  1  0  0  0  0
  1  2  1  0  0  0  0
 22 23  2  0  0  0  0
 22 24  1  0  0  0  0
 20 21  1  0  0  0  0
 19 20  1  0  0  0  0
 17 18  1  0  0  0  0
 17 19  2  0  0  0  0
 15 16  1  0  0  0  0
 15 17  1  0  0  0  0
 14 15  1  0  0  0  0
 14 20  2  0  0  0  0
 11 12  1  0  0  0  0
 11 13  1  0  0  0  0
 11 14  1  0  0  0  0
  9 10  1  0  0  0  0
  9 11  1  0  0  0  0
  9 22  1  0  0  0  0
  7  8  1  0  0  0  0
  7  9  1  0  0  0  0
 26 27  1  0  0  0  0
 26 28  1  0  0  0  0
 26 29  1  0  0  0  0
 24 25  1  0  0  0  0
 24 26  1  0  0  0  0
M  END
$$$$
default_name
  -OEChem-02102213163D

 29 29  0     1  0  0  0  0  0999 V2000
   -3.6042   -3.5728    1.4576 H   0  0  0  0  0  0  0  0  0  0  0  0
   -3.5202   -2.6488    0.8866 C   0  0  0  0  0  0  0  0  0  0  0  0
   -4.2052   -1.9048    1.2896 H   0  0  0  0  0  0  0  0  0  0  0  0
   -3.7552   -2.8428   -0.1584 H   0  0  0  0  0  0  0  0  0  0  0  0
   -2.1052   -2.1358    0.9946 C   0  0  0  0  0  0  0  0  0  0  0  0
   -1.2852   -2.7288    1.6826 O   0  0  0  0  0  0  0  0  0  0  0  0
   -1.8202   -1.0288    0.3146 N   0  0  0  0  0  0  0  0  0  0  0  0
   -2.5542   -0.5788   -0.2104 H   0  0  0  0  0  0  0  0  0  0  0  0
   -0.5102   -0.3728    0.3086 C   0  0  1  0  0  0  0  0  0  0  0  0
    0.0719   -0.7468    1.1521 H   0  0  0  0  0  0  0  0  0  0  0  0
    0.2338   -0.7427   -0.9878 C   0  0  0  0  0  0  0  0  0  0  0  0
    0.3424   -1.8275   -1.0404 H   0  0  0  0  0  0  0  0  0  0  0  0
   -0.3631   -0.4234   -1.8441 H   0  0  0  0  0  0  0  0  0  0  0  0
    1.6006   -0.1183   -1.0986 C   0  0  0  0  0  0  0  0  0  0  0  0
    2.3659   -0.0275   -2.2414 N   0  0  0  0  0  0  0  0  0  0  0  0
    2.1464   -0.4346   -3.1383 H   0  0  0  0  0  0  0  0  0  0  0  0
    3.4612    0.6947   -1.9518 C   0  0  0  0  0  0  0  0  0  0  0  0
    4.2562    0.9328   -2.6479 H   0  0  0  0  0  0  0  0  0  0  0  0
    3.4329    1.0876   -0.6699 N   0  0  0  0  0  0  0  0  0  0  0  0
    2.2575    0.5736   -0.1162 C   0  0  0  0  0  0  0  0  0  0  0  0
    1.9090    0.7251    0.8973 H   0  0  0  0  0  0  0  0  0  0  0  0
   -0.6600    1.1486    0.4782 C   0  0  0  0  0  0  0  0  0  0  0  0
   -1.5001    1.7648   -0.1771 O   0  0  0  0  0  0  0  0  0  0  0  0
    0.1634    1.7559    1.3418 N   0  0  0  0  0  0  0  0  0  0  0  0
    0.8618    1.1897    1.8008 H   0  0  0  0  0  0  0  0  0  0  0  0
    0.1509    3.1886    1.6256 C   0  0  0  0  0  0  0  0  0  0  0  0
   -0.8272    3.4794    2.0152 H   0  0  0  0  0  0  0  0  0  0  0  0
    0.9172    3.4314    2.3624 H   0  0  0  0  0  0  0  0  0  0  0  0
    0.3414    3.7499    0.7095 H   0  0  0  0  0  0  0  0  0  0  0  0
  5  6  2  0  0  0  0
  5  7  1  0  0  0  0
  2  3  1  0  0  0  0
  2  4  1  0  0  0  0
  2  5  1  0  0  0  0
  1  2  1  0  0  0  0
 22 23  2  0  0  0  0
 22 24  1  0  0  0  0
 20 21  1  0  0  0  0
 19 20  1  0  0  0  0
 17 18  1  0  0  0  0
 17 19  2  0  0  0  0
 15 16  1  0  0  0  0
 15 17  1  0  0  0  0
 14 15  1  0  0  0  0
 14 20  2  0  0  0  0
 11 12  1  0  0  0  0
 11 13  1  0  0  0  0
 11 14  1  0  0  0  0
  9 10  1  0  0  0  0
  9 11  1  0  0  0  0
  9 22  1  0  0  0  0
  7  8  1  0  0  0  0
  7  9  1  0  0  0  0
 26 27  1  0  0  0  0
 26 28  1  0  0  0  0
 26 29  1  0  0  0  0
 24 25  1  0  0  0  0
 24 26  1  0  0  0  0
M  END
$$$$
default_name
  -OEChem-02102213163D

 29 29  0     1  0  0  0  0  0999 V2000
   -3.6042   -3.5728    1.4576 H   0  0  0  0  0  0  0  0  0  0  0  0
   -3.5202   -2.6488    0.8866 C   0  0  0  0  0  0  0  0  0  0  0  0
   -4.2052   -1.9048    1.2896 H   0  0  0  0  0  0  0  0  0  0  0  0
   -3.7552   -2.8428   -0.1584 H   0  0  0  0  0  0  0  0  0  0  0  0
   -2.1052   -2.1358    0.9946 C   0  0  0  0  0  0  0  0  0  0  0  0
   -1.2852   -2.7288    1.6826 O   0  0  0  0  0  0  0  0  0  0  0  0
   -1.8202   -1.0288    0.3146 N   0  0  0  0  0  0  0  0  0  0  0  0
   -2.5542   -0.5788   -0.2104 H   0  0  0  0  0  0  0  0  0  0  0  0
   -0.5102   -0.3728    0.3086 C   0  0  1  0  0  0  0  0  0  0  0  0
    0.0719   -0.7468    1.1521 H   0  0  0  0  0  0  0  0  0  0  0  0
    0.2338   -0.7427   -0.9878 C   0  0  0  0  0  0  0  0  0  0  0  0
    0.3424   -1.8275   -1.0404 H   0  0  0  0  0  0  0  0  0  0  0  0
   -0.3631   -0.4234   -1.8441 H   0  0  0  0  0  0  0  0  0  0  0  0
    1.6006   -0.1183   -1.0986 C   0  0  0  0  0  0  0  0  0  0  0  0
    2.2441    0.2347   -2.2653 N   0  0  0  0  0  0  0  0  0  0  0  0
    1.9189    0.0520   -3.2028 H   0  0  0  0  0  0  0  0  0  0  0  0
    3.3863    0.8614   -1.9366 C   0  0  0  0  0  0  0  0  0  0  0  0
    4.1110    1.2520   -2.6406 H   0  0  0  0  0  0  0  0  0  0  0  0
    3.5053    0.9411   -0.6033 N   0  0  0  0  0  0  0  0  0  0  0  0
    2.3787    0.3183   -0.0597 C   0  0  0  0  0  0  0  0  0  0  0  0
    2.1435    0.2288    0.9930 H   0  0  0  0  0  0  0  0  0  0  0  0
   -0.6600    1.1486    0.4782 C   0  0  0  0  0  0  0  0  0  0  0  0
   -1.5001    1.7648   -0.1771 O   0  0  0  0  0  0  0  0  0  0  0  0
    0.1634    1.7559    1.3418 N   0  0  0  0  0  0  0  0  0  0  0  0
    0.8618    1.1897    1.8008 H   0  0  0  0  0  0  0  0  0  0  0  0
    0.1509    3.1886    1.6256 C   0  0  0  0  0  0  0  0  0  0  0  0
   -0.8272    3.4794    2.0152 H   0  0  0  0  0  0  0  0  0  0  0  0
    0.9172    3.4314    2.3624 H   0  0  0  0  0  0  0  0  0  0  0  0
    0.3414    3.7499    0.7095 H   0  0  0  0  0  0  0  0  0  0  0  0
  5  6  2  0  0  0  0
  5  7  1  0  0  0  0
  2  3  1  0  0  0  0
  2  4  1  0  0  0  0
  2  5  1  0  0  0  0
  1  2  1  0  0  0  0
 22 23  2  0  0  0  0
 22 24  1  0  0  0  0
 20 21  1  0  0  0  0
 19 20  1  0  0  0  0
 17 18  1  0  0  0  0
 17 19  2  0  0  0  0
 15 16  1  0  0  0  0
 15 17  1  0  0  0  0
 14 15  1  0  0  0  0
 14 20  2  0  0  0  0
 11 12  1  0  0  0  0
 11 13  1  0  0  0  0
 11 14  1  0  0  0  0
  9 10  1  0  0  0  0
  9 11  1  0  0  0  0
  9 22  1  0  0  0  0
  7  8  1  0  0  0  0
  7  9  1  0  0  0  0
 26 27  1  0  0  0  0
 26 28  1  0  0  0  0
 26 29  1  0  0  0  0
 24 25  1  0  0  0  0
 24 26  1  0  0  0  0
M  END
$$$$
default_name
  -OEChem-02102213163D

 29 29  0     1  0  0  0  0  0999 V2000
   -3.6042   -3.5728    1.4576 H   0  0  0  0  0  0  0  0  0  0  0  0
   -3.5202   -2.6488    0.8866 C   0  0  0  0  0  0  0  0  0  0  0  0
   -4.2052   -1.9048    1.2896 H   0  0  0  0  0  0  0  0  0  0  0  0
   -3.7552   -2.8428   -0.1584 H   0  0  0  0  0  0  0  0  0  0  0  0
   -2.1052   -2.1358    0.9946 C   0  0  0  0  0  0  0  0  0  0  0  0
   -1.2852   -2.7288    1.6826 O   0  0  0  0  0  0  0  0  0  0  0  0
   -1.8202   -1.0288    0.3146 N   0  0  0  0  0  0  0  0  0  0  0  0
   -2.5542   -0.5788   -0.2104 H   0  0  0  0  0  0  0  0  0  0  0  0
   -0.5102   -0.3728    0.3086 C   0  0  1  0  0  0  0  0  0  0  0  0
    0.0719   -0.7468    1.1521 H   0  0  0  0  0  0  0  0  0  0  0  0
    0.2338   -0.7427   -0.9878 C   0  0  0  0  0  0  0  0  0  0  0  0
    0.3424   -1.8275   -1.0404 H   0  0  0  0  0  0  0  0  0  0  0  0
   -0.3631   -0.4234   -1.8441 H   0  0  0  0  0  0  0  0  0  0  0  0
    1.6006   -0.1183   -1.0986 C   0  0  0  0  0  0  0  0  0  0  0  0
    2.1290    0.4958   -2.2138 N   0  0  0  0  0  0  0  0  0  0  0  0
    1.7014    0.5414   -3.1266 H   0  0  0  0  0  0  0  0  0  0  0  0
    3.3187    1.0203   -1.8748 C   0  0  0  0  0  0  0  0  0  0  0  0
    3.9775    1.5614   -2.5430 H   0  0  0  0  0  0  0  0  0  0  0  0
    3.5795    0.7826   -0.5811 N   0  0  0  0  0  0  0  0  0  0  0  0
    2.4970    0.0562   -0.0781 C   0  0  0  0  0  0  0  0  0  0  0  0
    2.3709   -0.2776    0.9437 H   0  0  0  0  0  0  0  0  0  0  0  0
   -0.6600    1.1486    0.4782 C   0  0  0  0  0  0  0  0  0  0  0  0
   -1.5001    1.7648   -0.1771 O   0  0  0  0  0  0  0  0  0  0  0  0
    0.1634    1.7559    1.3418 N   0  0  0  0  0  0  0  0  0  0  0  0
    0.8618    1.1897    1.8008 H   0  0  0  0  0  0  0  0  0  0  0  0
    0.1509    3.1886    1.6256 C   0  0  0  0  0  0  0  0  0  0  0  0
   -0.8272    3.4794    2.0152 H   0  0  0  0  0  0  0  0  0  0  0  0
    0.9172    3.4314    2.3624 H   0  0  0  0  0  0  0  0  0  0  0  0
    0.3414    3.7499    0.7095 H   0  0  0  0  0  0  0  0  0  0  0  0
  5  6  2  0  0  0  0
  5  7  1  0  0  0  0
  2  3  1  0  0  0  0
  2  4  1  0  0  0  0
  2  5  1  0  0  0  0
  1  2  1  0  0  0  0
 22 23  2  0  0  0  0
 22 24  1  0  0  0  0
 20 21  1  0  0  0  0
 19 20  1  0  0  0  0
 17 18  1  0  0  0  0
 17 19  2  0  0  0  0
 15 16  1  0  0  0  0
 15 17  1  0  0  0  0
 14 15  1  0  0  0  0
 14 20  2  0  0  0  0
 11 12  1  0  0  0  0
 11 13  1  0  0  0  0
 11 14  1  0  0  0  0
  9 10  1  0  0  0  0
  9 11  1  0  0  0  0
  9 22  1  0  0  0  0
  7  8  1  0  0  0  0
  7  9  1  0  0  0  0
 26 27  1  0  0  0  0
 26 28  1  0  0  0  0
 26 29  1  0  0  0  0
 24 25  1  0  0  0  0
 24 26  1  0  0  0  0
M  END
$$$$
default_name
  -OEChem-02102213163D

 29 29  0     1  0  0  0  0  0999 V2000
   -3.6042   -3.5728    1.4576 H   0  0  0  0  0  0  0  0  0  0  0  0
   -3.5202   -2.6488    0.8866 C   0  0  0  0  0  0  0  0  0  0  0  0
   -4.2052   -1.9048    1.2896 H   0  0  0  0  0  0  0  0  0  0  0  0
   -3.7552   -2.8428   -0.1584 H   0  0  0  0  0  0  0  0  0  0  0  0
   -2.1052   -2.1358    0.9946 C   0  0  0  0  0  0  0  0  0  0  0  0
   -1.2852   -2.7288    1.6826 O   0  0  0  0  0  0  0  0  0  0  0  0
   -1.8202   -1.0288    0.3146 N   0  0  0  0  0  0  0  0  0  0  0  0
   -2.5542   -0.5788   -0.2104 H   0  0  0  0  0  0  0  0  0  0  0  0
   -0.5102   -0.3728    0.3086 C   0  0  1  0  0  0  0  0  0  0  0  0
    0.0719   -0.7468    1.1521 H   0  0  0  0  0  0  0  0  0  0  0  0
    0.2338   -0.7427   -0.9878 C   0  0  0  0  0  0  0  0  0  0  0  0
    0.3424   -1.8275   -1.0404 H   0  0  0  0  0  0  0  0  0  0  0  0
   -0.3631   -0.4234   -1.8441 H   0  0  0  0  0  0  0  0  0  0  0  0
    1.6006   -0.1183   -1.0986 C   0  0  0  0  0  0  0  0  0  0  0  0
    2.0283    0.7382   -2.0903 N   0  0  0  0  0  0  0  0  0  0  0  0
    1.5089    1.0004   -2.9147 H   0  0  0  0  0  0  0  0  0  0  0  0
    3.2631    1.1606   -1.7706 C   0  0  0  0  0  0  0  0  0  0  0  0
    3.8650    1.8398   -2.3618 H   0  0  0  0  0  0  0  0  0  0  0  0
    3.6505    0.6228   -0.6048 N   0  0  0  0  0  0  0  0  0  0  0  0
    2.6043   -0.1950   -0.1701 C   0  0  0  0  0  0  0  0  0  0  0  0
    2.5756   -0.7595    0.7529 H   0  0  0  0  0  0  0  0  0  0  0  0
   -0.6600    1.1486    0.4782 C   0  0  0  0  0  0  0  0  0  0  0  0
   -1.5001    1.7648   -0.1771 O   0  0  0  0  0  0  0  0  0  0  0  0
    0.1634    1.7559    1.3418 N   0  0  0  0  0  0  0  0  0  0  0  0
    0.8618    1.1897    1.8008 H   0  0  0  0  0  0  0  0  0  0  0  0
    0.1509    3.1886    1.6256 C   0  0  0  0  0  0  0  0  0  0  0  0
   -0.8272    3.4794    2.0152 H   0  0  0  0  0  0  0  0  0  0  0  0
    0.9172    3.4314    2.3624 H   0  0  0  0  0  0  0  0  0  0  0  0
    0.3414    3.7499    0.7095 H   0  0  0  0  0  0  0  0  0  0  0  0
  5  6  2  0  0  0  0
  5  7  1  0  0  0  0
  2  3  1  0  0  0  0
  2  4  1  0  0  0  0
  2  5  1  0  0  0  0
  1  2  1  0  0  0  0
 22 23  2  0  0  0  0
 22 24  1  0  0  0  0
 20 21  1  0  0  0  0
 19 20  1  0  0  0  0
 17 18  1  0  0  0  0
 17 19  2  0  0  0  0
 15 16  1  0  0  0  0
 15 17  1  0  0  0  0
 14 15  1  0  0  0  0
 14 20  2  0  0  0  0
 11 12  1  0  0  0  0
 11 13  1  0  0  0  0
 11 14  1  0  0  0  0
  9 10  1  0  0  0  0
  9 11  1  0  0  0  0
  9 22  1  0  0  0  0
  7  8  1  0  0  0  0
  7  9  1  0  0  0  0
 26 27  1  0  0  0  0
 26 28  1  0  0  0  0
 26 29  1  0  0  0  0
 24 25  1  0  0  0  0
 24 26  1  0  0  0  0
M  END
$$$$
default_name
  -OEChem-02102213163D

 29 29  0     1  0  0  0  0  0999 V2000
   -3.6042   -3.5728    1.4576 H   0  0  0  0  0  0  0  0  0  0  0  0
   -3.5202   -2.6488    0.8866 C   0  0  0  0  0  0  0  0  0  0  0  0
   -4.2052   -1.9048    1.2896 H   0  0  0  0  0  0  0  0  0  0  0  0
   -3.7552   -2.8428   -0.1584 H   0  0  0  0  0  0  0  0  0  0  0  0
   -2.1052   -2.1358    0.9946 C   0  0  0  0  0  0  0  0  0  0  0  0
   -1.2852   -2.7288    1.6826 O   0  0  0  0  0  0  0  0  0  0  0  0
   -1.8202   -1.0288    0.3146 N   0  0  0  0  0  0  0  0  0  0  0  0
   -2.5542   -0.5788   -0.2104 H   0  0  0  0  0  0  0  0  0  0  0  0
   -0.5102   -0.3728    0.3086 C   0  0  1  0  0  0  0  0  0  0  0  0
    0.0719   -0.7468    1.1521 H   0  0  0  0  0  0  0  0  0  0  0  0
    0.2338   -0.7427   -0.9878 C   0  0  0  0  0  0  0  0  0  0  0  0
    0.3424   -1.8275   -1.0404 H   0  0  0  0  0  0  0  0  0  0  0  0
   -0.3631   -0.4234   -1.8441 H   0  0  0  0  0  0  0  0  0  0  0  0
    1.6006   -0.1183   -1.0986 C   0  0  0  0  0  0  0  0  0  0  0  0
    1.9488    0.9453   -1.9033 N   0  0  0  0  0  0  0  0  0  0  0  0
    1.3544    1.3977   -2.5816 H   0  0  0  0  0  0  0  0  0  0  0  0
    3.2232    1.2726   -1.6310 C   0  0  0  0  0  0  0  0  0  0  0  0
    3.7810    2.0684   -2.1093 H   0  0  0  0  0  0  0  0  0  0  0  0
    3.7136    0.4728   -0.6729 N   0  0  0  0  0  0  0  0  0  0  0  0
    2.6932   -0.4180   -0.3294 C   0  0  0  0  0  0  0  0  0  0  0  0
    2.7437   -1.1840    0.4335 H   0  0  0  0  0  0  0  0  0  0  0  0
   -0.6600    1.1486    0.4782 C   0  0  0  0  0  0  0  0  0  0  0  0
   -1.5001    1.7648   -0.1771 O   0  0  0  0  0  0  0  0  0  0  0  0
    0.1634    1.7559    1.3418 N   0  0  0  0  0  0  0  0  0  0  0  0
    0.8618    1.1897    1.8008 H   0  0  0  0  0  0  0  0  0  0  0  0
    0.1509    3.1886    1.6256 C   0  0  0  0  0  0  0  0  0  0  0  0
   -0.8272    3.4794    2.0152 H   0  0  0  0  0  0  0  0  0  0  0  0
    0.9172    3.4314    2.3624 H   0  0  0  0  0  0  0  0  0  0  0  0
    0.3414    3.7499    0.7095 H   0  0  0  0  0  0  0  0  0  0  0  0
  5  6  2  0  0  0  0
  5  7  1  0  0  0  0
  2  3  1  0  0  0  0
  2  4  1  0  0  0  0
  2  5  1  0  0  0  0
  1  2  1  0  0  0  0
 22 23  2  0  0  0  0
 22 24  1  0  0  0  0
 20 21  1  0  0  0  0
 19 20  1  0  0  0  0
 17 18  1  0  0  0  0
 17 19  2  0  0  0  0
 15 16  1  0  0  0  0
 15 17  1  0  0  0  0
 14 15  1  0  0  0  0
 14 20  2  0  0  0  0
 11 12  1  0  0  0  0
 11 13  1  0  0  0  0
 11 14  1  0  0  0  0
  9 10  1  0  0  0  0
  9 11  1  0  0  0  0
  9 22  1  0  0  0  0
  7  8  1  0  0  0  0
  7  9  1  0  0  0  0
 26 27  1  0  0  0  0
 26 28  1  0  0  0  0
 26 29  1  0  0  0  0
 24 25  1  0  0  0  0
 24 26  1  0  0  0  0
M  END
$$$$
default_name
  -OEChem-02102213163D

 29 29  0     1  0  0  0  0  0999 V2000
   -3.6042   -3.5728    1.4576 H   0  0  0  0  0  0  0  0  0  0  0  0
   -3.5202   -2.6488    0.8866 C   0  0  0  0  0  0  0  0  0  0  0  0
   -4.2052   -1.9048    1.2896 H   0  0  0  0  0  0  0  0  0  0  0  0
   -3.7552   -2.8428   -0.1584 H   0  0  0  0  0  0  0  0  0  0  0  0
   -2.1052   -2.1358    0.9946 C   0  0  0  0  0  0  0  0  0  0  0  0
   -1.2852   -2.7288    1.6826 O   0  0  0  0  0  0  0  0  0  0  0  0
   -1.8202   -1.0288    0.3146 N   0  0  0  0  0  0  0  0  0  0  0  0
   -2.5542   -0.5788   -0.2104 H   0  0  0  0  0  0  0  0  0  0  0  0
   -0.5102   -0.3728    0.3086 C   0  0  1  0  0  0  0  0  0  0  0  0
    0.0719   -0.7468    1.1521 H   0  0  0  0  0  0  0  0  0  0  0  0
    0.2338   -0.7427   -0.9878 C   0  0  0  0  0  0  0  0  0  0  0  0
    0.3424   -1.8275   -1.0404 H   0  0  0  0  0  0  0  0  0  0  0  0
   -0.3631   -0.4234   -1.8441 H   0  0  0  0  0  0  0  0  0  0  0  0
    1.6006   -0.1183   -1.0986 C   0  0  0  0  0  0  0  0  0  0  0  0
    1.8961    1.1029   -1.6656 N   0  0  0  0  0  0  0  0  0  0  0  0
    1.2484    1.7062   -2.1501 H   0  0  0  0  0  0  0  0  0  0  0  0
    3.2018    1.3489   -1.4656 C   0  0  0  0  0  0  0  0  0  0  0  0
    3.7313    2.2315   -1.8028 H   0  0  0  0  0  0  0  0  0  0  0  0
    3.7643    0.3426   -0.7806 N   0  0  0  0  0  0  0  0  0  0  0  0
    2.7579   -0.5977   -0.5452 C   0  0  0  0  0  0  0  0  0  0  0  0
    2.8637   -1.5223    0.0073 H   0  0  0  0  0  0  0  0  0  0  0  0
   -0.6600    1.1486    0.4782 C   0  0  0  0  0  0  0  0  0  0  0  0
   -1.5001    1.7648   -0.1771 O   0  0  0  0  0  0  0  0  0  0  0  0
    0.1634    1.7559    1.3418 N   0  0  0  0  0  0  0  0  0  0  0  0
    0.8618    1.1897    1.8008 H   0  0  0  0  0  0  0  0  0  0  0  0
    0.1509    3.1886    1.6256 C   0  0  0  0  0  0  0  0  0  0  0  0
   -0.8272    3.4794    2.0152 H   0  0  0  0  0  0  0  0  0  0  0  0
    0.9172    3.4314    2.3624 H   0  0  0  0  0  0  0  0  0  0  0  0
    0.3414    3.7499    0.7095 H   0  0  0  0  0  0  0  0  0  0  0  0
  5  6  2  0  0  0  0
  5  7  1  0  0  0  0
  2  3  1  0  0  0  0
  2  4  1  0  0  0  0
  2  5  1  0  0  0  0
  1  2  1  0  0  0  0
 22 23  2  0  0  0  0
 22 24  1  0  0  0  0
 20 21  1  0  0  0  0
 19 20  1  0  0  0  0
 17 18  1  0  0  0  0
 17 19  2  0  0  0  0
 15 16  1  0  0  0  0
 15 17  1  0  0  0  0
 14 15  1  0  0  0  0
 14 20  2  0  0  0  0
 11 12  1  0  0  0  0
 11 13  1  0  0  0  0
 11 14  1  0  0  0  0
  9 10  1  0  0  0  0
  9 11  1  0  0  0  0
  9 22  1  0  0  0  0
  7  8  1  0  0  0  0
  7  9  1  0  0  0  0
 26 27  1  0  0  0  0
 26 28  1  0  0  0  0
 26 29  1  0  0  0  0
 24 25  1  0  0  0  0
 24 26  1  0  0  0  0
M  END
$$$$
default_name
  -OEChem-02102213163D

 29 29  0     1  0  0  0  0  0999 V2000
   -3.6042   -3.5728    1.4576 H   0  0  0  0  0  0  0  0  0  0  0  0
   -3.5202   -2.6488    0.8866 C   0  0  0  0  0  0  0  0  0  0  0  0
   -4.2052   -1.9048    1.2896 H   0  0  0  0  0  0  0  0  0  0  0  0
   -3.7552   -2.8428   -0.1584 H   0  0  0  0  0  0  0  0  0  0  0  0
   -2.1052   -2.1358    0.9946 C   0  0  0  0  0  0  0  0  0  0  0  0
   -1.2852   -2.7288    1.6826 O   0  0  0  0  0  0  0  0  0  0  0  0
   -1.8202   -1.0288    0.3146 N   0  0  0  0  0  0  0  0  0  0  0  0
   -2.5542   -0.5788   -0.2104 H   0  0  0  0  0  0  0  0  0  0  0  0
   -0.5102   -0.3728    0.3086 C   0  0  1  0  0  0  0  0  0  0  0  0
    0.0719   -0.7468    1.1521 H   0  0  0  0  0  0  0  0  0  0  0  0
    0.2338   -0.7427   -0.9878 C   0  0  0  0  0  0  0  0  0  0  0  0
    0.3424   -1.8275   -1.0404 H   0  0  0  0  0  0  0  0  0  0  0  0
   -0.3631   -0.4234   -1.8441 H   0  0  0  0  0  0  0  0  0  0  0  0
    1.6006   -0.1183   -1.0986 C   0  0  0  0  0  0  0  0  0  0  0  0
    1.8736    1.2003   -1.3933 N   0  0  0  0  0  0  0  0  0  0  0  0
    1.1982    1.9048   -1.6494 H   0  0  0  0  0  0  0  0  0  0  0  0
    3.2003    1.3841   -1.2856 C   0  0  0  0  0  0  0  0  0  0  0  0
    3.7193    2.3180   -1.4631 H   0  0  0  0  0  0  0  0  0  0  0  0
    3.7993    0.2412   -0.9207 N   0  0  0  0  0  0  0  0  0  0  0  0
    2.7937   -0.7218   -0.8028 C   0  0  0  0  0  0  0  0  0  0  0  0
    2.9275   -1.7513   -0.4968 H   0  0  0  0  0  0  0  0  0  0  0  0
   -0.6600    1.1486    0.4782 C   0  0  0  0  0  0  0  0  0  0  0  0
   -1.5001    1.7648   -0.1771 O   0  0  0  0  0  0  0  0  0  0  0  0
    0.1634    1.7559    1.3418 N   0  0  0  0  0  0  0  0  0  0  0  0
    0.8618    1.1897    1.8008 H   0  0  0  0  0  0  0  0  0  0  0  0
    0.1509    3.1886    1.6256 C   0  0  0  0  0  0  0  0  0  0  0  0
   -0.8272    3.4794    2.0152 H   0  0  0  0  0  0  0  0  0  0  0  0
    0.9172    3.4314    2.3624 H   0  0  0  0  0  0  0  0  0  0  0  0
    0.3414    3.7499    0.7095 H   0  0  0  0  0  0  0  0  0  0  0  0
  5  6  2  0  0  0  0
  5  7  1  0  0  0  0
  2  3  1  0  0  0  0
  2  4  1  0  0  0  0
  2  5  1  0  0  0  0
  1  2  1  0  0  0  0
 22 23  2  0  0  0  0
 22 24  1  0  0  0  0
 20 21  1  0  0  0  0
 19 20  1  0  0  0  0
 17 18  1  0  0  0  0
 17 19  2  0  0  0  0
 15 16  1  0  0  0  0
 15 17  1  0  0  0  0
 14 15  1  0  0  0  0
 14 20  2  0  0  0  0
 11 12  1  0  0  0  0
 11 13  1  0  0  0  0
 11 14  1  0  0  0  0
  9 10  1  0  0  0  0
  9 11  1  0  0  0  0
  9 22  1  0  0  0  0
  7  8  1  0  0  0  0
  7  9  1  0  0  0  0
 26 27  1  0  0  0  0
 26 28  1  0  0  0  0
 26 29  1  0  0  0  0
 24 25  1  0  0  0  0
 24 26  1  0  0  0  0
M  END
$$$$
default_name
  -OEChem-02102213163D

 29 29  0     1  0  0  0  0  0999 V2000
   -3.6042   -3.5728    1.4576 H   0  0  0  0  0  0  0  0  0  0  0  0
   -3.5202   -2.6488    0.8866 C   0  0  0  0  0  0  0  0  0  0  0  0
   -4.2052   -1.9048    1.2896 H   0  0  0  0  0  0  0  0  0  0  0  0
   -3.7552   -2.8428   -0.1584 H   0  0  0  0  0  0  0  0  0  0  0  0
   -2.1052   -2.1358    0.9946 C   0  0  0  0  0  0  0  0  0  0  0  0
   -1.2852   -2.7288    1.6826 O   0  0  0  0  0  0  0  0  0  0  0  0
   -1.8202   -1.0288    0.3146 N   0  0  0  0  0  0  0  0  0  0  0  0
   -2.5542   -0.5788   -0.2104 H   0  0  0  0  0  0  0  0  0  0  0  0
   -0.5102   -0.3728    0.3086 C   0  0  1  0  0  0  0  0  0  0  0  0
    0.0719   -0.7468    1.1521 H   0  0  0  0  0  0  0  0  0  0  0  0
    0.2338   -0.7427   -0.9878 C   0  0  0  0  0  0  0  0  0  0  0  0
    0.3424   -1.8275   -1.0404 H   0  0  0  0  0  0  0  0  0  0  0  0
   -0.3631   -0.4234   -1.8441 H   0  0  0  0  0  0  0  0  0  0  0  0
    1.6006   -0.1183   -1.0986 C   0  0  0  0  0  0  0  0  0  0  0  0
    1.8830    1.2309   -1.1051 N   0  0  0  0  0  0  0  0  0  0  0  0
    1.2072    1.9801   -1.1138 H   0  0  0  0  0  0  0  0  0  0  0  0
    3.2188    1.3758   -1.1033 C   0  0  0  0  0  0  0  0  0  0  0  0
    3.7458    2.3221   -1.1133 H   0  0  0  0  0  0  0  0  0  0  0  0
    3.8162    0.1754   -1.0835 N   0  0  0  0  0  0  0  0  0  0  0  0
    2.7984   -0.7819   -1.0846 C   0  0  0  0  0  0  0  0  0  0  0  0
    2.9307   -1.8554   -1.0442 H   0  0  0  0  0  0  0  0  0  0  0  0
   -0.6600    1.1486    0.4782 C   0  0  0  0  0  0  0  0  0  0  0  0
   -1.5001    1.7648   -0.1771 O   0  0  0  0  0  0  0  0  0  0  0  0
    0.1634    1.7559    1.3418 N   0  0  0  0  0  0  0  0  0  0  0  0
    0.8618    1.1897    1.8008 H   0  0  0  0  0  0  0  0  0  0  0  0
    0.1509    3.1886    1.6256 C   0  0  0  0  0  0  0  0  0  0  0  0
   -0.8272    3.4794    2.0152 H   0  0  0  0  0  0  0  0  0  0  0  0
    0.9172    3.4314    2.3624 H   0  0  0  0  0  0  0  0  0  0  0  0
    0.3414    3.7499    0.7095 H   0  0  0  0  0  0  0  0  0  0  0  0
  5  6  2  0  0  0  0
  5  7  1  0  0  0  0
  2  3  1  0  0  0  0
  2  4  1  0  0  0  0
  2  5  1  0  0  0  0
  1  2  1  0  0  0  0
 22 23  2  0  0  0  0
 22 24  1  0  0  0  0
 20 21  1  0  0  0  0
 19 20  1  0  0  0  0
 17 18  1  0  0  0  0
 17 19  2  0  0  0  0
 15 16  1  0  0  0  0
 15 17  1  0  0  0  0
 14 15  1  0  0  0  0
 14 20  2  0  0  0  0
 11 12  1  0  0  0  0
 11 13  1  0  0  0  0
 11 14  1  0  0  0  0
  9 10  1  0  0  0  0
  9 11  1  0  0  0  0
  9 22  1  0  0  0  0
  7  8  1  0  0  0  0
  7  9  1  0  0  0  0
 26 27  1  0  0  0  0
 26 28  1  0  0  0  0
 26 29  1  0  0  0  0
 24 25  1  0  0  0  0
 24 26  1  0  0  0  0
M  END
$$$$
default_name
  -OEChem-02102213163D

 29 29  0     1  0  0  0  0  0999 V2000
   -3.6042   -3.5728    1.4576 H   0  0  0  0  0  0  0  0  0  0  0  0
   -3.5202   -2.6488    0.8866 C   0  0  0  0  0  0  0  0  0  0  0  0
   -4.2052   -1.9048    1.2896 H   0  0  0  0  0  0  0  0  0  0  0  0
   -3.7552   -2.8428   -0.1584 H   0  0  0  0  0  0  0  0  0  0  0  0
   -2.1052   -2.1358    0.9946 C   0  0  0  0  0  0  0  0  0  0  0  0
   -1.2852   -2.7288    1.6826 O   0  0  0  0  0  0  0  0  0  0  0  0
   -1.8202   -1.0288    0.3146 N   0  0  0  0  0  0  0  0  0  0  0  0
   -2.5542   -0.5788   -0.2104 H   0  0  0  0  0  0  0  0  0  0  0  0
   -0.5102   -0.3728    0.3086 C   0  0  1  0  0  0  0  0  0  0  0  0
    0.0719   -0.7468    1.1521 H   0  0  0  0  0  0  0  0  0  0  0  0
    0.2338   -0.7427   -0.9878 C   0  0  0  0  0  0  0  0  0  0  0  0
    0.3424   -1.8275   -1.0404 H   0  0  0  0  0  0  0  0  0  0  0  0
   -0.3631   -0.4234   -1.8441 H   0  0  0  0  0  0  0  0  0  0  0  0
    1.6006   -0.1183   -1.0986 C   0  0  0  0  0  0  0  0  0  0  0  0
    1.9235    1.1926   -0.8204 N   0  0  0  0  0  0  0  0  0  0  0  0
    1.2748    1.9269   -0.5797 H   0  0  0  0  0  0  0  0  0  0  0  0
    3.2561    1.3247   -0.9312 C   0  0  0  0  0  0  0  0  0  0  0  0
    3.8090    2.2434   -0.7774 H   0  0  0  0  0  0  0  0  0  0  0  0
    3.8137    0.1498   -1.2581 N   0  0  0  0  0  0  0  0  0  0  0  0
    2.7715   -0.7740   -1.3714 C   0  0  0  0  0  0  0  0  0  0  0  0
    2.8731   -1.8274   -1.5978 H   0  0  0  0  0  0  0  0  0  0  0  0
   -0.6600    1.1486    0.4782 C   0  0  0  0  0  0  0  0  0  0  0  0
   -1.5001    1.7648   -0.1771 O   0  0  0  0  0  0  0  0  0  0  0  0
    0.1634    1.7559    1.3418 N   0  0  0  0  0  0  0  0  0  0  0  0
    0.8618    1.1897    1.8008 H   0  0  0  0  0  0  0  0  0  0  0  0
    0.1509    3.1886    1.6256 C   0  0  0  0  0  0  0  0  0  0  0  0
   -0.8272    3.4794    2.0152 H   0  0  0  0  0  0  0  0  0  0  0  0
    0.9172    3.4314    2.3624 H   0  0  0  0  0  0  0  0  0  0  0  0
    0.3414    3.7499    0.7095 H   0  0  0  0  0  0  0  0  0  0  0  0
  5  6  2  0  0  0  0
  5  7  1  0  0  0  0
  2  3  1  0  0  0  0
  2  4  1  0  0  0  0
  2  5  1  0  0  0  0
  1  2  1  0  0  0  0
 22 23  2  0  0  0  0
 22 24  1  0  0  0  0
 20 21  1  0  0  0  0
 19 20  1  0  0  0  0
 17 18  1  0  0  0  0
 17 19  2  0  0  0  0
 15 16  1  0  0  0  0
 15 17  1  0  0  0  0
 14 15  1  0  0  0  0
 14 20  2  0  0  0  0
 11 12  1  0  0  0  0
 11 13  1  0  0  0  0
 11 14  1  0  0  0  0
  9 10  1  0  0  0  0
  9 11  1  0  0  0  0
  9 22  1  0  0  0  0
  7  8  1  0  0  0  0
  7  9  1  0  0  0  0
 26 27  1  0  0  0  0
 26 28  1  0  0  0  0
 26 29  1  0  0  0  0
 24 25  1  0  0  0  0
 24 26  1  0  0  0  0
M  END
$$$$
default_name
  -OEChem-02102213163D

 29 29  0     1  0  0  0  0  0999 V2000
   -3.6042   -3.5728    1.4576 H   0  0  0  0  0  0  0  0  0  0  0  0
   -3.5202   -2.6488    0.8866 C   0  0  0  0  0  0  0  0  0  0  0  0
   -4.2052   -1.9048    1.2896 H   0  0  0  0  0  0  0  0  0  0  0  0
   -3.7552   -2.8428   -0.1584 H   0  0  0  0  0  0  0  0  0  0  0  0
   -2.1052   -2.1358    0.9946 C   0  0  0  0  0  0  0  0  0  0  0  0
   -1.2852   -2.7288    1.6826 O   0  0  0  0  0  0  0  0  0  0  0  0
   -1.8202   -1.0288    0.3146 N   0  0  0  0  0  0  0  0  0  0  0  0
   -2.5542   -0.5788   -0.2104 H   0  0  0  0  0  0  0  0  0  0  0  0
   -0.5102   -0.3728    0.3086 C   0  0  1  0  0  0  0  0  0  0  0  0
    0.0719   -0.7468    1.1521 H   0  0  0  0  0  0  0  0  0  0  0  0
    0.2338   -0.7427   -0.9878 C   0  0  0  0  0  0  0  0  0  0  0  0
    0.3424   -1.8275   -1.0404 H   0  0  0  0  0  0  0  0  0  0  0  0
   -0.3631   -0.4234   -1.8441 H   0  0  0  0  0  0  0  0  0  0  0  0
    1.6006   -0.1183   -1.0986 C   0  0  0  0  0  0  0  0  0  0  0  0
    1.9925    1.0880   -0.5588 N   0  0  0  0  0  0  0  0  0  0  0  0
    1.3963    1.7489   -0.0836 H   0  0  0  0  0  0  0  0  0  0  0  0
    3.3096    1.2343   -0.7809 C   0  0  0  0  0  0  0  0  0  0  0  0
    3.9045    2.0873   -0.4782 H   0  0  0  0  0  0  0  0  0  0  0  0
    3.7922    0.1661   -1.4324 N   0  0  0  0  0  0  0  0  0  0  0  0
    2.7149   -0.6984   -1.6436 C   0  0  0  0  0  0  0  0  0  0  0  0
    2.7586   -1.6694   -2.1198 H   0  0  0  0  0  0  0  0  0  0  0  0
   -0.6600    1.1486    0.4782 C   0  0  0  0  0  0  0  0  0  0  0  0
   -1.5001    1.7648   -0.1771 O   0  0  0  0  0  0  0  0  0  0  0  0
    0.1634    1.7559    1.3418 N   0  0  0  0  0  0  0  0  0  0  0  0
    0.8618    1.1897    1.8008 H   0  0  0  0  0  0  0  0  0  0  0  0
    0.1509    3.1886    1.6256 C   0  0  0  0  0  0  0  0  0  0  0  0
   -0.8272    3.4794    2.0152 H   0  0  0  0  0  0  0  0  0  0  0  0
    0.9172    3.4314    2.3624 H   0  0  0  0  0  0  0  0  0  0  0  0
    0.3414    3.7499    0.7095 H   0  0  0  0  0  0  0  0  0  0  0  0
  5  6  2  0  0  0  0
  5  7  1  0  0  0  0
  2  3  1  0  0  0  0
  2  4  1  0  0  0  0
  2  5  1  0  0  0  0
  1  2  1  0  0  0  0
 22 23  2  0  0  0  0
 22 24  1  0  0  0  0
 20 21  1  0  0  0  0
 19 20  1  0  0  0  0
 17 18  1  0  0  0  0
 17 19  2  0  0  0  0
 15 16  1  0  0  0  0
 15 17  1  0  0  0  0
 14 15  1  0  0  0  0
 14 20  2  0  0  0  0
 11 12  1  0  0  0  0
 11 13  1  0  0  0  0
 11 14  1  0  0  0  0
  9 10  1  0  0  0  0
  9 11  1  0  0  0  0
  9 22  1  0  0  0  0
  7  8  1  0  0  0  0
  7  9  1  0  0  0  0
 26 27  1  0  0  0  0
 26 28  1  0  0  0  0
 26 29  1  0  0  0  0
 24 25  1  0  0  0  0
 24 26  1  0  0  0  0
M  END
$$$$
default_name
  -OEChem-02102213163D

 29 29  0     1  0  0  0  0  0999 V2000
   -3.6042   -3.5728    1.4576 H   0  0  0  0  0  0  0  0  0  0  0  0
   -3.5202   -2.6488    0.8866 C   0  0  0  0  0  0  0  0  0  0  0  0
   -4.2052   -1.9048    1.2896 H   0  0  0  0  0  0  0  0  0  0  0  0
   -3.7552   -2.8428   -0.1584 H   0  0  0  0  0  0  0  0  0  0  0  0
   -2.1052   -2.1358    0.9946 C   0  0  0  0  0  0  0  0  0  0  0  0
   -1.2852   -2.7288    1.6826 O   0  0  0  0  0  0  0  0  0  0  0  0
   -1.8202   -1.0288    0.3146 N   0  0  0  0  0  0  0  0  0  0  0  0
   -2.5542   -0.5788   -0.2104 H   0  0  0  0  0  0  0  0  0  0  0  0
   -0.5102   -0.3728    0.3086 C   0  0  1  0  0  0  0  0  0  0  0  0
    0.0719   -0.7468    1.1521 H   0  0  0  0  0  0  0  0  0  0  0  0
    0.2338   -0.7427   -0.9878 C   0  0  0  0  0  0  0  0  0  0  0  0
    0.3424   -1.8275   -1.0404 H   0  0  0  0  0  0  0  0  0  0  0  0
   -0.3631   -0.4234   -1.8441 H   0  0  0  0  0  0  0  0  0  0  0  0
    1.6006   -0.1183   -1.0986 C   0  0  0  0  0  0  0  0  0  0  0  0
    2.0852    0.9242   -0.3381 N   0  0  0  0  0  0  0  0  0  0  0  0
    1.5635    1.4581    0.3409 H   0  0  0  0  0  0  0  0  0  0  0  0
    3.3757    1.1106   -0.6627 C   0  0  0  0  0  0  0  0  0  0  0  0
    4.0260    1.8644   -0.2360 H   0  0  0  0  0  0  0  0  0  0  0  0
    3.7529    0.2232   -1.5947 N   0  0  0  0  0  0  0  0  0  0  0  0
    2.6325   -0.5604   -1.8828 C   0  0  0  0  0  0  0  0  0  0  0  0
    2.5950   -1.3920   -2.5745 H   0  0  0  0  0  0  0  0  0  0  0  0
   -0.6600    1.1486    0.4782 C   0  0  0  0  0  0  0  0  0  0  0  0
   -1.5001    1.7648   -0.1771 O   0  0  0  0  0  0  0  0  0  0  0  0
    0.1634    1.7559    1.3418 N   0  0  0  0  0  0  0  0  0  0  0  0
    0.8618    1.1897    1.8008 H   0  0  0  0  0  0  0  0  0  0  0  0
    0.1509    3.1886    1.6256 C   0  0  0  0  0  0  0  0  0  0  0  0
   -0.8272    3.4794    2.0152 H   0  0  0  0  0  0  0  0  0  0  0  0
    0.9172    3.4314    2.3624 H   0  0  0  0  0  0  0  0  0  0  0  0
    0.3414    3.7499    0.7095 H   0  0  0  0  0  0  0  0  0  0  0  0
  5  6  2  0  0  0  0
  5  7  1  0  0  0  0
  2  3  1  0  0  0  0
  2  4  1  0  0  0  0
  2  5  1  0  0  0  0
  1  2  1  0  0  0  0
 22 23  2  0  0  0  0
 22 24  1  0  0  0  0
 20 21  1  0  0  0  0
 19 20  1  0  0  0  0
 17 18  1  0  0  0  0
 17 19  2  0  0  0  0
 15 16  1  0  0  0  0
 15 17  1  0  0  0  0
 14 15  1  0  0  0  0
 14 20  2  0  0  0  0
 11 12  1  0  0  0  0
 11 13  1  0  0  0  0
 11 14  1  0  0  0  0
  9 10  1  0  0  0  0
  9 11  1  0  0  0  0
  9 22  1  0  0  0  0
  7  8  1  0  0  0  0
  7  9  1  0  0  0  0
 26 27  1  0  0  0  0
 26 28  1  0  0  0  0
 26 29  1  0  0  0  0
 24 25  1  0  0  0  0
 24 26  1  0  0  0  0
M  END
$$$$
default_name
  -OEChem-02102213163D

 29 29  0     1  0  0  0  0  0999 V2000
   -3.6042   -3.5728    1.4576 H   0  0  0  0  0  0  0  0  0  0  0  0
   -3.5202   -2.6488    0.8866 C   0  0  0  0  0  0  0  0  0  0  0  0
   -4.2052   -1.9048    1.2896 H   0  0  0  0  0  0  0  0  0  0  0  0
   -3.7552   -2.8428   -0.1584 H   0  0  0  0  0  0  0  0  0  0  0  0
   -2.1052   -2.1358    0.9946 C   0  0  0  0  0  0  0  0  0  0  0  0
   -1.2852   -2.7288    1.6826 O   0  0  0  0  0  0  0  0  0  0  0  0
   -1.8202   -1.0288    0.3146 N   0  0  0  0  0  0  0  0  0  0  0  0
   -2.5542   -0.5788   -0.2104 H   0  0  0  0  0  0  0  0  0  0  0  0
   -0.5102   -0.3728    0.3086 C   0  0  1  0  0  0  0  0  0  0  0  0
    0.0719   -0.7468    1.1521 H   0  0  0  0  0  0  0  0  0  0  0  0
    0.2338   -0.7427   -0.9878 C   0  0  0  0  0  0  0  0  0  0  0  0
    0.3424   -1.8275   -1.0404 H   0  0  0  0  0  0  0  0  0  0  0  0
   -0.3631   -0.4234   -1.8441 H   0  0  0  0  0  0  0  0  0  0  0  0
    1.6006   -0.1183   -1.0986 C   0  0  0  0  0  0  0  0  0  0  0  0
    2.1953    0.7125   -0.1733 N   0  0  0  0  0  0  0  0  0  0  0  0
    1.7650    1.0744    0.6646 H   0  0  0  0  0  0  0  0  0  0  0  0
    3.4498    0.9621   -0.5847 C   0  0  0  0  0  0  0  0  0  0  0  0
    4.1650    1.5900   -0.0675 H   0  0  0  0  0  0  0  0  0  0  0  0
    3.6987    0.3172   -1.7338 N   0  0  0  0  0  0  0  0  0  0  0  0
    2.5298   -0.3694   -2.0726 C   0  0  0  0  0  0  0  0  0  0  0  0
    2.3935   -1.0142   -2.9312 H   0  0  0  0  0  0  0  0  0  0  0  0
   -0.6600    1.1486    0.4782 C   0  0  0  0  0  0  0  0  0  0  0  0
   -1.5001    1.7648   -0.1771 O   0  0  0  0  0  0  0  0  0  0  0  0
    0.1634    1.7559    1.3418 N   0  0  0  0  0  0  0  0  0  0  0  0
    0.8618    1.1897    1.8008 H   0  0  0  0  0  0  0  0  0  0  0  0
    0.1509    3.1886    1.6256 C   0  0  0  0  0  0  0  0  0  0  0  0
   -0.8272    3.4794    2.0152 H   0  0  0  0  0  0  0  0  0  0  0  0
    0.9172    3.4314    2.3624 H   0  0  0  0  0  0  0  0  0  0  0  0
    0.3414    3.7499    0.7095 H   0  0  0  0  0  0  0  0  0  0  0  0
  5  6  2  0  0  0  0
  5  7  1  0  0  0  0
  2  3  1  0  0  0  0
  2  4  1  0  0  0  0
  2  5  1  0  0  0  0
  1  2  1  0  0  0  0
 22 23  2  0  0  0  0
 22 24  1  0  0  0  0
 20 21  1  0  0  0  0
 19 20  1  0  0  0  0
 17 18  1  0  0  0  0
 17 19  2  0  0  0  0
 15 16  1  0  0  0  0
 15 17  1  0  0  0  0
 14 15  1  0  0  0  0
 14 20  2  0  0  0  0
 11 12  1  0  0  0  0
 11 13  1  0  0  0  0
 11 14  1  0  0  0  0
  9 10  1  0  0  0  0
  9 11  1  0  0  0  0
  9 22  1  0  0  0  0
  7  8  1  0  0  0  0
  7  9  1  0  0  0  0
 26 27  1  0  0  0  0
 26 28  1  0  0  0  0
 26 29  1  0  0  0  0
 24 25  1  0  0  0  0
 24 26  1  0  0  0  0
M  END
$$$$
default_name
  -OEChem-02102213163D

 29 29  0     1  0  0  0  0  0999 V2000
   -3.6042   -3.5728    1.4576 H   0  0  0  0  0  0  0  0  0  0  0  0
   -3.5202   -2.6488    0.8866 C   0  0  0  0  0  0  0  0  0  0  0  0
   -4.2052   -1.9048    1.2896 H   0  0  0  0  0  0  0  0  0  0  0  0
   -3.7552   -2.8428   -0.1584 H   0  0  0  0  0  0  0  0  0  0  0  0
   -2.1052   -2.1358    0.9946 C   0  0  0  0  0  0  0  0  0  0  0  0
   -1.2852   -2.7288    1.6826 O   0  0  0  0  0  0  0  0  0  0  0  0
   -1.8202   -1.0288    0.3146 N   0  0  0  0  0  0  0  0  0  0  0  0
   -2.5542   -0.5788   -0.2104 H   0  0  0  0  0  0  0  0  0  0  0  0
   -0.5102   -0.3728    0.3086 C   0  0  1  0  0  0  0  0  0  0  0  0
    0.0719   -0.7468    1.1521 H   0  0  0  0  0  0  0  0  0  0  0  0
    0.2338   -0.7427   -0.9878 C   0  0  0  0  0  0  0  0  0  0  0  0
    0.3424   -1.8275   -1.0404 H   0  0  0  0  0  0  0  0  0  0  0  0
   -0.3631   -0.4234   -1.8441 H   0  0  0  0  0  0  0  0  0  0  0  0
    1.6006   -0.1183   -1.0986 C   0  0  0  0  0  0  0  0  0  0  0  0
    2.3153    0.4671   -0.0756 N   0  0  0  0  0  0  0  0  0  0  0  0
    1.9871    0.6240    0.8656 H   0  0  0  0  0  0  0  0  0  0  0  0
    3.5270    0.7989   -0.5521 C   0  0  0  0  0  0  0  0  0  0  0  0
    4.3121    1.2827    0.0160 H   0  0  0  0  0  0  0  0  0  0  0  0
    3.6332    0.4417   -1.8403 N   0  0  0  0  0  0  0  0  0  0  0  0
    2.4140   -0.1384   -2.2001 C   0  0  0  0  0  0  0  0  0  0  0  0
    2.1678   -0.5616   -3.1653 H   0  0  0  0  0  0  0  0  0  0  0  0
   -0.6600    1.1486    0.4782 C   0  0  0  0  0  0  0  0  0  0  0  0
   -1.5001    1.7648   -0.1771 O   0  0  0  0  0  0  0  0  0  0  0  0
    0.1634    1.7559    1.3418 N   0  0  0  0  0  0  0  0  0  0  0  0
    0.8618    1.1897    1.8008 H   0  0  0  0  0  0  0  0  0  0  0  0
    0.1509    3.1886    1.6256 C   0  0  0  0  0  0  0  0  0  0  0  0
   -0.8272    3.4794    2.0152 H   0  0  0  0  0  0  0  0  0  0  0  0
    0.9172    3.4314    2.3624 H   0  0  0  0  0  0  0  0  0  0  0  0
    0.3414    3.7499    0.7095 H   0  0  0  0  0  0  0  0  0  0  0  0
  5  6  2  0  0  0  0
  5  7  1  0  0  0  0
  2  3  1  0  0  0  0
  2  4  1  0  0  0  0
  2  5  1  0  0  0  0
  1  2  1  0  0  0  0
 22 23  2  0  0  0  0
 22 24  1  0  0  0  0
 20 21  1  0  0  0  0
 19 20  1  0  0  0  0
 17 18  1  0  0  0  0
 17 19  2  0  0  0  0
 15 16  1  0  0  0  0
 15 17  1  0  0  0  0
 14 15  1  0  0  0  0
 14 20  2  0  0  0  0
 11 12  1  0  0  0  0
 11 13  1  0  0  0  0
 11 14  1  0  0  0  0
  9 10  1  0  0  0  0
  9 11  1  0  0  0  0
  9 22  1  0  0  0  0
  7  8  1  0  0  0  0
  7  9  1  0  0  0  0
 26 27  1  0  0  0  0
 26 28  1  0  0  0  0
 26 29  1  0  0  0  0
 24 25  1  0  0  0  0
 24 26  1  0  0  0  0
M  END
$$$$
default_name
  -OEChem-02102213163D

 29 29  0     1  0  0  0  0  0999 V2000
   -3.6042   -3.5728    1.4576 H   0  0  0  0  0  0  0  0  0  0  0  0
   -3.5202   -2.6488    0.8866 C   0  0  0  0  0  0  0  0  0  0  0  0
   -4.2052   -1.9048    1.2896 H   0  0  0  0  0  0  0  0  0  0  0  0
   -3.7552   -2.8428   -0.1584 H   0  0  0  0  0  0  0  0  0  0  0  0
   -2.1052   -2.1358    0.9946 C   0  0  0  0  0  0  0  0  0  0  0  0
   -1.2852   -2.7288    1.6826 O   0  0  0  0  0  0  0  0  0  0  0  0
   -1.8202   -1.0288    0.3146 N   0  0  0  0  0  0  0  0  0  0  0  0
   -2.5542   -0.5788   -0.2104 H   0  0  0  0  0  0  0  0  0  0  0  0
   -0.5102   -0.3728    0.3086 C   0  0  1  0  0  0  0  0  0  0  0  0
    0.0719   -0.7468    1.1521 H   0  0  0  0  0  0  0  0  0  0  0  0
    0.2338   -0.7427   -0.9878 C   0  0  0  0  0  0  0  0  0  0  0  0
    0.3424   -1.8275   -1.0404 H   0  0  0  0  0  0  0  0  0  0  0  0
   -0.3631   -0.4234   -1.8441 H   0  0  0  0  0  0  0  0  0  0  0  0
    1.6006   -0.1183   -1.0986 C   0  0  0  0  0  0  0  0  0  0  0  0
    2.4370    0.2050   -0.0517 N   0  0  0  0  0  0  0  0  0  0  0  0
    2.2146    0.1374    0.9302 H   0  0  0  0  0  0  0  0  0  0  0  0
    3.6019    0.6322   -0.5673 C   0  0  0  0  0  0  0  0  0  0  0  0
    4.4574    0.9635    0.0087 H   0  0  0  0  0  0  0  0  0  0  0  0
    3.5609    0.5882   -1.9069 N   0  0  0  0  0  0  0  0  0  0  0  0
    2.2928    0.1169   -2.2565 C   0  0  0  0  0  0  0  0  0  0  0  0
    1.9333   -0.0653   -3.2610 H   0  0  0  0  0  0  0  0  0  0  0  0
   -0.6600    1.1486    0.4782 C   0  0  0  0  0  0  0  0  0  0  0  0
   -1.5001    1.7648   -0.1771 O   0  0  0  0  0  0  0  0  0  0  0  0
    0.1634    1.7559    1.3418 N   0  0  0  0  0  0  0  0  0  0  0  0
    0.8618    1.1897    1.8008 H   0  0  0  0  0  0  0  0  0  0  0  0
    0.1509    3.1886    1.6256 C   0  0  0  0  0  0  0  0  0  0  0  0
   -0.8272    3.4794    2.0152 H   0  0  0  0  0  0  0  0  0  0  0  0
    0.9172    3.4314    2.3624 H   0  0  0  0  0  0  0  0  0  0  0  0
    0.3414    3.7499    0.7095 H   0  0  0  0  0  0  0  0  0  0  0  0
  5  6  2  0  0  0  0
  5  7  1  0  0  0  0
  2  3  1  0  0  0  0
  2  4  1  0  0  0  0
  2  5  1  0  0  0  0
  1  2  1  0  0  0  0
 22 23  2  0  0  0  0
 22 24  1  0  0  0  0
 20 21  1  0  0  0  0
 19 20  1  0  0  0  0
 17 18  1  0  0  0  0
 17 19  2  0  0  0  0
 15 16  1  0  0  0  0
 15 17  1  0  0  0  0
 14 15  1  0  0  0  0
 14 20  2  0  0  0  0
 11 12  1  0  0  0  0
 11 13  1  0  0  0  0
 11 14  1  0  0  0  0
  9 10  1  0  0  0  0
  9 11  1  0  0  0  0
  9 22  1  0  0  0  0
  7  8  1  0  0  0  0
  7  9  1  0  0  0  0
 26 27  1  0  0  0  0
 26 28  1  0  0  0  0
 26 29  1  0  0  0  0
 24 25  1  0  0  0  0
 24 26  1  0  0  0  0
M  END
$$$$
default_name
  -OEChem-02102213163D

 29 29  0     1  0  0  0  0  0999 V2000
   -3.6042   -3.5728    1.4576 H   0  0  0  0  0  0  0  0  0  0  0  0
   -3.5202   -2.6488    0.8866 C   0  0  0  0  0  0  0  0  0  0  0  0
   -4.2052   -1.9048    1.2896 H   0  0  0  0  0  0  0  0  0  0  0  0
   -3.7552   -2.8428   -0.1584 H   0  0  0  0  0  0  0  0  0  0  0  0
   -2.1052   -2.1358    0.9946 C   0  0  0  0  0  0  0  0  0  0  0  0
   -1.2852   -2.7288    1.6826 O   0  0  0  0  0  0  0  0  0  0  0  0
   -1.8202   -1.0288    0.3146 N   0  0  0  0  0  0  0  0  0  0  0  0
   -2.5542   -0.5788   -0.2104 H   0  0  0  0  0  0  0  0  0  0  0  0
   -0.5102   -0.3728    0.3086 C   0  0  1  0  0  0  0  0  0  0  0  0
    0.0719   -0.7468    1.1521 H   0  0  0  0  0  0  0  0  0  0  0  0
    0.2338   -0.7427   -0.9878 C   0  0  0  0  0  0  0  0  0  0  0  0
    0.3424   -1.8275   -1.0404 H   0  0  0  0  0  0  0  0  0  0  0  0
   -0.3631   -0.4234   -1.8441 H   0  0  0  0  0  0  0  0  0  0  0  0
    1.6006   -0.1183   -1.0986 C   0  0  0  0  0  0  0  0  0  0  0  0
    2.5522   -0.0562   -0.1032 N   0  0  0  0  0  0  0  0  0  0  0  0
    2.4321   -0.3520    0.8540 H   0  0  0  0  0  0  0  0  0  0  0  0
    3.6695    0.4733   -0.6291 C   0  0  0  0  0  0  0  0  0  0  0  0
    4.5908    0.6542   -0.0889 H   0  0  0  0  0  0  0  0  0  0  0  0
    3.4867    0.7467   -1.9291 N   0  0  0  0  0  0  0  0  0  0  0  0
    2.1745    0.3790   -2.2381 C   0  0  0  0  0  0  0  0  0  0  0  0
    1.7059    0.4411   -3.2118 H   0  0  0  0  0  0  0  0  0  0  0  0
   -0.6600    1.1486    0.4782 C   0  0  0  0  0  0  0  0  0  0  0  0
   -1.5001    1.7648   -0.1771 O   0  0  0  0  0  0  0  0  0  0  0  0
    0.1634    1.7559    1.3418 N   0  0  0  0  0  0  0  0  0  0  0  0
    0.8618    1.1897    1.8008 H   0  0  0  0  0  0  0  0  0  0  0  0
    0.1509    3.1886    1.6256 C   0  0  0  0  0  0  0  0  0  0  0  0
   -0.8272    3.4794    2.0152 H   0  0  0  0  0  0  0  0  0  0  0  0
    0.9172    3.4314    2.3624 H   0  0  0  0  0  0  0  0  0  0  0  0
    0.3414    3.7499    0.7095 H   0  0  0  0  0  0  0  0  0  0  0  0
  5  6  2  0  0  0  0
  5  7  1  0  0  0  0
  2  3  1  0  0  0  0
  2  4  1  0  0  0  0
  2  5  1  0  0  0  0
  1  2  1  0  0  0  0
 22 23  2  0  0  0  0
 22 24  1  0  0  0  0
 20 21  1  0  0  0  0
 19 20  1  0  0  0  0
 17 18  1  0  0  0  0
 17 19  2  0  0  0  0
 15 16  1  0  0  0  0
 15 17  1  0  0  0  0
 14 15  1  0  0  0  0
 14 20  2  0  0  0  0
 11 12  1  0  0  0  0
 11 13  1  0  0  0  0
 11 14  1  0  0  0  0
  9 10  1  0  0  0  0
  9 11  1  0  0  0  0
  9 22  1  0  0  0  0
  7  8  1  0  0  0  0
  7  9  1  0  0  0  0
 26 27  1  0  0  0  0
 26 28  1  0  0  0  0
 26 29  1  0  0  0  0
 24 25  1  0  0  0  0
 24 26  1  0  0  0  0
M  END
$$$$
default_name
  -OEChem-02102213163D

 29 29  0     1  0  0  0  0  0999 V2000
   -3.6042   -3.5728    1.4576 H   0  0  0  0  0  0  0  0  0  0  0  0
   -3.5202   -2.6488    0.8866 C   0  0  0  0  0  0  0  0  0  0  0  0
   -4.2052   -1.9048    1.2896 H   0  0  0  0  0  0  0  0  0  0  0  0
   -3.7552   -2.8428   -0.1584 H   0  0  0  0  0  0  0  0  0  0  0  0
   -2.1052   -2.1358    0.9946 C   0  0  0  0  0  0  0  0  0  0  0  0
   -1.2852   -2.7288    1.6826 O   0  0  0  0  0  0  0  0  0  0  0  0
   -1.8202   -1.0288    0.3146 N   0  0  0  0  0  0  0  0  0  0  0  0
   -2.5542   -0.5788   -0.2104 H   0  0  0  0  0  0  0  0  0  0  0  0
   -0.5102   -0.3728    0.3086 C   0  0  1  0  0  0  0  0  0  0  0  0
    0.0719   -0.7468    1.1521 H   0  0  0  0  0  0  0  0  0  0  0  0
    0.2338   -0.7427   -0.9878 C   0  0  0  0  0  0  0  0  0  0  0  0
    0.3424   -1.8275   -1.0404 H   0  0  0  0  0  0  0  0  0  0  0  0
   -0.3631   -0.4234   -1.8441 H   0  0  0  0  0  0  0  0  0  0  0  0
    1.6006   -0.1183   -1.0986 C   0  0  0  0  0  0  0  0  0  0  0  0
    2.6529   -0.2986   -0.2267 N   0  0  0  0  0  0  0  0  0  0  0  0
    2.6246   -0.8110    0.6421 H   0  0  0  0  0  0  0  0  0  0  0  0
    3.7252    0.3331   -0.7333 C   0  0  0  0  0  0  0  0  0  0  0  0
    4.7034    0.3757   -0.2701 H   0  0  0  0  0  0  0  0  0  0  0  0
    3.4156    0.9064   -1.9054 N   0  0  0  0  0  0  0  0  0  0  0  0
    2.0672    0.6301   -2.1461 C   0  0  0  0  0  0  0  0  0  0  0  0
    1.5012    0.9230   -3.0210 H   0  0  0  0  0  0  0  0  0  0  0  0
   -0.6600    1.1486    0.4782 C   0  0  0  0  0  0  0  0  0  0  0  0
   -1.5001    1.7648   -0.1771 O   0  0  0  0  0  0  0  0  0  0  0  0
    0.1634    1.7559    1.3418 N   0  0  0  0  0  0  0  0  0  0  0  0
    0.8618    1.1897    1.8008 H   0  0  0  0  0  0  0  0  0  0  0  0
    0.1509    3.1886    1.6256 C   0  0  0  0  0  0  0  0  0  0  0  0
   -0.8272    3.4794    2.0152 H   0  0  0  0  0  0  0  0  0  0  0  0
    0.9172    3.4314    2.3624 H   0  0  0  0  0  0  0  0  0  0  0  0
    0.3414    3.7499    0.7095 H   0  0  0  0  0  0  0  0  0  0  0  0
  5  6  2  0  0  0  0
  5  7  1  0  0  0  0
  2  3  1  0  0  0  0
  2  4  1  0  0  0  0
  2  5  1  0  0  0  0
  1  2  1  0  0  0  0
 22 23  2  0  0  0  0
 22 24  1  0  0  0  0
 20 21  1  0  0  0  0
 19 20  1  0  0  0  0
 17 18  1  0  0  0  0
 17 19  2  0  0  0  0
 15 16  1  0  0  0  0
 15 17  1  0  0  0  0
 14 15  1  0  0  0  0
 14 20  2  0  0  0  0
 11 12  1  0  0  0  0
 11 13  1  0  0  0  0
 11 14  1  0  0  0  0
  9 10  1  0  0  0  0
  9 11  1  0  0  0  0
  9 22  1  0  0  0  0
  7  8  1  0  0  0  0
  7  9  1  0  0  0  0
 26 27  1  0  0  0  0
 26 28  1  0  0  0  0
 26 29  1  0  0  0  0
 24 25  1  0  0  0  0
 24 26  1  0  0  0  0
M  END
$$$$
default_name
  -OEChem-02102213163D

 29 29  0     1  0  0  0  0  0999 V2000
   -3.6042   -3.5728    1.4576 H   0  0  0  0  0  0  0  0  0  0  0  0
   -3.5202   -2.6488    0.8866 C   0  0  0  0  0  0  0  0  0  0  0  0
   -4.2052   -1.9048    1.2896 H   0  0  0  0  0  0  0  0  0  0  0  0
   -3.7552   -2.8428   -0.1584 H   0  0  0  0  0  0  0  0  0  0  0  0
   -2.1052   -2.1358    0.9946 C   0  0  0  0  0  0  0  0  0  0  0  0
   -1.2852   -2.7288    1.6826 O   0  0  0  0  0  0  0  0  0  0  0  0
   -1.8202   -1.0288    0.3146 N   0  0  0  0  0  0  0  0  0  0  0  0
   -2.5542   -0.5788   -0.2104 H   0  0  0  0  0  0  0  0  0  0  0  0
   -0.5102   -0.3728    0.3086 C   0  0  1  0  0  0  0  0  0  0  0  0
    0.0719   -0.7468    1.1521 H   0  0  0  0  0  0  0  0  0  0  0  0
    0.2338   -0.7427   -0.9878 C   0  0  0  0  0  0  0  0  0  0  0  0
    0.3424   -1.8275   -1.0404 H   0  0  0  0  0  0  0  0  0  0  0  0
   -0.3631   -0.4234   -1.8441 H   0  0  0  0  0  0  0  0  0  0  0  0
    1.6006   -0.1183   -1.0986 C   0  0  0  0  0  0  0  0  0  0  0  0
    2.7324   -0.5056   -0.4137 N   0  0  0  0  0  0  0  0  0  0  0  0
    2.7791   -1.2083    0.3090 H   0  0  0  0  0  0  0  0  0  0  0  0
    3.7651    0.2210   -0.8729 C   0  0  0  0  0  0  0  0  0  0  0  0
    4.7873    0.1471   -0.5226 H   0  0  0  0  0  0  0  0  0  0  0  0
    3.3526    1.0565   -1.8373 N   0  0  0  0  0  0  0  0  0  0  0  0
    1.9782    0.8532   -1.9868 C   0  0  0  0  0  0  0  0  0  0  0  0
    1.3331    1.3476   -2.7015 H   0  0  0  0  0  0  0  0  0  0  0  0
   -0.6600    1.1486    0.4782 C   0  0  0  0  0  0  0  0  0  0  0  0
   -1.5001    1.7648   -0.1771 O   0  0  0  0  0  0  0  0  0  0  0  0
    0.1634    1.7559    1.3418 N   0  0  0  0  0  0  0  0  0  0  0  0
    0.8618    1.1897    1.8008 H   0  0  0  0  0  0  0  0  0  0  0  0
    0.1509    3.1886    1.6256 C   0  0  0  0  0  0  0  0  0  0  0  0
   -0.8272    3.4794    2.0152 H   0  0  0  0  0  0  0  0  0  0  0  0
    0.9172    3.4314    2.3624 H   0  0  0  0  0  0  0  0  0  0  0  0
    0.3414    3.7499    0.7095 H   0  0  0  0  0  0  0  0  0  0  0  0
  5  6  2  0  0  0  0
  5  7  1  0  0  0  0
  2  3  1  0  0  0  0
  2  4  1  0  0  0  0
  2  5  1  0  0  0  0
  1  2  1  0  0  0  0
 22 23  2  0  0  0  0
 22 24  1  0  0  0  0
 20 21  1  0  0  0  0
 19 20  1  0  0  0  0
 17 18  1  0  0  0  0
 17 19  2  0  0  0  0
 15 16  1  0  0  0  0
 15 17  1  0  0  0  0
 14 15  1  0  0  0  0
 14 20  2  0  0  0  0
 11 12  1  0  0  0  0
 11 13  1  0  0  0  0
 11 14  1  0  0  0  0
  9 10  1  0  0  0  0
  9 11  1  0  0  0  0
  9 22  1  0  0  0  0
  7  8  1  0  0  0  0
  7  9  1  0  0  0  0
 26 27  1  0  0  0  0
 26 28  1  0  0  0  0
 26 29  1  0  0  0  0
 24 25  1  0  0  0  0
 24 26  1  0  0  0  0
M  END
$$$$
default_name
  -OEChem-02102213163D

 29 29  0     1  0  0  0  0  0999 V2000
   -3.6042   -3.5728    1.4576 H   0  0  0  0  0  0  0  0  0  0  0  0
   -3.5202   -2.6488    0.8866 C   0  0  0  0  0  0  0  0  0  0  0  0
   -4.2052   -1.9048    1.2896 H   0  0  0  0  0  0  0  0  0  0  0  0
   -3.7552   -2.8428   -0.1584 H   0  0  0  0  0  0  0  0  0  0  0  0
   -2.1052   -2.1358    0.9946 C   0  0  0  0  0  0  0  0  0  0  0  0
   -1.2852   -2.7288    1.6826 O   0  0  0  0  0  0  0  0  0  0  0  0
   -1.8202   -1.0288    0.3146 N   0  0  0  0  0  0  0  0  0  0  0  0
   -2.5542   -0.5788   -0.2104 H   0  0  0  0  0  0  0  0  0  0  0  0
   -0.5102   -0.3728    0.3086 C   0  0  1  0  0  0  0  0  0  0  0  0
    0.0719   -0.7468    1.1521 H   0  0  0  0  0  0  0  0  0  0  0  0
    0.2338   -0.7427   -0.9878 C   0  0  0  0  0  0  0  0  0  0  0  0
    0.3424   -1.8275   -1.0404 H   0  0  0  0  0  0  0  0  0  0  0  0
   -0.3631   -0.4234   -1.8441 H   0  0  0  0  0  0  0  0  0  0  0  0
    1.6006   -0.1183   -1.0986 C   0  0  0  0  0  0  0  0  0  0  0  0
    2.7851   -0.6632   -0.6514 N   0  0  0  0  0  0  0  0  0  0  0  0
    2.8851   -1.5168   -0.1226 H   0  0  0  0  0  0  0  0  0  0  0  0
    3.7865    0.1448   -1.0383 C   0  0  0  0  0  0  0  0  0  0  0  0
    4.8370   -0.0160   -0.8291 H   0  0  0  0  0  0  0  0  0  0  0  0
    3.3018    1.1867   -1.7296 N   0  0  0  0  0  0  0  0  0  0  0  0
    1.9136    1.0329   -1.7710 C   0  0  0  0  0  0  0  0  0  0  0  0
    1.2131    1.6859   -2.2753 H   0  0  0  0  0  0  0  0  0  0  0  0
   -0.6600    1.1486    0.4782 C   0  0  0  0  0  0  0  0  0  0  0  0
   -1.5001    1.7648   -0.1771 O   0  0  0  0  0  0  0  0  0  0  0  0
    0.1634    1.7559    1.3418 N   0  0  0  0  0  0  0  0  0  0  0  0
    0.8618    1.1897    1.8008 H   0  0  0  0  0  0  0  0  0  0  0  0
    0.1509    3.1886    1.6256 C   0  0  0  0  0  0  0  0  0  0  0  0
   -0.8272    3.4794    2.0152 H   0  0  0  0  0  0  0  0  0  0  0  0
    0.9172    3.4314    2.3624 H   0  0  0  0  0  0  0  0  0  0  0  0
    0.3414    3.7499    0.7095 H   0  0  0  0  0  0  0  0  0  0  0  0
  5  6  2  0  0  0  0
  5  7  1  0  0  0  0
  2  3  1  0  0  0  0
  2  4  1  0  0  0  0
  2  5  1  0  0  0  0
  1  2  1  0  0  0  0
 22 23  2  0  0  0  0
 22 24  1  0  0  0  0
 20 21  1  0  0  0  0
 19 20  1  0  0  0  0
 17 18  1  0  0  0  0
 17 19  2  0  0  0  0
 15 16  1  0  0  0  0
 15 17  1  0  0  0  0
 14 15  1  0  0  0  0
 14 20  2  0  0  0  0
 11 12  1  0  0  0  0
 11 13  1  0  0  0  0
 11 14  1  0  0  0  0
  9 10  1  0  0  0  0
  9 11  1  0  0  0  0
  9 22  1  0  0  0  0
  7  8  1  0  0  0  0
  7  9  1  0  0  0  0
 26 27  1  0  0  0  0
 26 28  1  0  0  0  0
 26 29  1  0  0  0  0
 24 25  1  0  0  0  0
 24 26  1  0  0  0  0
M  END
$$$$
default_name
  -OEChem-02102213163D

 29 29  0     1  0  0  0  0  0999 V2000
   -3.6042   -3.5728    1.4576 H   0  0  0  0  0  0  0  0  0  0  0  0
   -3.5202   -2.6488    0.8866 C   0  0  0  0  0  0  0  0  0  0  0  0
   -4.2052   -1.9048    1.2896 H   0  0  0  0  0  0  0  0  0  0  0  0
   -3.7552   -2.8428   -0.1584 H   0  0  0  0  0  0  0  0  0  0  0  0
   -2.1052   -2.1358    0.9946 C   0  0  0  0  0  0  0  0  0  0  0  0
   -1.2852   -2.7288    1.6826 O   0  0  0  0  0  0  0  0  0  0  0  0
   -1.8202   -1.0288    0.3146 N   0  0  0  0  0  0  0  0  0  0  0  0
   -2.5542   -0.5788   -0.2104 H   0  0  0  0  0  0  0  0  0  0  0  0
   -0.5102   -0.3728    0.3086 C   0  0  1  0  0  0  0  0  0  0  0  0
    0.0719   -0.7468    1.1521 H   0  0  0  0  0  0  0  0  0  0  0  0
    0.2338   -0.7427   -0.9878 C   0  0  0  0  0  0  0  0  0  0  0  0
    0.3424   -1.8275   -1.0404 H   0  0  0  0  0  0  0  0  0  0  0  0
   -0.3631   -0.4234   -1.8441 H   0  0  0  0  0  0  0  0  0  0  0  0
    1.6006   -0.1183   -1.0986 C   0  0  0  0  0  0  0  0  0  0  0  0
    2.8076   -0.7607   -0.9237 N   0  0  0  0  0  0  0  0  0  0  0  0
    2.9353   -1.7154   -0.6232 H   0  0  0  0  0  0  0  0  0  0  0  0
    3.7880    0.1096   -1.2183 C   0  0  0  0  0  0  0  0  0  0  0  0
    4.8490   -0.1025   -1.1688 H   0  0  0  0  0  0  0  0  0  0  0  0
    3.2668    1.2881   -1.5896 N   0  0  0  0  0  0  0  0  0  0  0  0
    1.8778    1.1570   -1.5134 C   0  0  0  0  0  0  0  0  0  0  0  0
    1.1493    1.9148   -1.7713 H   0  0  0  0  0  0  0  0  0  0  0  0
   -0.6600    1.1486    0.4782 C   0  0  0  0  0  0  0  0  0  0  0  0
   -1.5001    1.7648   -0.1771 O   0  0  0  0  0  0  0  0  0  0  0  0
    0.1634    1.7559    1.3418 N   0  0  0  0  0  0  0  0  0  0  0  0
    0.8618    1.1897    1.8008 H   0  0  0  0  0  0  0  0  0  0  0  0
    0.1509    3.1886    1.6256 C   0  0  0  0  0  0  0  0  0  0  0  0
   -0.8272    3.4794    2.0152 H   0  0  0  0  0  0  0  0  0  0  0  0
    0.9172    3.4314    2.3624 H   0  0  0  0  0  0  0  0  0  0  0  0
    0.3414    3.7499    0.7095 H   0  0  0  0  0  0  0  0  0  0  0  0
  5  6  2  0  0  0  0
  5  7  1  0  0  0  0
  2  3  1  0  0  0  0
  2  4  1  0  0  0  0
  2  5  1  0  0  0  0
  1  2  1  0  0  0  0
 22 23  2  0  0  0  0
 22 24  1  0  0  0  0
 20 21  1  0  0  0  0
 19 20  1  0  0  0  0
 17 18  1  0  0  0  0
 17 19  2  0  0  0  0
 15 16  1  0  0  0  0
 15 17  1  0  0  0  0
 14 15  1  0  0  0  0
 14 20  2  0  0  0  0
 11 12  1  0  0  0  0
 11 13  1  0  0  0  0
 11 14  1  0  0  0  0
  9 10  1  0  0  0  0
  9 11  1  0  0  0  0
  9 22  1  0  0  0  0
  7  8  1  0  0  0  0
  7  9  1  0  0  0  0
 26 27  1  0  0  0  0
 26 28  1  0  0  0  0
 26 29  1  0  0  0  0
 24 25  1  0  0  0  0
 24 26  1  0  0  0  0
M  END
$$$$
default_name
  -OEChem-02102213163D

 29 29  0     1  0  0  0  0  0999 V2000
   -3.6042   -3.5728    1.4576 H   0  0  0  0  0  0  0  0  0  0  0  0
   -3.5202   -2.6488    0.8866 C   0  0  0  0  0  0  0  0  0  0  0  0
   -4.2052   -1.9048    1.2896 H   0  0  0  0  0  0  0  0  0  0  0  0
   -3.7552   -2.8428   -0.1584 H   0  0  0  0  0  0  0  0  0  0  0  0
   -2.1052   -2.1358    0.9946 C   0  0  0  0  0  0  0  0  0  0  0  0
   -1.2852   -2.7288    1.6826 O   0  0  0  0  0  0  0  0  0  0  0  0
   -1.8202   -1.0288    0.3146 N   0  0  0  0  0  0  0  0  0  0  0  0
   -2.5542   -0.5788   -0.2104 H   0  0  0  0  0  0  0  0  0  0  0  0
   -0.5102   -0.3728    0.3086 C   0  0  1  0  0  0  0  0  0  0  0  0
    0.0719   -0.7468    1.1521 H   0  0  0  0  0  0  0  0  0  0  0  0
    0.2338   -0.7427   -0.9878 C   0  0  0  0  0  0  0  0  0  0  0  0
    0.3424   -1.8275   -1.0404 H   0  0  0  0  0  0  0  0  0  0  0  0
   -0.3631   -0.4234   -1.8441 H   0  0  0  0  0  0  0  0  0  0  0  0
    1.6006   -0.1183   -1.0986 C   0  0  0  0  0  0  0  0  0  0  0  0
    2.7982   -0.7913   -1.2120 N   0  0  0  0  0  0  0  0  0  0  0  0
    2.9263   -1.7907   -1.1588 H   0  0  0  0  0  0  0  0  0  0  0  0
    3.7695    0.1178   -1.4006 C   0  0  0  0  0  0  0  0  0  0  0  0
    4.8225   -0.1065   -1.5186 H   0  0  0  0  0  0  0  0  0  0  0  0
    3.2500    1.3538   -1.4267 N   0  0  0  0  0  0  0  0  0  0  0  0
    1.8731    1.2171   -1.2317 C   0  0  0  0  0  0  0  0  0  0  0  0
    1.1461    2.0189   -1.2238 H   0  0  0  0  0  0  0  0  0  0  0  0
   -0.6600    1.1486    0.4782 C   0  0  0  0  0  0  0  0  0  0  0  0
   -1.5001    1.7648   -0.1771 O   0  0  0  0  0  0  0  0  0  0  0  0
    0.1634    1.7559    1.3418 N   0  0  0  0  0  0  0  0  0  0  0  0
    0.8618    1.1897    1.8008 H   0  0  0  0  0  0  0  0  0  0  0  0
    0.1509    3.1886    1.6256 C   0  0  0  0  0  0  0  0  0  0  0  0
   -0.8272    3.4794    2.0152 H   0  0  0  0  0  0  0  0  0  0  0  0
    0.9172    3.4314    2.3624 H   0  0  0  0  0  0  0  0  0  0  0  0
    0.3414    3.7499    0.7095 H   0  0  0  0  0  0  0  0  0  0  0  0
  5  6  2  0  0  0  0
  5  7  1  0  0  0  0
  2  3  1  0  0  0  0
  2  4  1  0  0  0  0
  2  5  1  0  0  0  0
  1  2  1  0  0  0  0
 22 23  2  0  0  0  0
 22 24  1  0  0  0  0
 20 21  1  0  0  0  0
 19 20  1  0  0  0  0
 17 18  1  0  0  0  0
 17 19  2  0  0  0  0
 15 16  1  0  0  0  0
 15 17  1  0  0  0  0
 14 15  1  0  0  0  0
 14 20  2  0  0  0  0
 11 12  1  0  0  0  0
 11 13  1  0  0  0  0
 11 14  1  0  0  0  0
  9 10  1  0  0  0  0
  9 11  1  0  0  0  0
  9 22  1  0  0  0  0
  7  8  1  0  0  0  0
  7  9  1  0  0  0  0
 26 27  1  0  0  0  0
 26 28  1  0  0  0  0
 26 29  1  0  0  0  0
 24 25  1  0  0  0  0
 24 26  1  0  0  0  0
M  END
$$$$
default_name
  -OEChem-02102213163D

 29 29  0     1  0  0  0  0  0999 V2000
   -3.6042   -3.5728    1.4576 H   0  0  0  0  0  0  0  0  0  0  0  0
   -3.5202   -2.6488    0.8866 C   0  0  0  0  0  0  0  0  0  0  0  0
   -4.2052   -1.9048    1.2896 H   0  0  0  0  0  0  0  0  0  0  0  0
   -3.7552   -2.8428   -0.1584 H   0  0  0  0  0  0  0  0  0  0  0  0
   -2.1052   -2.1358    0.9946 C   0  0  0  0  0  0  0  0  0  0  0  0
   -1.2852   -2.7288    1.6826 O   0  0  0  0  0  0  0  0  0  0  0  0
   -1.8202   -1.0288    0.3146 N   0  0  0  0  0  0  0  0  0  0  0  0
   -2.5542   -0.5788   -0.2104 H   0  0  0  0  0  0  0  0  0  0  0  0
   -0.5102   -0.3728    0.3086 C   0  0  1  0  0  0  0  0  0  0  0  0
    0.0719   -0.7468    1.1521 H   0  0  0  0  0  0  0  0  0  0  0  0
    0.2338   -0.7427   -0.9878 C   0  0  0  0  0  0  0  0  0  0  0  0
    0.3424   -1.8275   -1.0404 H   0  0  0  0  0  0  0  0  0  0  0  0
   -0.3631   -0.4234   -1.8441 H   0  0  0  0  0  0  0  0  0  0  0  0
    1.6006   -0.1183   -1.0986 C   0  0  0  0  0  0  0  0  0  0  0  0
    2.7576   -0.7530   -1.4966 N   0  0  0  0  0  0  0  0  0  0  0  0
    2.8588   -1.7375   -1.6929 H   0  0  0  0  0  0  0  0  0  0  0  0
    3.7322    0.1689   -1.5727 C   0  0  0  0  0  0  0  0  0  0  0  0
    4.7594   -0.0278   -1.8545 H   0  0  0  0  0  0  0  0  0  0  0  0
    3.2524    1.3794   -1.2522 N   0  0  0  0  0  0  0  0  0  0  0  0
    1.9000    1.2091   -0.9449 C   0  0  0  0  0  0  0  0  0  0  0  0
    1.2037    1.9909   -0.6703 H   0  0  0  0  0  0  0  0  0  0  0  0
   -0.6600    1.1486    0.4782 C   0  0  0  0  0  0  0  0  0  0  0  0
   -1.5001    1.7648   -0.1771 O   0  0  0  0  0  0  0  0  0  0  0  0
    0.1634    1.7559    1.3418 N   0  0  0  0  0  0  0  0  0  0  0  0
    0.8618    1.1897    1.8008 H   0  0  0  0  0  0  0  0  0  0  0  0
    0.1509    3.1886    1.6256 C   0  0  0  0  0  0  0  0  0  0  0  0
   -0.8272    3.4794    2.0152 H   0  0  0  0  0  0  0  0  0  0  0  0
    0.9172    3.4314    2.3624 H   0  0  0  0  0  0  0  0  0  0  0  0
    0.3414    3.7499    0.7095 H   0  0  0  0  0  0  0  0  0  0  0  0
  5  6  2  0  0  0  0
  5  7  1  0  0  0  0
  2  3  1  0  0  0  0
  2  4  1  0  0  0  0
  2  5  1  0  0  0  0
  1  2  1  0  0  0  0
 22 23  2  0  0  0  0
 22 24  1  0  0  0  0
 20 21  1  0  0  0  0
 19 20  1  0  0  0  0
 17 18  1  0  0  0  0
 17 19  2  0  0  0  0
 15 16  1  0  0  0  0
 15 17  1  0  0  0  0
 14 15  1  0  0  0  0
 14 20  2  0  0  0  0
 11 12  1  0  0  0  0
 11 13  1  0  0  0  0
 11 14  1  0  0  0  0
  9 10  1  0  0  0  0
  9 11  1  0  0  0  0
  9 22  1  0  0  0  0
  7  8  1  0  0  0  0
  7  9  1  0  0  0  0
 26 27  1  0  0  0  0
 26 28  1  0  0  0  0
 26 29  1  0  0  0  0
 24 25  1  0  0  0  0
 24 26  1  0  0  0  0
M  END
$$$$
default_name
  -OEChem-02102213163D

 29 29  0     1  0  0  0  0  0999 V2000
   -3.6042   -3.5728    1.4576 H   0  0  0  0  0  0  0  0  0  0  0  0
   -3.5202   -2.6488    0.8866 C   0  0  0  0  0  0  0  0  0  0  0  0
   -4.2052   -1.9048    1.2896 H   0  0  0  0  0  0  0  0  0  0  0  0
   -3.7552   -2.8428   -0.1584 H   0  0  0  0  0  0  0  0  0  0  0  0
   -2.1052   -2.1358    0.9946 C   0  0  0  0  0  0  0  0  0  0  0  0
   -1.2852   -2.7288    1.6826 O   0  0  0  0  0  0  0  0  0  0  0  0
   -1.8202   -1.0288    0.3146 N   0  0  0  0  0  0  0  0  0  0  0  0
   -2.5542   -0.5788   -0.2104 H   0  0  0  0  0  0  0  0  0  0  0  0
   -0.5102   -0.3728    0.3086 C   0  0  1  0  0  0  0  0  0  0  0  0
    0.0719   -0.7468    1.1521 H   0  0  0  0  0  0  0  0  0  0  0  0
    0.2338   -0.7427   -0.9878 C   0  0  0  0  0  0  0  0  0  0  0  0
    0.3424   -1.8275   -1.0404 H   0  0  0  0  0  0  0  0  0  0  0  0
   -0.3631   -0.4234   -1.8441 H   0  0  0  0  0  0  0  0  0  0  0  0
    1.6006   -0.1183   -1.0986 C   0  0  0  0  0  0  0  0  0  0  0  0
    2.6887   -0.6484   -1.7582 N   0  0  0  0  0  0  0  0  0  0  0  0
    2.7372   -1.5595   -2.1891 H   0  0  0  0  0  0  0  0  0  0  0  0
    3.6787    0.2594   -1.7230 C   0  0  0  0  0  0  0  0  0  0  0  0
    4.6638    0.1283   -2.1537 H   0  0  0  0  0  0  0  0  0  0  0  0
    3.2740    1.3631   -1.0778 N   0  0  0  0  0  0  0  0  0  0  0  0
    1.9566    1.1336   -0.6726 C   0  0  0  0  0  0  0  0  0  0  0  0
    1.3182    1.8329   -0.1483 H   0  0  0  0  0  0  0  0  0  0  0  0
   -0.6600    1.1486    0.4782 C   0  0  0  0  0  0  0  0  0  0  0  0
   -1.5001    1.7648   -0.1771 O   0  0  0  0  0  0  0  0  0  0  0  0
    0.1634    1.7559    1.3418 N   0  0  0  0  0  0  0  0  0  0  0  0
    0.8618    1.1897    1.8008 H   0  0  0  0  0  0  0  0  0  0  0  0
    0.1509    3.1886    1.6256 C   0  0  0  0  0  0  0  0  0  0  0  0
   -0.8272    3.4794    2.0152 H   0  0  0  0  0  0  0  0  0  0  0  0
    0.9172    3.4314    2.3624 H   0  0  0  0  0  0  0  0  0  0  0  0
    0.3414    3.7499    0.7095 H   0  0  0  0  0  0  0  0  0  0  0  0
  5  6  2  0  0  0  0
  5  7  1  0  0  0  0
  2  3  1  0  0  0  0
  2  4  1  0  0  0  0
  2  5  1  0  0  0  0
  1  2  1  0  0  0  0
 22 23  2  0  0  0  0
 22 24  1  0  0  0  0
 20 21  1  0  0  0  0
 19 20  1  0  0  0  0
 17 18  1  0  0  0  0
 17 19  2  0  0  0  0
 15 16  1  0  0  0  0
 15 17  1  0  0  0  0
 14 15  1  0  0  0  0
 14 20  2  0  0  0  0
 11 12  1  0  0  0  0
 11 13  1  0  0  0  0
 11 14  1  0  0  0  0
  9 10  1  0  0  0  0
  9 11  1  0  0  0  0
  9 22  1  0  0  0  0
  7  8  1  0  0  0  0
  7  9  1  0  0  0  0
 26 27  1  0  0  0  0
 26 28  1  0  0  0  0
 26 29  1  0  0  0  0
 24 25  1  0  0  0  0
 24 26  1  0  0  0  0
M  END
$$$$
default_name
  -OEChem-02102213163D

 29 29  0     1  0  0  0  0  0999 V2000
   -3.6042   -3.5728    1.4576 H   0  0  0  0  0  0  0  0  0  0  0  0
   -3.5202   -2.6488    0.8866 C   0  0  0  0  0  0  0  0  0  0  0  0
   -4.2052   -1.9048    1.2896 H   0  0  0  0  0  0  0  0  0  0  0  0
   -3.7552   -2.8428   -0.1584 H   0  0  0  0  0  0  0  0  0  0  0  0
   -2.1052   -2.1358    0.9946 C   0  0  0  0  0  0  0  0  0  0  0  0
   -1.2852   -2.7288    1.6826 O   0  0  0  0  0  0  0  0  0  0  0  0
   -1.8202   -1.0288    0.3146 N   0  0  0  0  0  0  0  0  0  0  0  0
   -2.5542   -0.5788   -0.2104 H   0  0  0  0  0  0  0  0  0  0  0  0
   -0.5102   -0.3728    0.3086 C   0  0  1  0  0  0  0  0  0  0  0  0
    0.0719   -0.7468    1.1521 H   0  0  0  0  0  0  0  0  0  0  0  0
    0.2338   -0.7427   -0.9878 C   0  0  0  0  0  0  0  0  0  0  0  0
    0.3424   -1.8275   -1.0404 H   0  0  0  0  0  0  0  0  0  0  0  0
   -0.3631   -0.4234   -1.8441 H   0  0  0  0  0  0  0  0  0  0  0  0
    1.6006   -0.1183   -1.0986 C   0  0  0  0  0  0  0  0  0  0  0  0
    2.5960   -0.4846   -1.9789 N   0  0  0  0  0  0  0  0  0  0  0  0
    2.5700   -1.2687   -2.6135 H   0  0  0  0  0  0  0  0  0  0  0  0
    3.6126    0.3831   -1.8412 C   0  0  0  0  0  0  0  0  0  0  0  0
    4.5424    0.3511   -2.3959 H   0  0  0  0  0  0  0  0  0  0  0  0
    3.3132    1.3060   -0.9155 N   0  0  0  0  0  0  0  0  0  0  0  0
    2.0390    0.9956   -0.4334 C   0  0  0  0  0  0  0  0  0  0  0  0
    1.4818    1.5555    0.3065 H   0  0  0  0  0  0  0  0  0  0  0  0
   -0.6600    1.1486    0.4782 C   0  0  0  0  0  0  0  0  0  0  0  0
   -1.5001    1.7648   -0.1771 O   0  0  0  0  0  0  0  0  0  0  0  0
    0.1634    1.7559    1.3418 N   0  0  0  0  0  0  0  0  0  0  0  0
    0.8618    1.1897    1.8008 H   0  0  0  0  0  0  0  0  0  0  0  0
    0.1509    3.1886    1.6256 C   0  0  0  0  0  0  0  0  0  0  0  0
   -0.8272    3.4794    2.0152 H   0  0  0  0  0  0  0  0  0  0  0  0
    0.9172    3.4314    2.3624 H   0  0  0  0  0  0  0  0  0  0  0  0
    0.3414    3.7499    0.7095 H   0  0  0  0  0  0  0  0  0  0  0  0
  5  6  2  0  0  0  0
  5  7  1  0  0  0  0
  2  3  1  0  0  0  0
  2  4  1  0  0  0  0
  2  5  1  0  0  0  0
  1  2  1  0  0  0  0
 22 23  2  0  0  0  0
 22 24  1  0  0  0  0
 20 21  1  0  0  0  0
 19 20  1  0  0  0  0
 17 18  1  0  0  0  0
 17 19  2  0  0  0  0
 15 16  1  0  0  0  0
 15 17  1  0  0  0  0
 14 15  1  0  0  0  0
 14 20  2  0  0  0  0
 11 12  1  0  0  0  0
 11 13  1  0  0  0  0
 11 14  1  0  0  0  0
  9 10  1  0  0  0  0
  9 11  1  0  0  0  0
  9 22  1  0  0  0  0
  7  8  1  0  0  0  0
  7  9  1  0  0  0  0
 26 27  1  0  0  0  0
 26 28  1  0  0  0  0
 26 29  1  0  0  0  0
 24 25  1  0  0  0  0
 24 26  1  0  0  0  0
M  END
$$$$
default_name
  -OEChem-02102213163D

 29 29  0     1  0  0  0  0  0999 V2000
   -3.6042   -3.5728    1.4576 H   0  0  0  0  0  0  0  0  0  0  0  0
   -3.5202   -2.6488    0.8866 C   0  0  0  0  0  0  0  0  0  0  0  0
   -4.2052   -1.9048    1.2896 H   0  0  0  0  0  0  0  0  0  0  0  0
   -3.7552   -2.8428   -0.1584 H   0  0  0  0  0  0  0  0  0  0  0  0
   -2.1052   -2.1358    0.9946 C   0  0  0  0  0  0  0  0  0  0  0  0
   -1.2852   -2.7288    1.6826 O   0  0  0  0  0  0  0  0  0  0  0  0
   -1.8202   -1.0288    0.3146 N   0  0  0  0  0  0  0  0  0  0  0  0
   -2.5542   -0.5788   -0.2104 H   0  0  0  0  0  0  0  0  0  0  0  0
   -0.5102   -0.3728    0.3086 C   0  0  1  0  0  0  0  0  0  0  0  0
    0.0719   -0.7468    1.1521 H   0  0  0  0  0  0  0  0  0  0  0  0
    0.2338   -0.7427   -0.9878 C   0  0  0  0  0  0  0  0  0  0  0  0
    0.1115   -1.8105   -1.1777 H   0  0  0  0  0  0  0  0  0  0  0  0
   -0.2141   -0.2000   -1.8223 H   0  0  0  0  0  0  0  0  0  0  0  0
    1.7069   -0.4285   -0.9490 C   0  0  0  0  0  0  0  0  0  0  0  0
    2.6155   -0.6510   -1.9615 N   0  0  0  0  0  0  0  0  0  0  0  0
    2.4305   -1.1237   -2.8335 H   0  0  0  0  0  0  0  0  0  0  0  0
    3.7956   -0.1324   -1.5822 C   0  0  0  0  0  0  0  0  0  0  0  0
    4.7071   -0.1571   -2.1668 H   0  0  0  0  0  0  0  0  0  0  0  0
    3.6877    0.4291   -0.3692 N   0  0  0  0  0  0  0  0  0  0  0  0
    2.3663    0.2437    0.0453 C   0  0  0  0  0  0  0  0  0  0  0  0
    1.9308    0.5993    0.9702 H   0  0  0  0  0  0  0  0  0  0  0  0
   -0.6600    1.1486    0.4782 C   0  0  0  0  0  0  0  0  0  0  0  0
   -1.5001    1.7648   -0.1771 O   0  0  0  0  0  0  0  0  0  0  0  0
    0.1634    1.7559    1.3418 N   0  0  0  0  0  0  0  0  0  0  0  0
    0.8618    1.1897    1.8008 H   0  0  0  0  0  0  0  0  0  0  0  0
    0.1509    3.1886    1.6256 C   0  0  0  0  0  0  0  0  0  0  0  0
   -0.8272    3.4794    2.0152 H   0  0  0  0  0  0  0  0  0  0  0  0
    0.9172    3.4314    2.3624 H   0  0  0  0  0  0  0  0  0  0  0  0
    0.3414    3.7499    0.7095 H   0  0  0  0  0  0  0  0  0  0  0  0
  5  6  2  0  0  0  0
  5  7  1  0  0  0  0
  2  3  1  0  0  0  0
  2  4  1  0  0  0  0
  2  5  1  0  0  0  0
  1  2  1  0  0  0  0
 22 23  2  0  0  0  0
 22 24  1  0  0  0  0
 20 21  1  0  0  0  0
 19 20  1  0  0  0  0
 17 18  1  0  0  0  0
 17 19  2  0  0  0  0
 15 16  1  0  0  0  0
 15 17  1  0  0  0  0
 14 15  1  0  0  0  0
 14 20  2  0  0  0  0
 11 12  1  0  0  0  0
 11 13  1  0  0  0  0
 11 14  1  0  0  0  0
  9 10  1  0  0  0  0
  9 11  1  0  0  0  0
  9 22  1  0  0  0  0
  7  8  1  0  0  0  0
  7  9  1  0  0  0  0
 26 27  1  0  0  0  0
 26 28  1  0  0  0  0
 26 29  1  0  0  0  0
 24 25  1  0  0  0  0
 24 26  1  0  0  0  0
M  END
$$$$
default_name
  -OEChem-02102213163D

 29 29  0     1  0  0  0  0  0999 V2000
   -3.6042   -3.5728    1.4576 H   0  0  0  0  0  0  0  0  0  0  0  0
   -3.5202   -2.6488    0.8866 C   0  0  0  0  0  0  0  0  0  0  0  0
   -4.2052   -1.9048    1.2896 H   0  0  0  0  0  0  0  0  0  0  0  0
   -3.7552   -2.8428   -0.1584 H   0  0  0  0  0  0  0  0  0  0  0  0
   -2.1052   -2.1358    0.9946 C   0  0  0  0  0  0  0  0  0  0  0  0
   -1.2852   -2.7288    1.6826 O   0  0  0  0  0  0  0  0  0  0  0  0
   -1.8202   -1.0288    0.3146 N   0  0  0  0  0  0  0  0  0  0  0  0
   -2.5542   -0.5788   -0.2104 H   0  0  0  0  0  0  0  0  0  0  0  0
   -0.5102   -0.3728    0.3086 C   0  0  1  0  0  0  0  0  0  0  0  0
    0.0719   -0.7468    1.1521 H   0  0  0  0  0  0  0  0  0  0  0  0
    0.2338   -0.7427   -0.9878 C   0  0  0  0  0  0  0  0  0  0  0  0
    0.1115   -1.8105   -1.1777 H   0  0  0  0  0  0  0  0  0  0  0  0
   -0.2141   -0.2000   -1.8223 H   0  0  0  0  0  0  0  0  0  0  0  0
    1.7069   -0.4285   -0.9490 C   0  0  0  0  0  0  0  0  0  0  0  0
    2.5585   -0.3754   -2.0316 N   0  0  0  0  0  0  0  0  0  0  0  0
    2.3259   -0.6147   -2.9838 H   0  0  0  0  0  0  0  0  0  0  0  0
    3.7578    0.0464   -1.5966 C   0  0  0  0  0  0  0  0  0  0  0  0
    4.6359    0.1828   -2.2160 H   0  0  0  0  0  0  0  0  0  0  0  0
    3.7168    0.2815   -0.2770 N   0  0  0  0  0  0  0  0  0  0  0  0
    2.4200   -0.0207    0.1467 C   0  0  0  0  0  0  0  0  0  0  0  0
    2.0360    0.0836    1.1532 H   0  0  0  0  0  0  0  0  0  0  0  0
   -0.6600    1.1486    0.4782 C   0  0  0  0  0  0  0  0  0  0  0  0
   -1.5001    1.7648   -0.1771 O   0  0  0  0  0  0  0  0  0  0  0  0
    0.1634    1.7559    1.3418 N   0  0  0  0  0  0  0  0  0  0  0  0
    0.8618    1.1897    1.8008 H   0  0  0  0  0  0  0  0  0  0  0  0
    0.1509    3.1886    1.6256 C   0  0  0  0  0  0  0  0  0  0  0  0
   -0.8272    3.4794    2.0152 H   0  0  0  0  0  0  0  0  0  0  0  0
    0.9172    3.4314    2.3624 H   0  0  0  0  0  0  0  0  0  0  0  0
    0.3414    3.7499    0.7095 H   0  0  0  0  0  0  0  0  0  0  0  0
  5  6  2  0  0  0  0
  5  7  1  0  0  0  0
  2  3  1  0  0  0  0
  2  4  1  0  0  0  0
  2  5  1  0  0  0  0
  1  2  1  0  0  0  0
 22 23  2  0  0  0  0
 22 24  1  0  0  0  0
 20 21  1  0  0  0  0
 19 20  1  0  0  0  0
 17 18  1  0  0  0  0
 17 19  2  0  0  0  0
 15 16  1  0  0  0  0
 15 17  1  0  0  0  0
 14 15  1  0  0  0  0
 14 20  2  0  0  0  0
 11 12  1  0  0  0  0
 11 13  1  0  0  0  0
 11 14  1  0  0  0  0
  9 10  1  0  0  0  0
  9 11  1  0  0  0  0
  9 22  1  0  0  0  0
  7  8  1  0  0  0  0
  7  9  1  0  0  0  0
 26 27  1  0  0  0  0
 26 28  1  0  0  0  0
 26 29  1  0  0  0  0
 24 25  1  0  0  0  0
 24 26  1  0  0  0  0
M  END
$$$$
default_name
  -OEChem-02102213163D

 29 29  0     1  0  0  0  0  0999 V2000
   -3.6042   -3.5728    1.4576 H   0  0  0  0  0  0  0  0  0  0  0  0
   -3.5202   -2.6488    0.8866 C   0  0  0  0  0  0  0  0  0  0  0  0
   -4.2052   -1.9048    1.2896 H   0  0  0  0  0  0  0  0  0  0  0  0
   -3.7552   -2.8428   -0.1584 H   0  0  0  0  0  0  0  0  0  0  0  0
   -2.1052   -2.1358    0.9946 C   0  0  0  0  0  0  0  0  0  0  0  0
   -1.2852   -2.7288    1.6826 O   0  0  0  0  0  0  0  0  0  0  0  0
   -1.8202   -1.0288    0.3146 N   0  0  0  0  0  0  0  0  0  0  0  0
   -2.5542   -0.5788   -0.2104 H   0  0  0  0  0  0  0  0  0  0  0  0
   -0.5102   -0.3728    0.3086 C   0  0  1  0  0  0  0  0  0  0  0  0
    0.0719   -0.7468    1.1521 H   0  0  0  0  0  0  0  0  0  0  0  0
    0.2338   -0.7427   -0.9878 C   0  0  0  0  0  0  0  0  0  0  0  0
    0.1115   -1.8105   -1.1777 H   0  0  0  0  0  0  0  0  0  0  0  0
   -0.2141   -0.2000   -1.8223 H   0  0  0  0  0  0  0  0  0  0  0  0
    1.7069   -0.4285   -0.9490 C   0  0  0  0  0  0  0  0  0  0  0  0
    2.4979   -0.0918   -2.0265 N   0  0  0  0  0  0  0  0  0  0  0  0
    2.2133   -0.0856   -2.9946 H   0  0  0  0  0  0  0  0  0  0  0  0
    3.7193    0.2226   -1.5632 C   0  0  0  0  0  0  0  0  0  0  0  0
    4.5621    0.5231   -2.1736 H   0  0  0  0  0  0  0  0  0  0  0  0
    3.7508    0.1158   -0.2269 N   0  0  0  0  0  0  0  0  0  0  0  0
    2.4791   -0.3013    0.1747 C   0  0  0  0  0  0  0  0  0  0  0  0
    2.1509   -0.4602    1.1938 H   0  0  0  0  0  0  0  0  0  0  0  0
   -0.6600    1.1486    0.4782 C   0  0  0  0  0  0  0  0  0  0  0  0
   -1.5001    1.7648   -0.1771 O   0  0  0  0  0  0  0  0  0  0  0  0
    0.1634    1.7559    1.3418 N   0  0  0  0  0  0  0  0  0  0  0  0
    0.8618    1.1897    1.8008 H   0  0  0  0  0  0  0  0  0  0  0  0
    0.1509    3.1886    1.6256 C   0  0  0  0  0  0  0  0  0  0  0  0
   -0.8272    3.4794    2.0152 H   0  0  0  0  0  0  0  0  0  0  0  0
    0.9172    3.4314    2.3624 H   0  0  0  0  0  0  0  0  0  0  0  0
    0.3414    3.7499    0.7095 H   0  0  0  0  0  0  0  0  0  0  0  0
  5  6  2  0  0  0  0
  5  7  1  0  0  0  0
  2  3  1  0  0  0  0
  2  4  1  0  0  0  0
  2  5  1  0  0  0  0
  1  2  1  0  0  0  0
 22 23  2  0  0  0  0
 22 24  1  0  0  0  0
 20 21  1  0  0  0  0
 19 20  1  0  0  0  0
 17 18  1  0  0  0  0
 17 19  2  0  0  0  0
 15 16  1  0  0  0  0
 15 17  1  0  0  0  0
 14 15  1  0  0  0  0
 14 20  2  0  0  0  0
 11 12  1  0  0  0  0
 11 13  1  0  0  0  0
 11 14  1  0  0  0  0
  9 10  1  0  0  0  0
  9 11  1  0  0  0  0
  9 22  1  0  0  0  0
  7  8  1  0  0  0  0
  7  9  1  0  0  0  0
 26 27  1  0  0  0  0
 26 28  1  0  0  0  0
 26 29  1  0  0  0  0
 24 25  1  0  0  0  0
 24 26  1  0  0  0  0
M  END
$$$$
default_name
  -OEChem-02102213163D

 29 29  0     1  0  0  0  0  0999 V2000
   -3.6042   -3.5728    1.4576 H   0  0  0  0  0  0  0  0  0  0  0  0
   -3.5202   -2.6488    0.8866 C   0  0  0  0  0  0  0  0  0  0  0  0
   -4.2052   -1.9048    1.2896 H   0  0  0  0  0  0  0  0  0  0  0  0
   -3.7552   -2.8428   -0.1584 H   0  0  0  0  0  0  0  0  0  0  0  0
   -2.1052   -2.1358    0.9946 C   0  0  0  0  0  0  0  0  0  0  0  0
   -1.2852   -2.7288    1.6826 O   0  0  0  0  0  0  0  0  0  0  0  0
   -1.8202   -1.0288    0.3146 N   0  0  0  0  0  0  0  0  0  0  0  0
   -2.5542   -0.5788   -0.2104 H   0  0  0  0  0  0  0  0  0  0  0  0
   -0.5102   -0.3728    0.3086 C   0  0  1  0  0  0  0  0  0  0  0  0
    0.0719   -0.7468    1.1521 H   0  0  0  0  0  0  0  0  0  0  0  0
    0.2338   -0.7427   -0.9878 C   0  0  0  0  0  0  0  0  0  0  0  0
    0.1115   -1.8105   -1.1777 H   0  0  0  0  0  0  0  0  0  0  0  0
   -0.2141   -0.2000   -1.8223 H   0  0  0  0  0  0  0  0  0  0  0  0
    1.7069   -0.4285   -0.9490 C   0  0  0  0  0  0  0  0  0  0  0  0
    2.4377    0.1805   -1.9466 N   0  0  0  0  0  0  0  0  0  0  0  0
    2.1005    0.4273   -2.8650 H   0  0  0  0  0  0  0  0  0  0  0  0
    3.6828    0.3841   -1.4843 C   0  0  0  0  0  0  0  0  0  0  0  0
    4.4910    0.8406   -2.0426 H   0  0  0  0  0  0  0  0  0  0  0  0
    3.7875   -0.0567   -0.2222 N   0  0  0  0  0  0  0  0  0  0  0  0
    2.5396   -0.5791    0.1277 C   0  0  0  0  0  0  0  0  0  0  0  0
    2.2677   -0.9949    1.0892 H   0  0  0  0  0  0  0  0  0  0  0  0
   -0.6600    1.1486    0.4782 C   0  0  0  0  0  0  0  0  0  0  0  0
   -1.5001    1.7648   -0.1771 O   0  0  0  0  0  0  0  0  0  0  0  0
    0.1634    1.7559    1.3418 N   0  0  0  0  0  0  0  0  0  0  0  0
    0.8618    1.1897    1.8008 H   0  0  0  0  0  0  0  0  0  0  0  0
    0.1509    3.1886    1.6256 C   0  0  0  0  0  0  0  0  0  0  0  0
   -0.8272    3.4794    2.0152 H   0  0  0  0  0  0  0  0  0  0  0  0
    0.9172    3.4314    2.3624 H   0  0  0  0  0  0  0  0  0  0  0  0
    0.3414    3.7499    0.7095 H   0  0  0  0  0  0  0  0  0  0  0  0
  5  6  2  0  0  0  0
  5  7  1  0  0  0  0
  2  3  1  0  0  0  0
  2  4  1  0  0  0  0
  2  5  1  0  0  0  0
  1  2  1  0  0  0  0
 22 23  2  0  0  0  0
 22 24  1  0  0  0  0
 20 21  1  0  0  0  0
 19 20  1  0  0  0  0
 17 18  1  0  0  0  0
 17 19  2  0  0  0  0
 15 16  1  0  0  0  0
 15 17  1  0  0  0  0
 14 15  1  0  0  0  0
 14 20  2  0  0  0  0
 11 12  1  0  0  0  0
 11 13  1  0  0  0  0
 11 14  1  0  0  0  0
  9 10  1  0  0  0  0
  9 11  1  0  0  0  0
  9 22  1  0  0  0  0
  7  8  1  0  0  0  0
  7  9  1  0  0  0  0
 26 27  1  0  0  0  0
 26 28  1  0  0  0  0
 26 29  1  0  0  0  0
 24 25  1  0  0  0  0
 24 26  1  0  0  0  0
M  END
$$$$
default_name
  -OEChem-02102213163D

 29 29  0     1  0  0  0  0  0999 V2000
   -3.6042   -3.5728    1.4576 H   0  0  0  0  0  0  0  0  0  0  0  0
   -3.5202   -2.6488    0.8866 C   0  0  0  0  0  0  0  0  0  0  0  0
   -4.2052   -1.9048    1.2896 H   0  0  0  0  0  0  0  0  0  0  0  0
   -3.7552   -2.8428   -0.1584 H   0  0  0  0  0  0  0  0  0  0  0  0
   -2.1052   -2.1358    0.9946 C   0  0  0  0  0  0  0  0  0  0  0  0
   -1.2852   -2.7288    1.6826 O   0  0  0  0  0  0  0  0  0  0  0  0
   -1.8202   -1.0288    0.3146 N   0  0  0  0  0  0  0  0  0  0  0  0
   -2.5542   -0.5788   -0.2104 H   0  0  0  0  0  0  0  0  0  0  0  0
   -0.5102   -0.3728    0.3086 C   0  0  1  0  0  0  0  0  0  0  0  0
    0.0719   -0.7468    1.1521 H   0  0  0  0  0  0  0  0  0  0  0  0
    0.2338   -0.7427   -0.9878 C   0  0  0  0  0  0  0  0  0  0  0  0
    0.1115   -1.8105   -1.1777 H   0  0  0  0  0  0  0  0  0  0  0  0
   -0.2141   -0.2000   -1.8223 H   0  0  0  0  0  0  0  0  0  0  0  0
    1.7069   -0.4285   -0.9490 C   0  0  0  0  0  0  0  0  0  0  0  0
    2.3821    0.4228   -1.7972 N   0  0  0  0  0  0  0  0  0  0  0  0
    1.9951    0.8892   -2.6040 H   0  0  0  0  0  0  0  0  0  0  0  0
    3.6507    0.5199   -1.3653 C   0  0  0  0  0  0  0  0  0  0  0  0
    4.4272    1.1137   -1.8319 H   0  0  0  0  0  0  0  0  0  0  0  0
    3.8243   -0.2243   -0.2633 N   0  0  0  0  0  0  0  0  0  0  0  0
    2.5974   -0.8351    0.0086 C   0  0  0  0  0  0  0  0  0  0  0  0
    2.3785   -1.4842    0.8466 H   0  0  0  0  0  0  0  0  0  0  0  0
   -0.6600    1.1486    0.4782 C   0  0  0  0  0  0  0  0  0  0  0  0
   -1.5001    1.7648   -0.1771 O   0  0  0  0  0  0  0  0  0  0  0  0
    0.1634    1.7559    1.3418 N   0  0  0  0  0  0  0  0  0  0  0  0
    0.8618    1.1897    1.8008 H   0  0  0  0  0  0  0  0  0  0  0  0
    0.1509    3.1886    1.6256 C   0  0  0  0  0  0  0  0  0  0  0  0
   -0.8272    3.4794    2.0152 H   0  0  0  0  0  0  0  0  0  0  0  0
    0.9172    3.4314    2.3624 H   0  0  0  0  0  0  0  0  0  0  0  0
    0.3414    3.7499    0.7095 H   0  0  0  0  0  0  0  0  0  0  0  0
  5  6  2  0  0  0  0
  5  7  1  0  0  0  0
  2  3  1  0  0  0  0
  2  4  1  0  0  0  0
  2  5  1  0  0  0  0
  1  2  1  0  0  0  0
 22 23  2  0  0  0  0
 22 24  1  0  0  0  0
 20 21  1  0  0  0  0
 19 20  1  0  0  0  0
 17 18  1  0  0  0  0
 17 19  2  0  0  0  0
 15 16  1  0  0  0  0
 15 17  1  0  0  0  0
 14 15  1  0  0  0  0
 14 20  2  0  0  0  0
 11 12  1  0  0  0  0
 11 13  1  0  0  0  0
 11 14  1  0  0  0  0
  9 10  1  0  0  0  0
  9 11  1  0  0  0  0
  9 22  1  0  0  0  0
  7  8  1  0  0  0  0
  7  9  1  0  0  0  0
 26 27  1  0  0  0  0
 26 28  1  0  0  0  0
 26 29  1  0  0  0  0
 24 25  1  0  0  0  0
 24 26  1  0  0  0  0
M  END
$$$$
default_name
  -OEChem-02102213163D

 29 29  0     1  0  0  0  0  0999 V2000
   -3.6042   -3.5728    1.4576 H   0  0  0  0  0  0  0  0  0  0  0  0
   -3.5202   -2.6488    0.8866 C   0  0  0  0  0  0  0  0  0  0  0  0
   -4.2052   -1.9048    1.2896 H   0  0  0  0  0  0  0  0  0  0  0  0
   -3.7552   -2.8428   -0.1584 H   0  0  0  0  0  0  0  0  0  0  0  0
   -2.1052   -2.1358    0.9946 C   0  0  0  0  0  0  0  0  0  0  0  0
   -1.2852   -2.7288    1.6826 O   0  0  0  0  0  0  0  0  0  0  0  0
   -1.8202   -1.0288    0.3146 N   0  0  0  0  0  0  0  0  0  0  0  0
   -2.5542   -0.5788   -0.2104 H   0  0  0  0  0  0  0  0  0  0  0  0
   -0.5102   -0.3728    0.3086 C   0  0  1  0  0  0  0  0  0  0  0  0
    0.0719   -0.7468    1.1521 H   0  0  0  0  0  0  0  0  0  0  0  0
    0.2338   -0.7427   -0.9878 C   0  0  0  0  0  0  0  0  0  0  0  0
    0.1115   -1.8105   -1.1777 H   0  0  0  0  0  0  0  0  0  0  0  0
   -0.2141   -0.2000   -1.8223 H   0  0  0  0  0  0  0  0  0  0  0  0
    1.7069   -0.4285   -0.9490 C   0  0  0  0  0  0  0  0  0  0  0  0
    2.3348    0.6188   -1.5887 N   0  0  0  0  0  0  0  0  0  0  0  0
    1.9042    1.2687   -2.2293 H   0  0  0  0  0  0  0  0  0  0  0  0
    3.6252    0.6207   -1.2142 C   0  0  0  0  0  0  0  0  0  0  0  0
    4.3751    1.3237   -1.5559 H   0  0  0  0  0  0  0  0  0  0  0  0
    3.8588   -0.3755   -0.3475 N   0  0  0  0  0  0  0  0  0  0  0  0
    2.6484   -1.0518   -0.1743 C   0  0  0  0  0  0  0  0  0  0  0  0
    2.4756   -1.8947    0.4824 H   0  0  0  0  0  0  0  0  0  0  0  0
   -0.6600    1.1486    0.4782 C   0  0  0  0  0  0  0  0  0  0  0  0
   -1.5001    1.7648   -0.1771 O   0  0  0  0  0  0  0  0  0  0  0  0
    0.1634    1.7559    1.3418 N   0  0  0  0  0  0  0  0  0  0  0  0
    0.8618    1.1897    1.8008 H   0  0  0  0  0  0  0  0  0  0  0  0
    0.1509    3.1886    1.6256 C   0  0  0  0  0  0  0  0  0  0  0  0
   -0.8272    3.4794    2.0152 H   0  0  0  0  0  0  0  0  0  0  0  0
    0.9172    3.4314    2.3624 H   0  0  0  0  0  0  0  0  0  0  0  0
    0.3414    3.7499    0.7095 H   0  0  0  0  0  0  0  0  0  0  0  0
  5  6  2  0  0  0  0
  5  7  1  0  0  0  0
  2  3  1  0  0  0  0
  2  4  1  0  0  0  0
  2  5  1  0  0  0  0
  1  2  1  0  0  0  0
 22 23  2  0  0  0  0
 22 24  1  0  0  0  0
 20 21  1  0  0  0  0
 19 20  1  0  0  0  0
 17 18  1  0  0  0  0
 17 19  2  0  0  0  0
 15 16  1  0  0  0  0
 15 17  1  0  0  0  0
 14 15  1  0  0  0  0
 14 20  2  0  0  0  0
 11 12  1  0  0  0  0
 11 13  1  0  0  0  0
 11 14  1  0  0  0  0
  9 10  1  0  0  0  0
  9 11  1  0  0  0  0
  9 22  1  0  0  0  0
  7  8  1  0  0  0  0
  7  9  1  0  0  0  0
 26 27  1  0  0  0  0
 26 28  1  0  0  0  0
 26 29  1  0  0  0  0
 24 25  1  0  0  0  0
 24 26  1  0  0  0  0
M  END
$$$$
default_name
  -OEChem-02102213163D

 29 29  0     1  0  0  0  0  0999 V2000
   -3.6042   -3.5728    1.4576 H   0  0  0  0  0  0  0  0  0  0  0  0
   -3.5202   -2.6488    0.8866 C   0  0  0  0  0  0  0  0  0  0  0  0
   -4.2052   -1.9048    1.2896 H   0  0  0  0  0  0  0  0  0  0  0  0
   -3.7552   -2.8428   -0.1584 H   0  0  0  0  0  0  0  0  0  0  0  0
   -2.1052   -2.1358    0.9946 C   0  0  0  0  0  0  0  0  0  0  0  0
   -1.2852   -2.7288    1.6826 O   0  0  0  0  0  0  0  0  0  0  0  0
   -1.8202   -1.0288    0.3146 N   0  0  0  0  0  0  0  0  0  0  0  0
   -2.5542   -0.5788   -0.2104 H   0  0  0  0  0  0  0  0  0  0  0  0
   -0.5102   -0.3728    0.3086 C   0  0  1  0  0  0  0  0  0  0  0  0
    0.0719   -0.7468    1.1521 H   0  0  0  0  0  0  0  0  0  0  0  0
    0.2338   -0.7427   -0.9878 C   0  0  0  0  0  0  0  0  0  0  0  0
    0.1115   -1.8105   -1.1777 H   0  0  0  0  0  0  0  0  0  0  0  0
   -0.2141   -0.2000   -1.8223 H   0  0  0  0  0  0  0  0  0  0  0  0
    1.7069   -0.4285   -0.9490 C   0  0  0  0  0  0  0  0  0  0  0  0
    2.2990    0.7549   -1.3350 N   0  0  0  0  0  0  0  0  0  0  0  0
    1.8342    1.5398   -1.7664 H   0  0  0  0  0  0  0  0  0  0  0  0
    3.6081    0.6797   -1.0414 C   0  0  0  0  0  0  0  0  0  0  0  0
    4.3383    1.4564   -1.2332 H   0  0  0  0  0  0  0  0  0  0  0  0
    3.8886   -0.5000   -0.4688 N   0  0  0  0  0  0  0  0  0  0  0  0
    2.6893   -1.2146   -0.4085 C   0  0  0  0  0  0  0  0  0  0  0  0
    2.5526   -2.1984    0.0216 H   0  0  0  0  0  0  0  0  0  0  0  0
   -0.6600    1.1486    0.4782 C   0  0  0  0  0  0  0  0  0  0  0  0
   -1.5001    1.7648   -0.1771 O   0  0  0  0  0  0  0  0  0  0  0  0
    0.1634    1.7559    1.3418 N   0  0  0  0  0  0  0  0  0  0  0  0
    0.8618    1.1897    1.8008 H   0  0  0  0  0  0  0  0  0  0  0  0
    0.1509    3.1886    1.6256 C   0  0  0  0  0  0  0  0  0  0  0  0
   -0.8272    3.4794    2.0152 H   0  0  0  0  0  0  0  0  0  0  0  0
    0.9172    3.4314    2.3624 H   0  0  0  0  0  0  0  0  0  0  0  0
    0.3414    3.7499    0.7095 H   0  0  0  0  0  0  0  0  0  0  0  0
  5  6  2  0  0  0  0
  5  7  1  0  0  0  0
  2  3  1  0  0  0  0
  2  4  1  0  0  0  0
  2  5  1  0  0  0  0
  1  2  1  0  0  0  0
 22 23  2  0  0  0  0
 22 24  1  0  0  0  0
 20 21  1  0  0  0  0
 19 20  1  0  0  0  0
 17 18  1  0  0  0  0
 17 19  2  0  0  0  0
 15 16  1  0  0  0  0
 15 17  1  0  0  0  0
 14 15  1  0  0  0  0
 14 20  2  0  0  0  0
 11 12  1  0  0  0  0
 11 13  1  0  0  0  0
 11 14  1  0  0  0  0
  9 10  1  0  0  0  0
  9 11  1  0  0  0  0
  9 22  1  0  0  0  0
  7  8  1  0  0  0  0
  7  9  1  0  0  0  0
 26 27  1  0  0  0  0
 26 28  1  0  0  0  0
 26 29  1  0  0  0  0
 24 25  1  0  0  0  0
 24 26  1  0  0  0  0
M  END
$$$$
default_name
  -OEChem-02102213163D

 29 29  0     1  0  0  0  0  0999 V2000
   -3.6042   -3.5728    1.4576 H   0  0  0  0  0  0  0  0  0  0  0  0
   -3.5202   -2.6488    0.8866 C   0  0  0  0  0  0  0  0  0  0  0  0
   -4.2052   -1.9048    1.2896 H   0  0  0  0  0  0  0  0  0  0  0  0
   -3.7552   -2.8428   -0.1584 H   0  0  0  0  0  0  0  0  0  0  0  0
   -2.1052   -2.1358    0.9946 C   0  0  0  0  0  0  0  0  0  0  0  0
   -1.2852   -2.7288    1.6826 O   0  0  0  0  0  0  0  0  0  0  0  0
   -1.8202   -1.0288    0.3146 N   0  0  0  0  0  0  0  0  0  0  0  0
   -2.5542   -0.5788   -0.2104 H   0  0  0  0  0  0  0  0  0  0  0  0
   -0.5102   -0.3728    0.3086 C   0  0  1  0  0  0  0  0  0  0  0  0
    0.0719   -0.7468    1.1521 H   0  0  0  0  0  0  0  0  0  0  0  0
    0.2338   -0.7427   -0.9878 C   0  0  0  0  0  0  0  0  0  0  0  0
    0.1115   -1.8105   -1.1777 H   0  0  0  0  0  0  0  0  0  0  0  0
   -0.2141   -0.2000   -1.8223 H   0  0  0  0  0  0  0  0  0  0  0  0
    1.7069   -0.4285   -0.9490 C   0  0  0  0  0  0  0  0  0  0  0  0
    2.2773    0.8220   -1.0537 N   0  0  0  0  0  0  0  0  0  0  0  0
    1.7898    1.6840   -1.2469 H   0  0  0  0  0  0  0  0  0  0  0  0
    3.6004    0.6928   -0.8587 C   0  0  0  0  0  0  0  0  0  0  0  0
    4.3193    1.5026   -0.8861 H   0  0  0  0  0  0  0  0  0  0  0  0
    3.9116   -0.5894   -0.6192 N   0  0  0  0  0  0  0  0  0  0  0  0
    2.7173   -1.3123   -0.6782 C   0  0  0  0  0  0  0  0  0  0  0  0
    2.6040   -2.3746   -0.5046 H   0  0  0  0  0  0  0  0  0  0  0  0
   -0.6600    1.1486    0.4782 C   0  0  0  0  0  0  0  0  0  0  0  0
   -1.5001    1.7648   -0.1771 O   0  0  0  0  0  0  0  0  0  0  0  0
    0.1634    1.7559    1.3418 N   0  0  0  0  0  0  0  0  0  0  0  0
    0.8618    1.1897    1.8008 H   0  0  0  0  0  0  0  0  0  0  0  0
    0.1509    3.1886    1.6256 C   0  0  0  0  0  0  0  0  0  0  0  0
   -0.8272    3.4794    2.0152 H   0  0  0  0  0  0  0  0  0  0  0  0
    0.9172    3.4314    2.3624 H   0  0  0  0  0  0  0  0  0  0  0  0
    0.3414    3.7499    0.7095 H   0  0  0  0  0  0  0  0  0  0  0  0
  5  6  2  0  0  0  0
  5  7  1  0  0  0  0
  2  3  1  0  0  0  0
  2  4  1  0  0  0  0
  2  5  1  0  0  0  0
  1  2  1  0  0  0  0
 22 23  2  0  0  0  0
 22 24  1  0  0  0  0
 20 21  1  0  0  0  0
 19 20  1  0  0  0  0
 17 18  1  0  0  0  0
 17 19  2  0  0  0  0
 15 16  1  0  0  0  0
 15 17  1  0  0  0  0
 14 15  1  0  0  0  0
 14 20  2  0  0  0  0
 11 12  1  0  0  0  0
 11 13  1  0  0  0  0
 11 14  1  0  0  0  0
  9 10  1  0  0  0  0
  9 11  1  0  0  0  0
  9 22  1  0  0  0  0
  7  8  1  0  0  0  0
  7  9  1  0  0  0  0
 26 27  1  0  0  0  0
 26 28  1  0  0  0  0
 26 29  1  0  0  0  0
 24 25  1  0  0  0  0
 24 26  1  0  0  0  0
M  END
$$$$
default_name
  -OEChem-02102213163D

 29 29  0     1  0  0  0  0  0999 V2000
   -3.6042   -3.5728    1.4576 H   0  0  0  0  0  0  0  0  0  0  0  0
   -3.5202   -2.6488    0.8866 C   0  0  0  0  0  0  0  0  0  0  0  0
   -4.2052   -1.9048    1.2896 H   0  0  0  0  0  0  0  0  0  0  0  0
   -3.7552   -2.8428   -0.1584 H   0  0  0  0  0  0  0  0  0  0  0  0
   -2.1052   -2.1358    0.9946 C   0  0  0  0  0  0  0  0  0  0  0  0
   -1.2852   -2.7288    1.6826 O   0  0  0  0  0  0  0  0  0  0  0  0
   -1.8202   -1.0288    0.3146 N   0  0  0  0  0  0  0  0  0  0  0  0
   -2.5542   -0.5788   -0.2104 H   0  0  0  0  0  0  0  0  0  0  0  0
   -0.5102   -0.3728    0.3086 C   0  0  1  0  0  0  0  0  0  0  0  0
    0.0719   -0.7468    1.1521 H   0  0  0  0  0  0  0  0  0  0  0  0
    0.2338   -0.7427   -0.9878 C   0  0  0  0  0  0  0  0  0  0  0  0
    0.1115   -1.8105   -1.1777 H   0  0  0  0  0  0  0  0  0  0  0  0
   -0.2141   -0.2000   -1.8223 H   0  0  0  0  0  0  0  0  0  0  0  0
    1.7069   -0.4285   -0.9490 C   0  0  0  0  0  0  0  0  0  0  0  0
    2.2711    0.8155   -0.7638 N   0  0  0  0  0  0  0  0  0  0  0  0
    1.7739    1.6916   -0.7062 H   0  0  0  0  0  0  0  0  0  0  0  0
    3.6029    0.6592   -0.6784 C   0  0  0  0  0  0  0  0  0  0  0  0
    4.3193    1.4594   -0.5380 H   0  0  0  0  0  0  0  0  0  0  0  0
    3.9263   -0.6375   -0.7883 N   0  0  0  0  0  0  0  0  0  0  0  0
    2.7303   -1.3382   -0.9649 C   0  0  0  0  0  0  0  0  0  0  0  0
    2.6265   -2.4113   -1.0602 H   0  0  0  0  0  0  0  0  0  0  0  0
   -0.6600    1.1486    0.4782 C   0  0  0  0  0  0  0  0  0  0  0  0
   -1.5001    1.7648   -0.1771 O   0  0  0  0  0  0  0  0  0  0  0  0
    0.1634    1.7559    1.3418 N   0  0  0  0  0  0  0  0  0  0  0  0
    0.8618    1.1897    1.8008 H   0  0  0  0  0  0  0  0  0  0  0  0
    0.1509    3.1886    1.6256 C   0  0  0  0  0  0  0  0  0  0  0  0
   -0.8272    3.4794    2.0152 H   0  0  0  0  0  0  0  0  0  0  0  0
    0.9172    3.4314    2.3624 H   0  0  0  0  0  0  0  0  0  0  0  0
    0.3414    3.7499    0.7095 H   0  0  0  0  0  0  0  0  0  0  0  0
  5  6  2  0  0  0  0
  5  7  1  0  0  0  0
  2  3  1  0  0  0  0
  2  4  1  0  0  0  0
  2  5  1  0  0  0  0
  1  2  1  0  0  0  0
 22 23  2  0  0  0  0
 22 24  1  0  0  0  0
 20 21  1  0  0  0  0
 19 20  1  0  0  0  0
 17 18  1  0  0  0  0
 17 19  2  0  0  0  0
 15 16  1  0  0  0  0
 15 17  1  0  0  0  0
 14 15  1  0  0  0  0
 14 20  2  0  0  0  0
 11 12  1  0  0  0  0
 11 13  1  0  0  0  0
 11 14  1  0  0  0  0
  9 10  1  0  0  0  0
  9 11  1  0  0  0  0
  9 22  1  0  0  0  0
  7  8  1  0  0  0  0
  7  9  1  0  0  0  0
 26 27  1  0  0  0  0
 26 28  1  0  0  0  0
 26 29  1  0  0  0  0
 24 25  1  0  0  0  0
 24 26  1  0  0  0  0
M  END
$$$$
default_name
  -OEChem-02102213163D

 29 29  0     1  0  0  0  0  0999 V2000
   -3.6042   -3.5728    1.4576 H   0  0  0  0  0  0  0  0  0  0  0  0
   -3.5202   -2.6488    0.8866 C   0  0  0  0  0  0  0  0  0  0  0  0
   -4.2052   -1.9048    1.2896 H   0  0  0  0  0  0  0  0  0  0  0  0
   -3.7552   -2.8428   -0.1584 H   0  0  0  0  0  0  0  0  0  0  0  0
   -2.1052   -2.1358    0.9946 C   0  0  0  0  0  0  0  0  0  0  0  0
   -1.2852   -2.7288    1.6826 O   0  0  0  0  0  0  0  0  0  0  0  0
   -1.8202   -1.0288    0.3146 N   0  0  0  0  0  0  0  0  0  0  0  0
   -2.5542   -0.5788   -0.2104 H   0  0  0  0  0  0  0  0  0  0  0  0
   -0.5102   -0.3728    0.3086 C   0  0  1  0  0  0  0  0  0  0  0  0
    0.0719   -0.7468    1.1521 H   0  0  0  0  0  0  0  0  0  0  0  0
    0.2338   -0.7427   -0.9878 C   0  0  0  0  0  0  0  0  0  0  0  0
    0.1115   -1.8105   -1.1777 H   0  0  0  0  0  0  0  0  0  0  0  0
   -0.2141   -0.2000   -1.8223 H   0  0  0  0  0  0  0  0  0  0  0  0
    1.7069   -0.4285   -0.9490 C   0  0  0  0  0  0  0  0  0  0  0  0
    2.2807    0.7358   -0.4851 N   0  0  0  0  0  0  0  0  0  0  0  0
    1.7877    1.5621   -0.1812 H   0  0  0  0  0  0  0  0  0  0  0  0
    3.6152    0.5812   -0.5129 C   0  0  0  0  0  0  0  0  0  0  0  0
    4.3385    1.3295   -0.2127 H   0  0  0  0  0  0  0  0  0  0  0  0
    3.9317   -0.6411   -0.9646 N   0  0  0  0  0  0  0  0  0  0  0  0
    2.7277   -1.2906   -1.2491 C   0  0  0  0  0  0  0  0  0  0  0  0
    2.6185   -2.3061   -1.6073 H   0  0  0  0  0  0  0  0  0  0  0  0
   -0.6600    1.1486    0.4782 C   0  0  0  0  0  0  0  0  0  0  0  0
   -1.5001    1.7648   -0.1771 O   0  0  0  0  0  0  0  0  0  0  0  0
    0.1634    1.7559    1.3418 N   0  0  0  0  0  0  0  0  0  0  0  0
    0.8618    1.1897    1.8008 H   0  0  0  0  0  0  0  0  0  0  0  0
    0.1509    3.1886    1.6256 C   0  0  0  0  0  0  0  0  0  0  0  0
   -0.8272    3.4794    2.0152 H   0  0  0  0  0  0  0  0  0  0  0  0
    0.9172    3.4314    2.3624 H   0  0  0  0  0  0  0  0  0  0  0  0
    0.3414    3.7499    0.7095 H   0  0  0  0  0  0  0  0  0  0  0  0
  5  6  2  0  0  0  0
  5  7  1  0  0  0  0
  2  3  1  0  0  0  0
  2  4  1  0  0  0  0
  2  5  1  0  0  0  0
  1  2  1  0  0  0  0
 22 23  2  0  0  0  0
 22 24  1  0  0  0  0
 20 21  1  0  0  0  0
 19 20  1  0  0  0  0
 17 18  1  0  0  0  0
 17 19  2  0  0  0  0
 15 16  1  0  0  0  0
 15 17  1  0  0  0  0
 14 15  1  0  0  0  0
 14 20  2  0  0  0  0
 11 12  1  0  0  0  0
 11 13  1  0  0  0  0
 11 14  1  0  0  0  0
  9 10  1  0  0  0  0
  9 11  1  0  0  0  0
  9 22  1  0  0  0  0
  7  8  1  0  0  0  0
  7  9  1  0  0  0  0
 26 27  1  0  0  0  0
 26 28  1  0  0  0  0
 26 29  1  0  0  0  0
 24 25  1  0  0  0  0
 24 26  1  0  0  0  0
M  END
$$$$
default_name
  -OEChem-02102213163D

 29 29  0     1  0  0  0  0  0999 V2000
   -3.6042   -3.5728    1.4576 H   0  0  0  0  0  0  0  0  0  0  0  0
   -3.5202   -2.6488    0.8866 C   0  0  0  0  0  0  0  0  0  0  0  0
   -4.2052   -1.9048    1.2896 H   0  0  0  0  0  0  0  0  0  0  0  0
   -3.7552   -2.8428   -0.1584 H   0  0  0  0  0  0  0  0  0  0  0  0
   -2.1052   -2.1358    0.9946 C   0  0  0  0  0  0  0  0  0  0  0  0
   -1.2852   -2.7288    1.6826 O   0  0  0  0  0  0  0  0  0  0  0  0
   -1.8202   -1.0288    0.3146 N   0  0  0  0  0  0  0  0  0  0  0  0
   -2.5542   -0.5788   -0.2104 H   0  0  0  0  0  0  0  0  0  0  0  0
   -0.5102   -0.3728    0.3086 C   0  0  1  0  0  0  0  0  0  0  0  0
    0.0719   -0.7468    1.1521 H   0  0  0  0  0  0  0  0  0  0  0  0
    0.2338   -0.7427   -0.9878 C   0  0  0  0  0  0  0  0  0  0  0  0
    0.1115   -1.8105   -1.1777 H   0  0  0  0  0  0  0  0  0  0  0  0
   -0.2141   -0.2000   -1.8223 H   0  0  0  0  0  0  0  0  0  0  0  0
    1.7069   -0.4285   -0.9490 C   0  0  0  0  0  0  0  0  0  0  0  0
    2.3056    0.5883   -0.2365 N   0  0  0  0  0  0  0  0  0  0  0  0
    1.8302    1.3041    0.2924 H   0  0  0  0  0  0  0  0  0  0  0  0
    3.6365    0.4640   -0.3734 C   0  0  0  0  0  0  0  0  0  0  0  0
    4.3754    1.1218    0.0676 H   0  0  0  0  0  0  0  0  0  0  0  0
    3.9275   -0.6000   -1.1361 N   0  0  0  0  0  0  0  0  0  0  0  0
    2.7094   -1.1728   -1.5114 C   0  0  0  0  0  0  0  0  0  0  0  0
    2.5805   -2.0660   -2.1088 H   0  0  0  0  0  0  0  0  0  0  0  0
   -0.6600    1.1486    0.4782 C   0  0  0  0  0  0  0  0  0  0  0  0
   -1.5001    1.7648   -0.1771 O   0  0  0  0  0  0  0  0  0  0  0  0
    0.1634    1.7559    1.3418 N   0  0  0  0  0  0  0  0  0  0  0  0
    0.8618    1.1897    1.8008 H   0  0  0  0  0  0  0  0  0  0  0  0
    0.1509    3.1886    1.6256 C   0  0  0  0  0  0  0  0  0  0  0  0
   -0.8272    3.4794    2.0152 H   0  0  0  0  0  0  0  0  0  0  0  0
    0.9172    3.4314    2.3624 H   0  0  0  0  0  0  0  0  0  0  0  0
    0.3414    3.7499    0.7095 H   0  0  0  0  0  0  0  0  0  0  0  0
  5  6  2  0  0  0  0
  5  7  1  0  0  0  0
  2  3  1  0  0  0  0
  2  4  1  0  0  0  0
  2  5  1  0  0  0  0
  1  2  1  0  0  0  0
 22 23  2  0  0  0  0
 22 24  1  0  0  0  0
 20 21  1  0  0  0  0
 19 20  1  0  0  0  0
 17 18  1  0  0  0  0
 17 19  2  0  0  0  0
 15 16  1  0  0  0  0
 15 17  1  0  0  0  0
 14 15  1  0  0  0  0
 14 20  2  0  0  0  0
 11 12  1  0  0  0  0
 11 13  1  0  0  0  0
 11 14  1  0  0  0  0
  9 10  1  0  0  0  0
  9 11  1  0  0  0  0
  9 22  1  0  0  0  0
  7  8  1  0  0  0  0
  7  9  1  0  0  0  0
 26 27  1  0  0  0  0
 26 28  1  0  0  0  0
 26 29  1  0  0  0  0
 24 25  1  0  0  0  0
 24 26  1  0  0  0  0
M  END
$$$$
default_name
  -OEChem-02102213163D

 29 29  0     1  0  0  0  0  0999 V2000
   -3.6042   -3.5728    1.4576 H   0  0  0  0  0  0  0  0  0  0  0  0
   -3.5202   -2.6488    0.8866 C   0  0  0  0  0  0  0  0  0  0  0  0
   -4.2052   -1.9048    1.2896 H   0  0  0  0  0  0  0  0  0  0  0  0
   -3.7552   -2.8428   -0.1584 H   0  0  0  0  0  0  0  0  0  0  0  0
   -2.1052   -2.1358    0.9946 C   0  0  0  0  0  0  0  0  0  0  0  0
   -1.2852   -2.7288    1.6826 O   0  0  0  0  0  0  0  0  0  0  0  0
   -1.8202   -1.0288    0.3146 N   0  0  0  0  0  0  0  0  0  0  0  0
   -2.5542   -0.5788   -0.2104 H   0  0  0  0  0  0  0  0  0  0  0  0
   -0.5102   -0.3728    0.3086 C   0  0  1  0  0  0  0  0  0  0  0  0
    0.0719   -0.7468    1.1521 H   0  0  0  0  0  0  0  0  0  0  0  0
    0.2338   -0.7427   -0.9878 C   0  0  0  0  0  0  0  0  0  0  0  0
    0.1115   -1.8105   -1.1777 H   0  0  0  0  0  0  0  0  0  0  0  0
   -0.2141   -0.2000   -1.8223 H   0  0  0  0  0  0  0  0  0  0  0  0
    1.7069   -0.4285   -0.9490 C   0  0  0  0  0  0  0  0  0  0  0  0
    2.3441    0.3832   -0.0351 N   0  0  0  0  0  0  0  0  0  0  0  0
    1.8986    0.9354    0.6823 H   0  0  0  0  0  0  0  0  0  0  0  0
    3.6654    0.3156   -0.2696 C   0  0  0  0  0  0  0  0  0  0  0  0
    4.4275    0.8506    0.2838 H   0  0  0  0  0  0  0  0  0  0  0  0
    3.9138   -0.5168   -1.2911 N   0  0  0  0  0  0  0  0  0  0  0  0
    2.6769   -0.9927   -1.7340 C   0  0  0  0  0  0  0  0  0  0  0  0
    2.5151   -1.7075   -2.5304 H   0  0  0  0  0  0  0  0  0  0  0  0
   -0.6600    1.1486    0.4782 C   0  0  0  0  0  0  0  0  0  0  0  0
   -1.5001    1.7648   -0.1771 O   0  0  0  0  0  0  0  0  0  0  0  0
    0.1634    1.7559    1.3418 N   0  0  0  0  0  0  0  0  0  0  0  0
    0.8618    1.1897    1.8008 H   0  0  0  0  0  0  0  0  0  0  0  0
    0.1509    3.1886    1.6256 C   0  0  0  0  0  0  0  0  0  0  0  0
   -0.8272    3.4794    2.0152 H   0  0  0  0  0  0  0  0  0  0  0  0
    0.9172    3.4314    2.3624 H   0  0  0  0  0  0  0  0  0  0  0  0
    0.3414    3.7499    0.7095 H   0  0  0  0  0  0  0  0  0  0  0  0
  5  6  2  0  0  0  0
  5  7  1  0  0  0  0
  2  3  1  0  0  0  0
  2  4  1  0  0  0  0
  2  5  1  0  0  0  0
  1  2  1  0  0  0  0
 22 23  2  0  0  0  0
 22 24  1  0  0  0  0
 20 21  1  0  0  0  0
 19 20  1  0  0  0  0
 17 18  1  0  0  0  0
 17 19  2  0  0  0  0
 15 16  1  0  0  0  0
 15 17  1  0  0  0  0
 14 15  1  0  0  0  0
 14 20  2  0  0  0  0
 11 12  1  0  0  0  0
 11 13  1  0  0  0  0
 11 14  1  0  0  0  0
  9 10  1  0  0  0  0
  9 11  1  0  0  0  0
  9 22  1  0  0  0  0
  7  8  1  0  0  0  0
  7  9  1  0  0  0  0
 26 27  1  0  0  0  0
 26 28  1  0  0  0  0
 26 29  1  0  0  0  0
 24 25  1  0  0  0  0
 24 26  1  0  0  0  0
M  END
$$$$
default_name
  -OEChem-02102213163D

 29 29  0     1  0  0  0  0  0999 V2000
   -3.6042   -3.5728    1.4576 H   0  0  0  0  0  0  0  0  0  0  0  0
   -3.5202   -2.6488    0.8866 C   0  0  0  0  0  0  0  0  0  0  0  0
   -4.2052   -1.9048    1.2896 H   0  0  0  0  0  0  0  0  0  0  0  0
   -3.7552   -2.8428   -0.1584 H   0  0  0  0  0  0  0  0  0  0  0  0
   -2.1052   -2.1358    0.9946 C   0  0  0  0  0  0  0  0  0  0  0  0
   -1.2852   -2.7288    1.6826 O   0  0  0  0  0  0  0  0  0  0  0  0
   -1.8202   -1.0288    0.3146 N   0  0  0  0  0  0  0  0  0  0  0  0
   -2.5542   -0.5788   -0.2104 H   0  0  0  0  0  0  0  0  0  0  0  0
   -0.5102   -0.3728    0.3086 C   0  0  1  0  0  0  0  0  0  0  0  0
    0.0719   -0.7468    1.1521 H   0  0  0  0  0  0  0  0  0  0  0  0
    0.2338   -0.7427   -0.9878 C   0  0  0  0  0  0  0  0  0  0  0  0
    0.1115   -1.8105   -1.1777 H   0  0  0  0  0  0  0  0  0  0  0  0
   -0.2141   -0.2000   -1.8223 H   0  0  0  0  0  0  0  0  0  0  0  0
    1.7069   -0.4285   -0.9490 C   0  0  0  0  0  0  0  0  0  0  0  0
    2.3935    0.1343    0.1055 N   0  0  0  0  0  0  0  0  0  0  0  0
    1.9882    0.4811    0.9620 H   0  0  0  0  0  0  0  0  0  0  0  0
    3.6999    0.1462   -0.2083 C   0  0  0  0  0  0  0  0  0  0  0  0
    4.4914    0.5342    0.4212 H   0  0  0  0  0  0  0  0  0  0  0  0
    3.8917   -0.3974   -1.4191 N   0  0  0  0  0  0  0  0  0  0  0  0
    2.6322   -0.7626   -1.9016 C   0  0  0  0  0  0  0  0  0  0  0  0
    2.4268   -1.2549   -2.8433 H   0  0  0  0  0  0  0  0  0  0  0  0
   -0.6600    1.1486    0.4782 C   0  0  0  0  0  0  0  0  0  0  0  0
   -1.5001    1.7648   -0.1771 O   0  0  0  0  0  0  0  0  0  0  0  0
    0.1634    1.7559    1.3418 N   0  0  0  0  0  0  0  0  0  0  0  0
    0.8618    1.1897    1.8008 H   0  0  0  0  0  0  0  0  0  0  0  0
    0.1509    3.1886    1.6256 C   0  0  0  0  0  0  0  0  0  0  0  0
   -0.8272    3.4794    2.0152 H   0  0  0  0  0  0  0  0  0  0  0  0
    0.9172    3.4314    2.3624 H   0  0  0  0  0  0  0  0  0  0  0  0
    0.3414    3.7499    0.7095 H   0  0  0  0  0  0  0  0  0  0  0  0
  5  6  2  0  0  0  0
  5  7  1  0  0  0  0
  2  3  1  0  0  0  0
  2  4  1  0  0  0  0
  2  5  1  0  0  0  0
  1  2  1  0  0  0  0
 22 23  2  0  0  0  0
 22 24  1  0  0  0  0
 20 21  1  0  0  0  0
 19 20  1  0  0  0  0
 17 18  1  0  0  0  0
 17 19  2  0  0  0  0
 15 16  1  0  0  0  0
 15 17  1  0  0  0  0
 14 15  1  0  0  0  0
 14 20  2  0  0  0  0
 11 12  1  0  0  0  0
 11 13  1  0  0  0  0
 11 14  1  0  0  0  0
  9 10  1  0  0  0  0
  9 11  1  0  0  0  0
  9 22  1  0  0  0  0
  7  8  1  0  0  0  0
  7  9  1  0  0  0  0
 26 27  1  0  0  0  0
 26 28  1  0  0  0  0
 26 29  1  0  0  0  0
 24 25  1  0  0  0  0
 24 26  1  0  0  0  0
M  END
$$$$
default_name
  -OEChem-02102213163D

 29 29  0     1  0  0  0  0  0999 V2000
   -3.6042   -3.5728    1.4576 H   0  0  0  0  0  0  0  0  0  0  0  0
   -3.5202   -2.6488    0.8866 C   0  0  0  0  0  0  0  0  0  0  0  0
   -4.2052   -1.9048    1.2896 H   0  0  0  0  0  0  0  0  0  0  0  0
   -3.7552   -2.8428   -0.1584 H   0  0  0  0  0  0  0  0  0  0  0  0
   -2.1052   -2.1358    0.9946 C   0  0  0  0  0  0  0  0  0  0  0  0
   -1.2852   -2.7288    1.6826 O   0  0  0  0  0  0  0  0  0  0  0  0
   -1.8202   -1.0288    0.3146 N   0  0  0  0  0  0  0  0  0  0  0  0
   -2.5542   -0.5788   -0.2104 H   0  0  0  0  0  0  0  0  0  0  0  0
   -0.5102   -0.3728    0.3086 C   0  0  1  0  0  0  0  0  0  0  0  0
    0.0719   -0.7468    1.1521 H   0  0  0  0  0  0  0  0  0  0  0  0
    0.2338   -0.7427   -0.9878 C   0  0  0  0  0  0  0  0  0  0  0  0
    0.1115   -1.8105   -1.1777 H   0  0  0  0  0  0  0  0  0  0  0  0
   -0.2141   -0.2000   -1.8223 H   0  0  0  0  0  0  0  0  0  0  0  0
    1.7069   -0.4285   -0.9490 C   0  0  0  0  0  0  0  0  0  0  0  0
    2.4504   -0.1413    0.1756 N   0  0  0  0  0  0  0  0  0  0  0  0
    2.0928   -0.0279    1.1123 H   0  0  0  0  0  0  0  0  0  0  0  0
    3.7377   -0.0327   -0.1939 C   0  0  0  0  0  0  0  0  0  0  0  0
    4.5626    0.1943    0.4704 H   0  0  0  0  0  0  0  0  0  0  0  0
    3.8627   -0.2498   -1.5113 N   0  0  0  0  0  0  0  0  0  0  0  0
    2.5785   -0.4982   -2.0029 C   0  0  0  0  0  0  0  0  0  0  0  0
    2.3216   -0.7392   -3.0264 H   0  0  0  0  0  0  0  0  0  0  0  0
   -0.6600    1.1486    0.4782 C   0  0  0  0  0  0  0  0  0  0  0  0
   -1.5001    1.7648   -0.1771 O   0  0  0  0  0  0  0  0  0  0  0  0
    0.1634    1.7559    1.3418 N   0  0  0  0  0  0  0  0  0  0  0  0
    0.8618    1.1897    1.8008 H   0  0  0  0  0  0  0  0  0  0  0  0
    0.1509    3.1886    1.6256 C   0  0  0  0  0  0  0  0  0  0  0  0
   -0.8272    3.4794    2.0152 H   0  0  0  0  0  0  0  0  0  0  0  0
    0.9172    3.4314    2.3624 H   0  0  0  0  0  0  0  0  0  0  0  0
    0.3414    3.7499    0.7095 H   0  0  0  0  0  0  0  0  0  0  0  0
  5  6  2  0  0  0  0
  5  7  1  0  0  0  0
  2  3  1  0  0  0  0
  2  4  1  0  0  0  0
  2  5  1  0  0  0  0
  1  2  1  0  0  0  0
 22 23  2  0  0  0  0
 22 24  1  0  0  0  0
 20 21  1  0  0  0  0
 19 20  1  0  0  0  0
 17 18  1  0  0  0  0
 17 19  2  0  0  0  0
 15 16  1  0  0  0  0
 15 17  1  0  0  0  0
 14 15  1  0  0  0  0
 14 20  2  0  0  0  0
 11 12  1  0  0  0  0
 11 13  1  0  0  0  0
 11 14  1  0  0  0  0
  9 10  1  0  0  0  0
  9 11  1  0  0  0  0
  9 22  1  0  0  0  0
  7  8  1  0  0  0  0
  7  9  1  0  0  0  0
 26 27  1  0  0  0  0
 26 28  1  0  0  0  0
 26 29  1  0  0  0  0
 24 25  1  0  0  0  0
 24 26  1  0  0  0  0
M  END
$$$$
default_name
  -OEChem-02102213163D

 29 29  0     1  0  0  0  0  0999 V2000
   -3.6042   -3.5728    1.4576 H   0  0  0  0  0  0  0  0  0  0  0  0
   -3.5202   -2.6488    0.8866 C   0  0  0  0  0  0  0  0  0  0  0  0
   -4.2052   -1.9048    1.2896 H   0  0  0  0  0  0  0  0  0  0  0  0
   -3.7552   -2.8428   -0.1584 H   0  0  0  0  0  0  0  0  0  0  0  0
   -2.1052   -2.1358    0.9946 C   0  0  0  0  0  0  0  0  0  0  0  0
   -1.2852   -2.7288    1.6826 O   0  0  0  0  0  0  0  0  0  0  0  0
   -1.8202   -1.0288    0.3146 N   0  0  0  0  0  0  0  0  0  0  0  0
   -2.5542   -0.5788   -0.2104 H   0  0  0  0  0  0  0  0  0  0  0  0
   -0.5102   -0.3728    0.3086 C   0  0  1  0  0  0  0  0  0  0  0  0
    0.0719   -0.7468    1.1521 H   0  0  0  0  0  0  0  0  0  0  0  0
    0.2338   -0.7427   -0.9878 C   0  0  0  0  0  0  0  0  0  0  0  0
    0.1115   -1.8105   -1.1777 H   0  0  0  0  0  0  0  0  0  0  0  0
   -0.2141   -0.2000   -1.8223 H   0  0  0  0  0  0  0  0  0  0  0  0
    1.7069   -0.4285   -0.9490 C   0  0  0  0  0  0  0  0  0  0  0  0
    2.5111   -0.4249    0.1705 N   0  0  0  0  0  0  0  0  0  0  0  0
    2.2054   -0.5569    1.1230 H   0  0  0  0  0  0  0  0  0  0  0  0
    3.7762   -0.2089   -0.2273 C   0  0  0  0  0  0  0  0  0  0  0  0
    4.6363   -0.1460    0.4280 H   0  0  0  0  0  0  0  0  0  0  0  0
    3.8286   -0.0841   -1.5614 N   0  0  0  0  0  0  0  0  0  0  0  0
    2.5194   -0.2176   -2.0310 C   0  0  0  0  0  0  0  0  0  0  0  0
    2.2067   -0.1955   -3.0670 H   0  0  0  0  0  0  0  0  0  0  0  0
   -0.6600    1.1486    0.4782 C   0  0  0  0  0  0  0  0  0  0  0  0
   -1.5001    1.7648   -0.1771 O   0  0  0  0  0  0  0  0  0  0  0  0
    0.1634    1.7559    1.3418 N   0  0  0  0  0  0  0  0  0  0  0  0
    0.8618    1.1897    1.8008 H   0  0  0  0  0  0  0  0  0  0  0  0
    0.1509    3.1886    1.6256 C   0  0  0  0  0  0  0  0  0  0  0  0
   -0.8272    3.4794    2.0152 H   0  0  0  0  0  0  0  0  0  0  0  0
    0.9172    3.4314    2.3624 H   0  0  0  0  0  0  0  0  0  0  0  0
    0.3414    3.7499    0.7095 H   0  0  0  0  0  0  0  0  0  0  0  0
  5  6  2  0  0  0  0
  5  7  1  0  0  0  0
  2  3  1  0  0  0  0
  2  4  1  0  0  0  0
  2  5  1  0  0  0  0
  1  2  1  0  0  0  0
 22 23  2  0  0  0  0
 22 24  1  0  0  0  0
 20 21  1  0  0  0  0
 19 20  1  0  0  0  0
 17 18  1  0  0  0  0
 17 19  2  0  0  0  0
 15 16  1  0  0  0  0
 15 17  1  0  0  0  0
 14 15  1  0  0  0  0
 14 20  2  0  0  0  0
 11 12  1  0  0  0  0
 11 13  1  0  0  0  0
 11 14  1  0  0  0  0
  9 10  1  0  0  0  0
  9 11  1  0  0  0  0
  9 22  1  0  0  0  0
  7  8  1  0  0  0  0
  7  9  1  0  0  0  0
 26 27  1  0  0  0  0
 26 28  1  0  0  0  0
 26 29  1  0  0  0  0
 24 25  1  0  0  0  0
 24 26  1  0  0  0  0
M  END
$$$$
default_name
  -OEChem-02102213163D

 29 29  0     1  0  0  0  0  0999 V2000
   -3.6042   -3.5728    1.4576 H   0  0  0  0  0  0  0  0  0  0  0  0
   -3.5202   -2.6488    0.8866 C   0  0  0  0  0  0  0  0  0  0  0  0
   -4.2052   -1.9048    1.2896 H   0  0  0  0  0  0  0  0  0  0  0  0
   -3.7552   -2.8428   -0.1584 H   0  0  0  0  0  0  0  0  0  0  0  0
   -2.1052   -2.1358    0.9946 C   0  0  0  0  0  0  0  0  0  0  0  0
   -1.2852   -2.7288    1.6826 O   0  0  0  0  0  0  0  0  0  0  0  0
   -1.8202   -1.0288    0.3146 N   0  0  0  0  0  0  0  0  0  0  0  0
   -2.5542   -0.5788   -0.2104 H   0  0  0  0  0  0  0  0  0  0  0  0
   -0.5102   -0.3728    0.3086 C   0  0  1  0  0  0  0  0  0  0  0  0
    0.0719   -0.7468    1.1521 H   0  0  0  0  0  0  0  0  0  0  0  0
    0.2338   -0.7427   -0.9878 C   0  0  0  0  0  0  0  0  0  0  0  0
    0.1115   -1.8105   -1.1777 H   0  0  0  0  0  0  0  0  0  0  0  0
   -0.2141   -0.2000   -1.8223 H   0  0  0  0  0  0  0  0  0  0  0  0
    1.7069   -0.4285   -0.9490 C   0  0  0  0  0  0  0  0  0  0  0  0
    2.5712   -0.6971    0.0906 N   0  0  0  0  0  0  0  0  0  0  0  0
    2.3182   -1.0699    0.9935 H   0  0  0  0  0  0  0  0  0  0  0  0
    3.8127   -0.3703   -0.3061 C   0  0  0  0  0  0  0  0  0  0  0  0
    4.7075   -0.4635    0.2970 H   0  0  0  0  0  0  0  0  0  0  0  0
    3.7920    0.0884   -1.5661 N   0  0  0  0  0  0  0  0  0  0  0  0
    2.4589    0.0602   -1.9839 C   0  0  0  0  0  0  0  0  0  0  0  0
    2.0899    0.3393   -2.9624 H   0  0  0  0  0  0  0  0  0  0  0  0
   -0.6600    1.1486    0.4782 C   0  0  0  0  0  0  0  0  0  0  0  0
   -1.5001    1.7648   -0.1771 O   0  0  0  0  0  0  0  0  0  0  0  0
    0.1634    1.7559    1.3418 N   0  0  0  0  0  0  0  0  0  0  0  0
    0.8618    1.1897    1.8008 H   0  0  0  0  0  0  0  0  0  0  0  0
    0.1509    3.1886    1.6256 C   0  0  0  0  0  0  0  0  0  0  0  0
   -0.8272    3.4794    2.0152 H   0  0  0  0  0  0  0  0  0  0  0  0
    0.9172    3.4314    2.3624 H   0  0  0  0  0  0  0  0  0  0  0  0
    0.3414    3.7499    0.7095 H   0  0  0  0  0  0  0  0  0  0  0  0
  5  6  2  0  0  0  0
  5  7  1  0  0  0  0
  2  3  1  0  0  0  0
  2  4  1  0  0  0  0
  2  5  1  0  0  0  0
  1  2  1  0  0  0  0
 22 23  2  0  0  0  0
 22 24  1  0  0  0  0
 20 21  1  0  0  0  0
 19 20  1  0  0  0  0
 17 18  1  0  0  0  0
 17 19  2  0  0  0  0
 15 16  1  0  0  0  0
 15 17  1  0  0  0  0
 14 15  1  0  0  0  0
 14 20  2  0  0  0  0
 11 12  1  0  0  0  0
 11 13  1  0  0  0  0
 11 14  1  0  0  0  0
  9 10  1  0  0  0  0
  9 11  1  0  0  0  0
  9 22  1  0  0  0  0
  7  8  1  0  0  0  0
  7  9  1  0  0  0  0
 26 27  1  0  0  0  0
 26 28  1  0  0  0  0
 26 29  1  0  0  0  0
 24 25  1  0  0  0  0
 24 26  1  0  0  0  0
M  END
$$$$
default_name
  -OEChem-02102213163D

 29 29  0     1  0  0  0  0  0999 V2000
   -3.6042   -3.5728    1.4576 H   0  0  0  0  0  0  0  0  0  0  0  0
   -3.5202   -2.6488    0.8866 C   0  0  0  0  0  0  0  0  0  0  0  0
   -4.2052   -1.9048    1.2896 H   0  0  0  0  0  0  0  0  0  0  0  0
   -3.7552   -2.8428   -0.1584 H   0  0  0  0  0  0  0  0  0  0  0  0
   -2.1052   -2.1358    0.9946 C   0  0  0  0  0  0  0  0  0  0  0  0
   -1.2852   -2.7288    1.6826 O   0  0  0  0  0  0  0  0  0  0  0  0
   -1.8202   -1.0288    0.3146 N   0  0  0  0  0  0  0  0  0  0  0  0
   -2.5542   -0.5788   -0.2104 H   0  0  0  0  0  0  0  0  0  0  0  0
   -0.5102   -0.3728    0.3086 C   0  0  1  0  0  0  0  0  0  0  0  0
    0.0719   -0.7468    1.1521 H   0  0  0  0  0  0  0  0  0  0  0  0
    0.2338   -0.7427   -0.9878 C   0  0  0  0  0  0  0  0  0  0  0  0
    0.1115   -1.8105   -1.1777 H   0  0  0  0  0  0  0  0  0  0  0  0
   -0.2141   -0.2000   -1.8223 H   0  0  0  0  0  0  0  0  0  0  0  0
    1.7069   -0.4285   -0.9490 C   0  0  0  0  0  0  0  0  0  0  0  0
    2.6269   -0.9395   -0.0588 N   0  0  0  0  0  0  0  0  0  0  0  0
    2.4236   -1.5318    0.7324 H   0  0  0  0  0  0  0  0  0  0  0  0
    3.8448   -0.5061   -0.4252 C   0  0  0  0  0  0  0  0  0  0  0  0
    4.7713   -0.7366    0.0863 H   0  0  0  0  0  0  0  0  0  0  0  0
    3.7551    0.2560   -1.5249 N   0  0  0  0  0  0  0  0  0  0  0  0
    2.4011    0.3162   -1.8649 C   0  0  0  0  0  0  0  0  0  0  0  0
    1.9791    0.8286   -2.7198 H   0  0  0  0  0  0  0  0  0  0  0  0
   -0.6600    1.1486    0.4782 C   0  0  0  0  0  0  0  0  0  0  0  0
   -1.5001    1.7648   -0.1771 O   0  0  0  0  0  0  0  0  0  0  0  0
    0.1634    1.7559    1.3418 N   0  0  0  0  0  0  0  0  0  0  0  0
    0.8618    1.1897    1.8008 H   0  0  0  0  0  0  0  0  0  0  0  0
    0.1509    3.1886    1.6256 C   0  0  0  0  0  0  0  0  0  0  0  0
   -0.8272    3.4794    2.0152 H   0  0  0  0  0  0  0  0  0  0  0  0
    0.9172    3.4314    2.3624 H   0  0  0  0  0  0  0  0  0  0  0  0
    0.3414    3.7499    0.7095 H   0  0  0  0  0  0  0  0  0  0  0  0
  5  6  2  0  0  0  0
  5  7  1  0  0  0  0
  2  3  1  0  0  0  0
  2  4  1  0  0  0  0
  2  5  1  0  0  0  0
  1  2  1  0  0  0  0
 22 23  2  0  0  0  0
 22 24  1  0  0  0  0
 20 21  1  0  0  0  0
 19 20  1  0  0  0  0
 17 18  1  0  0  0  0
 17 19  2  0  0  0  0
 15 16  1  0  0  0  0
 15 17  1  0  0  0  0
 14 15  1  0  0  0  0
 14 20  2  0  0  0  0
 11 12  1  0  0  0  0
 11 13  1  0  0  0  0
 11 14  1  0  0  0  0
  9 10  1  0  0  0  0
  9 11  1  0  0  0  0
  9 22  1  0  0  0  0
  7  8  1  0  0  0  0
  7  9  1  0  0  0  0
 26 27  1  0  0  0  0
 26 28  1  0  0  0  0
 26 29  1  0  0  0  0
 24 25  1  0  0  0  0
 24 26  1  0  0  0  0
M  END
$$$$
default_name
  -OEChem-02102213163D

 29 29  0     1  0  0  0  0  0999 V2000
   -3.6042   -3.5728    1.4576 H   0  0  0  0  0  0  0  0  0  0  0  0
   -3.5202   -2.6488    0.8866 C   0  0  0  0  0  0  0  0  0  0  0  0
   -4.2052   -1.9048    1.2896 H   0  0  0  0  0  0  0  0  0  0  0  0
   -3.7552   -2.8428   -0.1584 H   0  0  0  0  0  0  0  0  0  0  0  0
   -2.1052   -2.1358    0.9946 C   0  0  0  0  0  0  0  0  0  0  0  0
   -1.2852   -2.7288    1.6826 O   0  0  0  0  0  0  0  0  0  0  0  0
   -1.8202   -1.0288    0.3146 N   0  0  0  0  0  0  0  0  0  0  0  0
   -2.5542   -0.5788   -0.2104 H   0  0  0  0  0  0  0  0  0  0  0  0
   -0.5102   -0.3728    0.3086 C   0  0  1  0  0  0  0  0  0  0  0  0
    0.0719   -0.7468    1.1521 H   0  0  0  0  0  0  0  0  0  0  0  0
    0.2338   -0.7427   -0.9878 C   0  0  0  0  0  0  0  0  0  0  0  0
    0.1115   -1.8105   -1.1777 H   0  0  0  0  0  0  0  0  0  0  0  0
   -0.2141   -0.2000   -1.8223 H   0  0  0  0  0  0  0  0  0  0  0  0
    1.7069   -0.4285   -0.9490 C   0  0  0  0  0  0  0  0  0  0  0  0
    2.6742   -1.1354   -0.2674 N   0  0  0  0  0  0  0  0  0  0  0  0
    2.5144   -1.9113    0.3577 H   0  0  0  0  0  0  0  0  0  0  0  0
    3.8703   -0.6069   -0.5762 C   0  0  0  0  0  0  0  0  0  0  0  0
    4.8234   -0.9466   -0.1897 H   0  0  0  0  0  0  0  0  0  0  0  0
    3.7206    0.4072   -1.4408 N   0  0  0  0  0  0  0  0  0  0  0  0
    2.3501    0.5330   -1.6820 C   0  0  0  0  0  0  0  0  0  0  0  0
    1.8819    1.2391   -2.3556 H   0  0  0  0  0  0  0  0  0  0  0  0
   -0.6600    1.1486    0.4782 C   0  0  0  0  0  0  0  0  0  0  0  0
   -1.5001    1.7648   -0.1771 O   0  0  0  0  0  0  0  0  0  0  0  0
    0.1634    1.7559    1.3418 N   0  0  0  0  0  0  0  0  0  0  0  0
    0.8618    1.1897    1.8008 H   0  0  0  0  0  0  0  0  0  0  0  0
    0.1509    3.1886    1.6256 C   0  0  0  0  0  0  0  0  0  0  0  0
   -0.8272    3.4794    2.0152 H   0  0  0  0  0  0  0  0  0  0  0  0
    0.9172    3.4314    2.3624 H   0  0  0  0  0  0  0  0  0  0  0  0
    0.3414    3.7499    0.7095 H   0  0  0  0  0  0  0  0  0  0  0  0
  5  6  2  0  0  0  0
  5  7  1  0  0  0  0
  2  3  1  0  0  0  0
  2  4  1  0  0  0  0
  2  5  1  0  0  0  0
  1  2  1  0  0  0  0
 22 23  2  0  0  0  0
 22 24  1  0  0  0  0
 20 21  1  0  0  0  0
 19 20  1  0  0  0  0
 17 18  1  0  0  0  0
 17 19  2  0  0  0  0
 15 16  1  0  0  0  0
 15 17  1  0  0  0  0
 14 15  1  0  0  0  0
 14 20  2  0  0  0  0
 11 12  1  0  0  0  0
 11 13  1  0  0  0  0
 11 14  1  0  0  0  0
  9 10  1  0  0  0  0
  9 11  1  0  0  0  0
  9 22  1  0  0  0  0
  7  8  1  0  0  0  0
  7  9  1  0  0  0  0
 26 27  1  0  0  0  0
 26 28  1  0  0  0  0
 26 29  1  0  0  0  0
 24 25  1  0  0  0  0
 24 26  1  0  0  0  0
M  END
$$$$
default_name
  -OEChem-02102213163D

 29 29  0     1  0  0  0  0  0999 V2000
   -3.6042   -3.5728    1.4576 H   0  0  0  0  0  0  0  0  0  0  0  0
   -3.5202   -2.6488    0.8866 C   0  0  0  0  0  0  0  0  0  0  0  0
   -4.2052   -1.9048    1.2896 H   0  0  0  0  0  0  0  0  0  0  0  0
   -3.7552   -2.8428   -0.1584 H   0  0  0  0  0  0  0  0  0  0  0  0
   -2.1052   -2.1358    0.9946 C   0  0  0  0  0  0  0  0  0  0  0  0
   -1.2852   -2.7288    1.6826 O   0  0  0  0  0  0  0  0  0  0  0  0
   -1.8202   -1.0288    0.3146 N   0  0  0  0  0  0  0  0  0  0  0  0
   -2.5542   -0.5788   -0.2104 H   0  0  0  0  0  0  0  0  0  0  0  0
   -0.5102   -0.3728    0.3086 C   0  0  1  0  0  0  0  0  0  0  0  0
    0.0719   -0.7468    1.1521 H   0  0  0  0  0  0  0  0  0  0  0  0
    0.2338   -0.7427   -0.9878 C   0  0  0  0  0  0  0  0  0  0  0  0
    0.1115   -1.8105   -1.1777 H   0  0  0  0  0  0  0  0  0  0  0  0
   -0.2141   -0.2000   -1.8223 H   0  0  0  0  0  0  0  0  0  0  0  0
    1.7069   -0.4285   -0.9490 C   0  0  0  0  0  0  0  0  0  0  0  0
    2.7099   -1.2716   -0.5210 N   0  0  0  0  0  0  0  0  0  0  0  0
    2.5845   -2.1824   -0.1052 H   0  0  0  0  0  0  0  0  0  0  0  0
    3.8874   -0.6659   -0.7490 C   0  0  0  0  0  0  0  0  0  0  0  0
    4.8602   -1.0793   -0.5124 H   0  0  0  0  0  0  0  0  0  0  0  0
    3.6909    0.5317   -1.3194 N   0  0  0  0  0  0  0  0  0  0  0  0
    2.3092    0.6957   -1.4478 C   0  0  0  0  0  0  0  0  0  0  0  0
    1.8050    1.5428   -1.8948 H   0  0  0  0  0  0  0  0  0  0  0  0
   -0.6600    1.1486    0.4782 C   0  0  0  0  0  0  0  0  0  0  0  0
   -1.5001    1.7648   -0.1771 O   0  0  0  0  0  0  0  0  0  0  0  0
    0.1634    1.7559    1.3418 N   0  0  0  0  0  0  0  0  0  0  0  0
    0.8618    1.1897    1.8008 H   0  0  0  0  0  0  0  0  0  0  0  0
    0.1509    3.1886    1.6256 C   0  0  0  0  0  0  0  0  0  0  0  0
   -0.8272    3.4794    2.0152 H   0  0  0  0  0  0  0  0  0  0  0  0
    0.9172    3.4314    2.3624 H   0  0  0  0  0  0  0  0  0  0  0  0
    0.3414    3.7499    0.7095 H   0  0  0  0  0  0  0  0  0  0  0  0
  5  6  2  0  0  0  0
  5  7  1  0  0  0  0
  2  3  1  0  0  0  0
  2  4  1  0  0  0  0
  2  5  1  0  0  0  0
  1  2  1  0  0  0  0
 22 23  2  0  0  0  0
 22 24  1  0  0  0  0
 20 21  1  0  0  0  0
 19 20  1  0  0  0  0
 17 18  1  0  0  0  0
 17 19  2  0  0  0  0
 15 16  1  0  0  0  0
 15 17  1  0  0  0  0
 14 15  1  0  0  0  0
 14 20  2  0  0  0  0
 11 12  1  0  0  0  0
 11 13  1  0  0  0  0
 11 14  1  0  0  0  0
  9 10  1  0  0  0  0
  9 11  1  0  0  0  0
  9 22  1  0  0  0  0
  7  8  1  0  0  0  0
  7  9  1  0  0  0  0
 26 27  1  0  0  0  0
 26 28  1  0  0  0  0
 26 29  1  0  0  0  0
 24 25  1  0  0  0  0
 24 26  1  0  0  0  0
M  END
$$$$
default_name
  -OEChem-02102213163D

 29 29  0     1  0  0  0  0  0999 V2000
   -3.6042   -3.5728    1.4576 H   0  0  0  0  0  0  0  0  0  0  0  0
   -3.5202   -2.6488    0.8866 C   0  0  0  0  0  0  0  0  0  0  0  0
   -4.2052   -1.9048    1.2896 H   0  0  0  0  0  0  0  0  0  0  0  0
   -3.7552   -2.8428   -0.1584 H   0  0  0  0  0  0  0  0  0  0  0  0
   -2.1052   -2.1358    0.9946 C   0  0  0  0  0  0  0  0  0  0  0  0
   -1.2852   -2.7288    1.6826 O   0  0  0  0  0  0  0  0  0  0  0  0
   -1.8202   -1.0288    0.3146 N   0  0  0  0  0  0  0  0  0  0  0  0
   -2.5542   -0.5788   -0.2104 H   0  0  0  0  0  0  0  0  0  0  0  0
   -0.5102   -0.3728    0.3086 C   0  0  1  0  0  0  0  0  0  0  0  0
    0.0719   -0.7468    1.1521 H   0  0  0  0  0  0  0  0  0  0  0  0
    0.2338   -0.7427   -0.9878 C   0  0  0  0  0  0  0  0  0  0  0  0
    0.1115   -1.8105   -1.1777 H   0  0  0  0  0  0  0  0  0  0  0  0
   -0.2141   -0.2000   -1.8223 H   0  0  0  0  0  0  0  0  0  0  0  0
    1.7069   -0.4285   -0.9490 C   0  0  0  0  0  0  0  0  0  0  0  0
    2.7316   -1.3387   -0.8023 N   0  0  0  0  0  0  0  0  0  0  0  0
    2.6289   -2.3266   -0.6246 H   0  0  0  0  0  0  0  0  0  0  0  0
    3.8950   -0.6791   -0.9318 C   0  0  0  0  0  0  0  0  0  0  0  0
    4.8792   -1.1256   -0.8596 H   0  0  0  0  0  0  0  0  0  0  0  0
    3.6679    0.6211   -1.1691 N   0  0  0  0  0  0  0  0  0  0  0  0
    2.2812    0.7934   -1.1781 C   0  0  0  0  0  0  0  0  0  0  0  0
    1.7535    1.7190   -1.3686 H   0  0  0  0  0  0  0  0  0  0  0  0
   -0.6600    1.1486    0.4782 C   0  0  0  0  0  0  0  0  0  0  0  0
   -1.5001    1.7648   -0.1771 O   0  0  0  0  0  0  0  0  0  0  0  0
    0.1634    1.7559    1.3418 N   0  0  0  0  0  0  0  0  0  0  0  0
    0.8618    1.1897    1.8008 H   0  0  0  0  0  0  0  0  0  0  0  0
    0.1509    3.1886    1.6256 C   0  0  0  0  0  0  0  0  0  0  0  0
   -0.8272    3.4794    2.0152 H   0  0  0  0  0  0  0  0  0  0  0  0
    0.9172    3.4314    2.3624 H   0  0  0  0  0  0  0  0  0  0  0  0
    0.3414    3.7499    0.7095 H   0  0  0  0  0  0  0  0  0  0  0  0
  5  6  2  0  0  0  0
  5  7  1  0  0  0  0
  2  3  1  0  0  0  0
  2  4  1  0  0  0  0
  2  5  1  0  0  0  0
  1  2  1  0  0  0  0
 22 23  2  0  0  0  0
 22 24  1  0  0  0  0
 20 21  1  0  0  0  0
 19 20  1  0  0  0  0
 17 18  1  0  0  0  0
 17 19  2  0  0  0  0
 15 16  1  0  0  0  0
 15 17  1  0  0  0  0
 14 15  1  0  0  0  0
 14 20  2  0  0  0  0
 11 12  1  0  0  0  0
 11 13  1  0  0  0  0
 11 14  1  0  0  0  0
  9 10  1  0  0  0  0
  9 11  1  0  0  0  0
  9 22  1  0  0  0  0
  7  8  1  0  0  0  0
  7  9  1  0  0  0  0
 26 27  1  0  0  0  0
 26 28  1  0  0  0  0
 26 29  1  0  0  0  0
 24 25  1  0  0  0  0
 24 26  1  0  0  0  0
M  END
$$$$
default_name
  -OEChem-02102213163D

 29 29  0     1  0  0  0  0  0999 V2000
   -3.6042   -3.5728    1.4576 H   0  0  0  0  0  0  0  0  0  0  0  0
   -3.5202   -2.6488    0.8866 C   0  0  0  0  0  0  0  0  0  0  0  0
   -4.2052   -1.9048    1.2896 H   0  0  0  0  0  0  0  0  0  0  0  0
   -3.7552   -2.8428   -0.1584 H   0  0  0  0  0  0  0  0  0  0  0  0
   -2.1052   -2.1358    0.9946 C   0  0  0  0  0  0  0  0  0  0  0  0
   -1.2852   -2.7288    1.6826 O   0  0  0  0  0  0  0  0  0  0  0  0
   -1.8202   -1.0288    0.3146 N   0  0  0  0  0  0  0  0  0  0  0  0
   -2.5542   -0.5788   -0.2104 H   0  0  0  0  0  0  0  0  0  0  0  0
   -0.5102   -0.3728    0.3086 C   0  0  1  0  0  0  0  0  0  0  0  0
    0.0719   -0.7468    1.1521 H   0  0  0  0  0  0  0  0  0  0  0  0
    0.2338   -0.7427   -0.9878 C   0  0  0  0  0  0  0  0  0  0  0  0
    0.1115   -1.8105   -1.1777 H   0  0  0  0  0  0  0  0  0  0  0  0
   -0.2141   -0.2000   -1.8223 H   0  0  0  0  0  0  0  0  0  0  0  0
    1.7069   -0.4285   -0.9490 C   0  0  0  0  0  0  0  0  0  0  0  0
    2.7379   -1.3322   -1.0922 N   0  0  0  0  0  0  0  0  0  0  0  0
    2.6448   -2.3342   -1.1653 H   0  0  0  0  0  0  0  0  0  0  0  0
    3.8926   -0.6455   -1.1121 C   0  0  0  0  0  0  0  0  0  0  0  0
    4.8792   -1.0823   -1.2076 H   0  0  0  0  0  0  0  0  0  0  0  0
    3.6531    0.6692   -1.0000 N   0  0  0  0  0  0  0  0  0  0  0  0
    2.2681    0.8193   -0.8914 C   0  0  0  0  0  0  0  0  0  0  0  0
    1.7311    1.7557   -0.8130 H   0  0  0  0  0  0  0  0  0  0  0  0
   -0.6600    1.1486    0.4782 C   0  0  0  0  0  0  0  0  0  0  0  0
   -1.5001    1.7648   -0.1771 O   0  0  0  0  0  0  0  0  0  0  0  0
    0.1634    1.7559    1.3418 N   0  0  0  0  0  0  0  0  0  0  0  0
    0.8618    1.1897    1.8008 H   0  0  0  0  0  0  0  0  0  0  0  0
    0.1509    3.1886    1.6256 C   0  0  0  0  0  0  0  0  0  0  0  0
   -0.8272    3.4794    2.0152 H   0  0  0  0  0  0  0  0  0  0  0  0
    0.9172    3.4314    2.3624 H   0  0  0  0  0  0  0  0  0  0  0  0
    0.3414    3.7499    0.7095 H   0  0  0  0  0  0  0  0  0  0  0  0
  5  6  2  0  0  0  0
  5  7  1  0  0  0  0
  2  3  1  0  0  0  0
  2  4  1  0  0  0  0
  2  5  1  0  0  0  0
  1  2  1  0  0  0  0
 22 23  2  0  0  0  0
 22 24  1  0  0  0  0
 20 21  1  0  0  0  0
 19 20  1  0  0  0  0
 17 18  1  0  0  0  0
 17 19  2  0  0  0  0
 15 16  1  0  0  0  0
 15 17  1  0  0  0  0
 14 15  1  0  0  0  0
 14 20  2  0  0  0  0
 11 12  1  0  0  0  0
 11 13  1  0  0  0  0
 11 14  1  0  0  0  0
  9 10  1  0  0  0  0
  9 11  1  0  0  0  0
  9 22  1  0  0  0  0
  7  8  1  0  0  0  0
  7  9  1  0  0  0  0
 26 27  1  0  0  0  0
 26 28  1  0  0  0  0
 26 29  1  0  0  0  0
 24 25  1  0  0  0  0
 24 26  1  0  0  0  0
M  END
$$$$
default_name
  -OEChem-02102213163D

 29 29  0     1  0  0  0  0  0999 V2000
   -3.6042   -3.5728    1.4576 H   0  0  0  0  0  0  0  0  0  0  0  0
   -3.5202   -2.6488    0.8866 C   0  0  0  0  0  0  0  0  0  0  0  0
   -4.2052   -1.9048    1.2896 H   0  0  0  0  0  0  0  0  0  0  0  0
   -3.7552   -2.8428   -0.1584 H   0  0  0  0  0  0  0  0  0  0  0  0
   -2.1052   -2.1358    0.9946 C   0  0  0  0  0  0  0  0  0  0  0  0
   -1.2852   -2.7288    1.6826 O   0  0  0  0  0  0  0  0  0  0  0  0
   -1.8202   -1.0288    0.3146 N   0  0  0  0  0  0  0  0  0  0  0  0
   -2.5542   -0.5788   -0.2104 H   0  0  0  0  0  0  0  0  0  0  0  0
   -0.5102   -0.3728    0.3086 C   0  0  1  0  0  0  0  0  0  0  0  0
    0.0719   -0.7468    1.1521 H   0  0  0  0  0  0  0  0  0  0  0  0
    0.2338   -0.7427   -0.9878 C   0  0  0  0  0  0  0  0  0  0  0  0
    0.1115   -1.8105   -1.1777 H   0  0  0  0  0  0  0  0  0  0  0  0
   -0.2141   -0.2000   -1.8223 H   0  0  0  0  0  0  0  0  0  0  0  0
    1.7069   -0.4285   -0.9490 C   0  0  0  0  0  0  0  0  0  0  0  0
    2.7282   -1.2525   -1.3709 N   0  0  0  0  0  0  0  0  0  0  0  0
    2.6310   -2.2046   -1.6904 H   0  0  0  0  0  0  0  0  0  0  0  0
    3.8803   -0.5674   -1.2776 C   0  0  0  0  0  0  0  0  0  0  0  0
    4.8600   -0.9524   -1.5329 H   0  0  0  0  0  0  0  0  0  0  0  0
    3.6477    0.6728   -0.8237 N   0  0  0  0  0  0  0  0  0  0  0  0
    2.2708    0.7717   -0.6072 C   0  0  0  0  0  0  0  0  0  0  0  0
    1.7391    1.6505   -0.2658 H   0  0  0  0  0  0  0  0  0  0  0  0
   -0.6600    1.1486    0.4782 C   0  0  0  0  0  0  0  0  0  0  0  0
   -1.5001    1.7648   -0.1771 O   0  0  0  0  0  0  0  0  0  0  0  0
    0.1634    1.7559    1.3418 N   0  0  0  0  0  0  0  0  0  0  0  0
    0.8618    1.1897    1.8008 H   0  0  0  0  0  0  0  0  0  0  0  0
    0.1509    3.1886    1.6256 C   0  0  0  0  0  0  0  0  0  0  0  0
   -0.8272    3.4794    2.0152 H   0  0  0  0  0  0  0  0  0  0  0  0
    0.9172    3.4314    2.3624 H   0  0  0  0  0  0  0  0  0  0  0  0
    0.3414    3.7499    0.7095 H   0  0  0  0  0  0  0  0  0  0  0  0
  5  6  2  0  0  0  0
  5  7  1  0  0  0  0
  2  3  1  0  0  0  0
  2  4  1  0  0  0  0
  2  5  1  0  0  0  0
  1  2  1  0  0  0  0
 22 23  2  0  0  0  0
 22 24  1  0  0  0  0
 20 21  1  0  0  0  0
 19 20  1  0  0  0  0
 17 18  1  0  0  0  0
 17 19  2  0  0  0  0
 15 16  1  0  0  0  0
 15 17  1  0  0  0  0
 14 15  1  0  0  0  0
 14 20  2  0  0  0  0
 11 12  1  0  0  0  0
 11 13  1  0  0  0  0
 11 14  1  0  0  0  0
  9 10  1  0  0  0  0
  9 11  1  0  0  0  0
  9 22  1  0  0  0  0
  7  8  1  0  0  0  0
  7  9  1  0  0  0  0
 26 27  1  0  0  0  0
 26 28  1  0  0  0  0
 26 29  1  0  0  0  0
 24 25  1  0  0  0  0
 24 26  1  0  0  0  0
M  END
$$$$
default_name
  -OEChem-02102213163D

 29 29  0     1  0  0  0  0  0999 V2000
   -3.6042   -3.5728    1.4576 H   0  0  0  0  0  0  0  0  0  0  0  0
   -3.5202   -2.6488    0.8866 C   0  0  0  0  0  0  0  0  0  0  0  0
   -4.2052   -1.9048    1.2896 H   0  0  0  0  0  0  0  0  0  0  0  0
   -3.7552   -2.8428   -0.1584 H   0  0  0  0  0  0  0  0  0  0  0  0
   -2.1052   -2.1358    0.9946 C   0  0  0  0  0  0  0  0  0  0  0  0
   -1.2852   -2.7288    1.6826 O   0  0  0  0  0  0  0  0  0  0  0  0
   -1.8202   -1.0288    0.3146 N   0  0  0  0  0  0  0  0  0  0  0  0
   -2.5542   -0.5788   -0.2104 H   0  0  0  0  0  0  0  0  0  0  0  0
   -0.5102   -0.3728    0.3086 C   0  0  1  0  0  0  0  0  0  0  0  0
    0.0719   -0.7468    1.1521 H   0  0  0  0  0  0  0  0  0  0  0  0
    0.2338   -0.7427   -0.9878 C   0  0  0  0  0  0  0  0  0  0  0  0
    0.1115   -1.8105   -1.1777 H   0  0  0  0  0  0  0  0  0  0  0  0
   -0.2141   -0.2000   -1.8223 H   0  0  0  0  0  0  0  0  0  0  0  0
    1.7069   -0.4285   -0.9490 C   0  0  0  0  0  0  0  0  0  0  0  0
    2.7033   -1.1050   -1.6195 N   0  0  0  0  0  0  0  0  0  0  0  0
    2.5884   -1.9467   -2.1640 H   0  0  0  0  0  0  0  0  0  0  0  0
    3.8590   -0.4502   -1.4170 C   0  0  0  0  0  0  0  0  0  0  0  0
    4.8231   -0.7447   -1.8132 H   0  0  0  0  0  0  0  0  0  0  0  0
    3.6520    0.6317   -0.6521 N   0  0  0  0  0  0  0  0  0  0  0  0
    2.2890    0.6539   -0.3449 C   0  0  0  0  0  0  0  0  0  0  0  0
    1.7771    1.4104    0.2356 H   0  0  0  0  0  0  0  0  0  0  0  0
   -0.6600    1.1486    0.4782 C   0  0  0  0  0  0  0  0  0  0  0  0
   -1.5001    1.7648   -0.1771 O   0  0  0  0  0  0  0  0  0  0  0  0
    0.1634    1.7559    1.3418 N   0  0  0  0  0  0  0  0  0  0  0  0
    0.8618    1.1897    1.8008 H   0  0  0  0  0  0  0  0  0  0  0  0
    0.1509    3.1886    1.6256 C   0  0  0  0  0  0  0  0  0  0  0  0
   -0.8272    3.4794    2.0152 H   0  0  0  0  0  0  0  0  0  0  0  0
    0.9172    3.4314    2.3624 H   0  0  0  0  0  0  0  0  0  0  0  0
    0.3414    3.7499    0.7095 H   0  0  0  0  0  0  0  0  0  0  0  0
  5  6  2  0  0  0  0
  5  7  1  0  0  0  0
  2  3  1  0  0  0  0
  2  4  1  0  0  0  0
  2  5  1  0  0  0  0
  1  2  1  0  0  0  0
 22 23  2  0  0  0  0
 22 24  1  0  0  0  0
 20 21  1  0  0  0  0
 19 20  1  0  0  0  0
 17 18  1  0  0  0  0
 17 19  2  0  0  0  0
 15 16  1  0  0  0  0
 15 17  1  0  0  0  0
 14 15  1  0  0  0  0
 14 20  2  0  0  0  0
 11 12  1  0  0  0  0
 11 13  1  0  0  0  0
 11 14  1  0  0  0  0
  9 10  1  0  0  0  0
  9 11  1  0  0  0  0
  9 22  1  0  0  0  0
  7  8  1  0  0  0  0
  7  9  1  0  0  0  0
 26 27  1  0  0  0  0
 26 28  1  0  0  0  0
 26 29  1  0  0  0  0
 24 25  1  0  0  0  0
 24 26  1  0  0  0  0
M  END
$$$$
default_name
  -OEChem-02102213163D

 29 29  0     1  0  0  0  0  0999 V2000
   -3.6042   -3.5728    1.4576 H   0  0  0  0  0  0  0  0  0  0  0  0
   -3.5202   -2.6488    0.8866 C   0  0  0  0  0  0  0  0  0  0  0  0
   -4.2052   -1.9048    1.2896 H   0  0  0  0  0  0  0  0  0  0  0  0
   -3.7552   -2.8428   -0.1584 H   0  0  0  0  0  0  0  0  0  0  0  0
   -2.1052   -2.1358    0.9946 C   0  0  0  0  0  0  0  0  0  0  0  0
   -1.2852   -2.7288    1.6826 O   0  0  0  0  0  0  0  0  0  0  0  0
   -1.8202   -1.0288    0.3146 N   0  0  0  0  0  0  0  0  0  0  0  0
   -2.5542   -0.5788   -0.2104 H   0  0  0  0  0  0  0  0  0  0  0  0
   -0.5102   -0.3728    0.3086 C   0  0  1  0  0  0  0  0  0  0  0  0
    0.0719   -0.7468    1.1521 H   0  0  0  0  0  0  0  0  0  0  0  0
    0.2338   -0.7427   -0.9878 C   0  0  0  0  0  0  0  0  0  0  0  0
    0.1115   -1.8105   -1.1777 H   0  0  0  0  0  0  0  0  0  0  0  0
   -0.2141   -0.2000   -1.8223 H   0  0  0  0  0  0  0  0  0  0  0  0
    1.7069   -0.4285   -0.9490 C   0  0  0  0  0  0  0  0  0  0  0  0
    2.6648   -0.8999   -1.8209 N   0  0  0  0  0  0  0  0  0  0  0  0
    2.5201   -1.5780   -2.5539 H   0  0  0  0  0  0  0  0  0  0  0  0
    3.8301   -0.3018   -1.5209 C   0  0  0  0  0  0  0  0  0  0  0  0
    4.7709   -0.4735   -2.0294 H   0  0  0  0  0  0  0  0  0  0  0  0
    3.6656    0.5485   -0.4971 N   0  0  0  0  0  0  0  0  0  0  0  0
    2.3216    0.4738   -0.1223 C   0  0  0  0  0  0  0  0  0  0  0  0
    1.8425    1.0519    0.6572 H   0  0  0  0  0  0  0  0  0  0  0  0
   -0.6600    1.1486    0.4782 C   0  0  0  0  0  0  0  0  0  0  0  0
   -1.5001    1.7648   -0.1771 O   0  0  0  0  0  0  0  0  0  0  0  0
    0.1634    1.7559    1.3418 N   0  0  0  0  0  0  0  0  0  0  0  0
    0.8618    1.1897    1.8008 H   0  0  0  0  0  0  0  0  0  0  0  0
    0.1509    3.1886    1.6256 C   0  0  0  0  0  0  0  0  0  0  0  0
   -0.8272    3.4794    2.0152 H   0  0  0  0  0  0  0  0  0  0  0  0
    0.9172    3.4314    2.3624 H   0  0  0  0  0  0  0  0  0  0  0  0
    0.3414    3.7499    0.7095 H   0  0  0  0  0  0  0  0  0  0  0  0
  5  6  2  0  0  0  0
  5  7  1  0  0  0  0
  2  3  1  0  0  0  0
  2  4  1  0  0  0  0
  2  5  1  0  0  0  0
  1  2  1  0  0  0  0
 22 23  2  0  0  0  0
 22 24  1  0  0  0  0
 20 21  1  0  0  0  0
 19 20  1  0  0  0  0
 17 18  1  0  0  0  0
 17 19  2  0  0  0  0
 15 16  1  0  0  0  0
 15 17  1  0  0  0  0
 14 15  1  0  0  0  0
 14 20  2  0  0  0  0
 11 12  1  0  0  0  0
 11 13  1  0  0  0  0
 11 14  1  0  0  0  0
  9 10  1  0  0  0  0
  9 11  1  0  0  0  0
  9 22  1  0  0  0  0
  7  8  1  0  0  0  0
  7  9  1  0  0  0  0
 26 27  1  0  0  0  0
 26 28  1  0  0  0  0
 26 29  1  0  0  0  0
 24 25  1  0  0  0  0
 24 26  1  0  0  0  0
M  END
$$$$
default_name
  -OEChem-02102213163D

 29 29  0     1  0  0  0  0  0999 V2000
   -3.6042   -3.5728    1.4576 H   0  0  0  0  0  0  0  0  0  0  0  0
   -3.5202   -2.6488    0.8866 C   0  0  0  0  0  0  0  0  0  0  0  0
   -4.2052   -1.9048    1.2896 H   0  0  0  0  0  0  0  0  0  0  0  0
   -3.7552   -2.8428   -0.1584 H   0  0  0  0  0  0  0  0  0  0  0  0
   -2.1052   -2.1358    0.9946 C   0  0  0  0  0  0  0  0  0  0  0  0
   -1.2852   -2.7288    1.6826 O   0  0  0  0  0  0  0  0  0  0  0  0
   -1.8202   -1.0288    0.3146 N   0  0  0  0  0  0  0  0  0  0  0  0
   -2.5542   -0.5788   -0.2104 H   0  0  0  0  0  0  0  0  0  0  0  0
   -0.5102   -0.3728    0.3086 C   0  0  1  0  0  0  0  0  0  0  0  0
    0.0719   -0.7468    1.1521 H   0  0  0  0  0  0  0  0  0  0  0  0
    0.2338   -0.7427   -0.9878 C   0  0  0  0  0  0  0  0  0  0  0  0
   -0.0993   -1.7267   -1.3227 H   0  0  0  0  0  0  0  0  0  0  0  0
   -0.0229   -0.0195   -1.7641 H   0  0  0  0  0  0  0  0  0  0  0  0
    1.7327   -0.7700   -0.8368 C   0  0  0  0  0  0  0  0  0  0  0  0
    2.6469   -1.0673   -1.8246 N   0  0  0  0  0  0  0  0  0  0  0  0
    2.4320   -1.3807   -2.7593 H   0  0  0  0  0  0  0  0  0  0  0  0
    3.8783   -0.8720   -1.3236 C   0  0  0  0  0  0  0  0  0  0  0  0
    4.8052   -1.0290   -1.8617 H   0  0  0  0  0  0  0  0  0  0  0  0
    3.8012   -0.4479   -0.0538 N   0  0  0  0  0  0  0  0  0  0  0  0
    2.4430   -0.3832    0.2683 C   0  0  0  0  0  0  0  0  0  0  0  0
    2.0247   -0.0516    1.2098 H   0  0  0  0  0  0  0  0  0  0  0  0
   -0.6600    1.1486    0.4782 C   0  0  0  0  0  0  0  0  0  0  0  0
   -1.5001    1.7648   -0.1771 O   0  0  0  0  0  0  0  0  0  0  0  0
    0.1634    1.7559    1.3418 N   0  0  0  0  0  0  0  0  0  0  0  0
    0.8618    1.1897    1.8008 H   0  0  0  0  0  0  0  0  0  0  0  0
    0.1509    3.1886    1.6256 C   0  0  0  0  0  0  0  0  0  0  0  0
   -0.8272    3.4794    2.0152 H   0  0  0  0  0  0  0  0  0  0  0  0
    0.9172    3.4314    2.3624 H   0  0  0  0  0  0  0  0  0  0  0  0
    0.3414    3.7499    0.7095 H   0  0  0  0  0  0  0  0  0  0  0  0
  5  6  2  0  0  0  0
  5  7  1  0  0  0  0
  2  3  1  0  0  0  0
  2  4  1  0  0  0  0
  2  5  1  0  0  0  0
  1  2  1  0  0  0  0
 22 23  2  0  0  0  0
 22 24  1  0  0  0  0
 20 21  1  0  0  0  0
 19 20  1  0  0  0  0
 17 18  1  0  0  0  0
 17 19  2  0  0  0  0
 15 16  1  0  0  0  0
 15 17  1  0  0  0  0
 14 15  1  0  0  0  0
 14 20  2  0  0  0  0
 11 12  1  0  0  0  0
 11 13  1  0  0  0  0
 11 14  1  0  0  0  0
  9 10  1  0  0  0  0
  9 11  1  0  0  0  0
  9 22  1  0  0  0  0
  7  8  1  0  0  0  0
  7  9  1  0  0  0  0
 26 27  1  0  0  0  0
 26 28  1  0  0  0  0
 26 29  1  0  0  0  0
 24 25  1  0  0  0  0
 24 26  1  0  0  0  0
M  END
$$$$
default_name
  -OEChem-02102213163D

 29 29  0     1  0  0  0  0  0999 V2000
   -3.6042   -3.5728    1.4576 H   0  0  0  0  0  0  0  0  0  0  0  0
   -3.5202   -2.6488    0.8866 C   0  0  0  0  0  0  0  0  0  0  0  0
   -4.2052   -1.9048    1.2896 H   0  0  0  0  0  0  0  0  0  0  0  0
   -3.7552   -2.8428   -0.1584 H   0  0  0  0  0  0  0  0  0  0  0  0
   -2.1052   -2.1358    0.9946 C   0  0  0  0  0  0  0  0  0  0  0  0
   -1.2852   -2.7288    1.6826 O   0  0  0  0  0  0  0  0  0  0  0  0
   -1.8202   -1.0288    0.3146 N   0  0  0  0  0  0  0  0  0  0  0  0
   -2.5542   -0.5788   -0.2104 H   0  0  0  0  0  0  0  0  0  0  0  0
   -0.5102   -0.3728    0.3086 C   0  0  1  0  0  0  0  0  0  0  0  0
    0.0719   -0.7468    1.1521 H   0  0  0  0  0  0  0  0  0  0  0  0
    0.2338   -0.7427   -0.9878 C   0  0  0  0  0  0  0  0  0  0  0  0
   -0.0993   -1.7267   -1.3227 H   0  0  0  0  0  0  0  0  0  0  0  0
   -0.0229   -0.0195   -1.7641 H   0  0  0  0  0  0  0  0  0  0  0  0
    1.7327   -0.7700   -0.8368 C   0  0  0  0  0  0  0  0  0  0  0  0
    2.6558   -0.7796   -1.8604 N   0  0  0  0  0  0  0  0  0  0  0  0
    2.4504   -0.8471   -2.8461 H   0  0  0  0  0  0  0  0  0  0  0  0
    3.8809   -0.6888   -1.3161 C   0  0  0  0  0  0  0  0  0  0  0  0
    4.8123   -0.6784   -1.8689 H   0  0  0  0  0  0  0  0  0  0  0  0
    3.7909   -0.6081    0.0194 N   0  0  0  0  0  0  0  0  0  0  0  0
    2.4311   -0.6629    0.3363 C   0  0  0  0  0  0  0  0  0  0  0  0
    2.0029   -0.5957    1.3281 H   0  0  0  0  0  0  0  0  0  0  0  0
   -0.6600    1.1486    0.4782 C   0  0  0  0  0  0  0  0  0  0  0  0
   -1.5001    1.7648   -0.1771 O   0  0  0  0  0  0  0  0  0  0  0  0
    0.1634    1.7559    1.3418 N   0  0  0  0  0  0  0  0  0  0  0  0
    0.8618    1.1897    1.8008 H   0  0  0  0  0  0  0  0  0  0  0  0
    0.1509    3.1886    1.6256 C   0  0  0  0  0  0  0  0  0  0  0  0
   -0.8272    3.4794    2.0152 H   0  0  0  0  0  0  0  0  0  0  0  0
    0.9172    3.4314    2.3624 H   0  0  0  0  0  0  0  0  0  0  0  0
    0.3414    3.7499    0.7095 H   0  0  0  0  0  0  0  0  0  0  0  0
  5  6  2  0  0  0  0
  5  7  1  0  0  0  0
  2  3  1  0  0  0  0
  2  4  1  0  0  0  0
  2  5  1  0  0  0  0
  1  2  1  0  0  0  0
 22 23  2  0  0  0  0
 22 24  1  0  0  0  0
 20 21  1  0  0  0  0
 19 20  1  0  0  0  0
 17 18  1  0  0  0  0
 17 19  2  0  0  0  0
 15 16  1  0  0  0  0
 15 17  1  0  0  0  0
 14 15  1  0  0  0  0
 14 20  2  0  0  0  0
 11 12  1  0  0  0  0
 11 13  1  0  0  0  0
 11 14  1  0  0  0  0
  9 10  1  0  0  0  0
  9 11  1  0  0  0  0
  9 22  1  0  0  0  0
  7  8  1  0  0  0  0
  7  9  1  0  0  0  0
 26 27  1  0  0  0  0
 26 28  1  0  0  0  0
 26 29  1  0  0  0  0
 24 25  1  0  0  0  0
 24 26  1  0  0  0  0
M  END
$$$$
default_name
  -OEChem-02102213163D

 29 29  0     1  0  0  0  0  0999 V2000
   -3.6042   -3.5728    1.4576 H   0  0  0  0  0  0  0  0  0  0  0  0
   -3.5202   -2.6488    0.8866 C   0  0  0  0  0  0  0  0  0  0  0  0
   -4.2052   -1.9048    1.2896 H   0  0  0  0  0  0  0  0  0  0  0  0
   -3.7552   -2.8428   -0.1584 H   0  0  0  0  0  0  0  0  0  0  0  0
   -2.1052   -2.1358    0.9946 C   0  0  0  0  0  0  0  0  0  0  0  0
   -1.2852   -2.7288    1.6826 O   0  0  0  0  0  0  0  0  0  0  0  0
   -1.8202   -1.0288    0.3146 N   0  0  0  0  0  0  0  0  0  0  0  0
   -2.5542   -0.5788   -0.2104 H   0  0  0  0  0  0  0  0  0  0  0  0
   -0.5102   -0.3728    0.3086 C   0  0  1  0  0  0  0  0  0  0  0  0
    0.0719   -0.7468    1.1521 H   0  0  0  0  0  0  0  0  0  0  0  0
    0.2338   -0.7427   -0.9878 C   0  0  0  0  0  0  0  0  0  0  0  0
   -0.0993   -1.7267   -1.3227 H   0  0  0  0  0  0  0  0  0  0  0  0
   -0.0229   -0.0195   -1.7641 H   0  0  0  0  0  0  0  0  0  0  0  0
    1.7327   -0.7700   -0.8368 C   0  0  0  0  0  0  0  0  0  0  0  0
    2.6570   -0.4922   -1.8209 N   0  0  0  0  0  0  0  0  0  0  0  0
    2.4548   -0.3088   -2.7923 H   0  0  0  0  0  0  0  0  0  0  0  0
    3.8786   -0.5137   -1.2617 C   0  0  0  0  0  0  0  0  0  0  0  0
    4.8101   -0.3377   -1.7857 H   0  0  0  0  0  0  0  0  0  0  0  0
    3.7848   -0.7820    0.0488 N   0  0  0  0  0  0  0  0  0  0  0  0
    2.4265   -0.9510    0.3299 C   0  0  0  0  0  0  0  0  0  0  0  0
    1.9954   -1.1523    1.3021 H   0  0  0  0  0  0  0  0  0  0  0  0
   -0.6600    1.1486    0.4782 C   0  0  0  0  0  0  0  0  0  0  0  0
   -1.5001    1.7648   -0.1771 O   0  0  0  0  0  0  0  0  0  0  0  0
    0.1634    1.7559    1.3418 N   0  0  0  0  0  0  0  0  0  0  0  0
    0.8618    1.1897    1.8008 H   0  0  0  0  0  0  0  0  0  0  0  0
    0.1509    3.1886    1.6256 C   0  0  0  0  0  0  0  0  0  0  0  0
   -0.8272    3.4794    2.0152 H   0  0  0  0  0  0  0  0  0  0  0  0
    0.9172    3.4314    2.3624 H   0  0  0  0  0  0  0  0  0  0  0  0
    0.3414    3.7499    0.7095 H   0  0  0  0  0  0  0  0  0  0  0  0
  5  6  2  0  0  0  0
  5  7  1  0  0  0  0
  2  3  1  0  0  0  0
  2  4  1  0  0  0  0
  2  5  1  0  0  0  0
  1  2  1  0  0  0  0
 22 23  2  0  0  0  0
 22 24  1  0  0  0  0
 20 21  1  0  0  0  0
 19 20  1  0  0  0  0
 17 18  1  0  0  0  0
 17 19  2  0  0  0  0
 15 16  1  0  0  0  0
 15 17  1  0  0  0  0
 14 15  1  0  0  0  0
 14 20  2  0  0  0  0
 11 12  1  0  0  0  0
 11 13  1  0  0  0  0
 11 14  1  0  0  0  0
  9 10  1  0  0  0  0
  9 11  1  0  0  0  0
  9 22  1  0  0  0  0
  7  8  1  0  0  0  0
  7  9  1  0  0  0  0
 26 27  1  0  0  0  0
 26 28  1  0  0  0  0
 26 29  1  0  0  0  0
 24 25  1  0  0  0  0
 24 26  1  0  0  0  0
M  END
$$$$
default_name
  -OEChem-02102213163D

 29 29  0     1  0  0  0  0  0999 V2000
   -3.6042   -3.5728    1.4576 H   0  0  0  0  0  0  0  0  0  0  0  0
   -3.5202   -2.6488    0.8866 C   0  0  0  0  0  0  0  0  0  0  0  0
   -4.2052   -1.9048    1.2896 H   0  0  0  0  0  0  0  0  0  0  0  0
   -3.7552   -2.8428   -0.1584 H   0  0  0  0  0  0  0  0  0  0  0  0
   -2.1052   -2.1358    0.9946 C   0  0  0  0  0  0  0  0  0  0  0  0
   -1.2852   -2.7288    1.6826 O   0  0  0  0  0  0  0  0  0  0  0  0
   -1.8202   -1.0288    0.3146 N   0  0  0  0  0  0  0  0  0  0  0  0
   -2.5542   -0.5788   -0.2104 H   0  0  0  0  0  0  0  0  0  0  0  0
   -0.5102   -0.3728    0.3086 C   0  0  1  0  0  0  0  0  0  0  0  0
    0.0719   -0.7468    1.1521 H   0  0  0  0  0  0  0  0  0  0  0  0
    0.2338   -0.7427   -0.9878 C   0  0  0  0  0  0  0  0  0  0  0  0
   -0.0993   -1.7267   -1.3227 H   0  0  0  0  0  0  0  0  0  0  0  0
   -0.0229   -0.0195   -1.7641 H   0  0  0  0  0  0  0  0  0  0  0  0
    1.7327   -0.7700   -0.8368 C   0  0  0  0  0  0  0  0  0  0  0  0
    2.6506   -0.2248   -1.7088 N   0  0  0  0  0  0  0  0  0  0  0  0
    2.4448    0.1974   -2.6018 H   0  0  0  0  0  0  0  0  0  0  0  0
    3.8715   -0.3586   -1.1641 C   0  0  0  0  0  0  0  0  0  0  0  0
    4.7987   -0.0301   -1.6175 H   0  0  0  0  0  0  0  0  0  0  0  0
    3.7832   -0.9576    0.0324 N   0  0  0  0  0  0  0  0  0  0  0  0
    2.4296   -1.2277    0.2496 C   0  0  0  0  0  0  0  0  0  0  0  0
    2.0027   -1.6835    1.1336 H   0  0  0  0  0  0  0  0  0  0  0  0
   -0.6600    1.1486    0.4782 C   0  0  0  0  0  0  0  0  0  0  0  0
   -1.5001    1.7648   -0.1771 O   0  0  0  0  0  0  0  0  0  0  0  0
    0.1634    1.7559    1.3418 N   0  0  0  0  0  0  0  0  0  0  0  0
    0.8618    1.1897    1.8008 H   0  0  0  0  0  0  0  0  0  0  0  0
    0.1509    3.1886    1.6256 C   0  0  0  0  0  0  0  0  0  0  0  0
   -0.8272    3.4794    2.0152 H   0  0  0  0  0  0  0  0  0  0  0  0
    0.9172    3.4314    2.3624 H   0  0  0  0  0  0  0  0  0  0  0  0
    0.3414    3.7499    0.7095 H   0  0  0  0  0  0  0  0  0  0  0  0
  5  6  2  0  0  0  0
  5  7  1  0  0  0  0
  2  3  1  0  0  0  0
  2  4  1  0  0  0  0
  2  5  1  0  0  0  0
  1  2  1  0  0  0  0
 22 23  2  0  0  0  0
 22 24  1  0  0  0  0
 20 21  1  0  0  0  0
 19 20  1  0  0  0  0
 17 18  1  0  0  0  0
 17 19  2  0  0  0  0
 15 16  1  0  0  0  0
 15 17  1  0  0  0  0
 14 15  1  0  0  0  0
 14 20  2  0  0  0  0
 11 12  1  0  0  0  0
 11 13  1  0  0  0  0
 11 14  1  0  0  0  0
  9 10  1  0  0  0  0
  9 11  1  0  0  0  0
  9 22  1  0  0  0  0
  7  8  1  0  0  0  0
  7  9  1  0  0  0  0
 26 27  1  0  0  0  0
 26 28  1  0  0  0  0
 26 29  1  0  0  0  0
 24 25  1  0  0  0  0
 24 26  1  0  0  0  0
M  END
$$$$
default_name
  -OEChem-02102213163D

 29 29  0     1  0  0  0  0  0999 V2000
   -3.6042   -3.5728    1.4576 H   0  0  0  0  0  0  0  0  0  0  0  0
   -3.5202   -2.6488    0.8866 C   0  0  0  0  0  0  0  0  0  0  0  0
   -4.2052   -1.9048    1.2896 H   0  0  0  0  0  0  0  0  0  0  0  0
   -3.7552   -2.8428   -0.1584 H   0  0  0  0  0  0  0  0  0  0  0  0
   -2.1052   -2.1358    0.9946 C   0  0  0  0  0  0  0  0  0  0  0  0
   -1.2852   -2.7288    1.6826 O   0  0  0  0  0  0  0  0  0  0  0  0
   -1.8202   -1.0288    0.3146 N   0  0  0  0  0  0  0  0  0  0  0  0
   -2.5542   -0.5788   -0.2104 H   0  0  0  0  0  0  0  0  0  0  0  0
   -0.5102   -0.3728    0.3086 C   0  0  1  0  0  0  0  0  0  0  0  0
    0.0719   -0.7468    1.1521 H   0  0  0  0  0  0  0  0  0  0  0  0
    0.2338   -0.7427   -0.9878 C   0  0  0  0  0  0  0  0  0  0  0  0
   -0.0993   -1.7267   -1.3227 H   0  0  0  0  0  0  0  0  0  0  0  0
   -0.0229   -0.0195   -1.7641 H   0  0  0  0  0  0  0  0  0  0  0  0
    1.7327   -0.7700   -0.8368 C   0  0  0  0  0  0  0  0  0  0  0  0
    2.6369    0.0044   -1.5316 N   0  0  0  0  0  0  0  0  0  0  0  0
    2.4211    0.6371   -2.2875 H   0  0  0  0  0  0  0  0  0  0  0  0
    3.8603   -0.2341   -1.0299 C   0  0  0  0  0  0  0  0  0  0  0  0
    4.7790    0.2235   -1.3760 H   0  0  0  0  0  0  0  0  0  0  0  0
    3.7864   -1.1231   -0.0286 N   0  0  0  0  0  0  0  0  0  0  0  0
    2.4401   -1.4742    0.1008 C   0  0  0  0  0  0  0  0  0  0  0  0
    2.0243   -2.1530    0.8342 H   0  0  0  0  0  0  0  0  0  0  0  0
   -0.6600    1.1486    0.4782 C   0  0  0  0  0  0  0  0  0  0  0  0
   -1.5001    1.7648   -0.1771 O   0  0  0  0  0  0  0  0  0  0  0  0
    0.1634    1.7559    1.3418 N   0  0  0  0  0  0  0  0  0  0  0  0
    0.8618    1.1897    1.8008 H   0  0  0  0  0  0  0  0  0  0  0  0
    0.1509    3.1886    1.6256 C   0  0  0  0  0  0  0  0  0  0  0  0
   -0.8272    3.4794    2.0152 H   0  0  0  0  0  0  0  0  0  0  0  0
    0.9172    3.4314    2.3624 H   0  0  0  0  0  0  0  0  0  0  0  0
    0.3414    3.7499    0.7095 H   0  0  0  0  0  0  0  0  0  0  0  0
  5  6  2  0  0  0  0
  5  7  1  0  0  0  0
  2  3  1  0  0  0  0
  2  4  1  0  0  0  0
  2  5  1  0  0  0  0
  1  2  1  0  0  0  0
 22 23  2  0  0  0  0
 22 24  1  0  0  0  0
 20 21  1  0  0  0  0
 19 20  1  0  0  0  0
 17 18  1  0  0  0  0
 17 19  2  0  0  0  0
 15 16  1  0  0  0  0
 15 17  1  0  0  0  0
 14 15  1  0  0  0  0
 14 20  2  0  0  0  0
 11 12  1  0  0  0  0
 11 13  1  0  0  0  0
 11 14  1  0  0  0  0
  9 10  1  0  0  0  0
  9 11  1  0  0  0  0
  9 22  1  0  0  0  0
  7  8  1  0  0  0  0
  7  9  1  0  0  0  0
 26 27  1  0  0  0  0
 26 28  1  0  0  0  0
 26 29  1  0  0  0  0
 24 25  1  0  0  0  0
 24 26  1  0  0  0  0
M  END
$$$$
default_name
  -OEChem-02102213163D

 29 29  0     1  0  0  0  0  0999 V2000
   -3.6042   -3.5728    1.4576 H   0  0  0  0  0  0  0  0  0  0  0  0
   -3.5202   -2.6488    0.8866 C   0  0  0  0  0  0  0  0  0  0  0  0
   -4.2052   -1.9048    1.2896 H   0  0  0  0  0  0  0  0  0  0  0  0
   -3.7552   -2.8428   -0.1584 H   0  0  0  0  0  0  0  0  0  0  0  0
   -2.1052   -2.1358    0.9946 C   0  0  0  0  0  0  0  0  0  0  0  0
   -1.2852   -2.7288    1.6826 O   0  0  0  0  0  0  0  0  0  0  0  0
   -1.8202   -1.0288    0.3146 N   0  0  0  0  0  0  0  0  0  0  0  0
   -2.5542   -0.5788   -0.2104 H   0  0  0  0  0  0  0  0  0  0  0  0
   -0.5102   -0.3728    0.3086 C   0  0  1  0  0  0  0  0  0  0  0  0
    0.0719   -0.7468    1.1521 H   0  0  0  0  0  0  0  0  0  0  0  0
    0.2338   -0.7427   -0.9878 C   0  0  0  0  0  0  0  0  0  0  0  0
   -0.0993   -1.7267   -1.3227 H   0  0  0  0  0  0  0  0  0  0  0  0
   -0.0229   -0.0195   -1.7641 H   0  0  0  0  0  0  0  0  0  0  0  0
    1.7327   -0.7700   -0.8368 C   0  0  0  0  0  0  0  0  0  0  0  0
    2.6169    0.1799   -1.3015 N   0  0  0  0  0  0  0  0  0  0  0  0
    2.3853    0.9802   -1.8708 H   0  0  0  0  0  0  0  0  0  0  0  0
    3.8455   -0.1487   -0.8682 C   0  0  0  0  0  0  0  0  0  0  0  0
    4.7522    0.4057   -1.0775 H   0  0  0  0  0  0  0  0  0  0  0  0
    3.7940   -1.2672   -0.1302 N   0  0  0  0  0  0  0  0  0  0  0  0
    2.4573   -1.6738   -0.1064 C   0  0  0  0  0  0  0  0  0  0  0  0
    2.0588   -2.5288    0.4242 H   0  0  0  0  0  0  0  0  0  0  0  0
   -0.6600    1.1486    0.4782 C   0  0  0  0  0  0  0  0  0  0  0  0
   -1.5001    1.7648   -0.1771 O   0  0  0  0  0  0  0  0  0  0  0  0
    0.1634    1.7559    1.3418 N   0  0  0  0  0  0  0  0  0  0  0  0
    0.8618    1.1897    1.8008 H   0  0  0  0  0  0  0  0  0  0  0  0
    0.1509    3.1886    1.6256 C   0  0  0  0  0  0  0  0  0  0  0  0
   -0.8272    3.4794    2.0152 H   0  0  0  0  0  0  0  0  0  0  0  0
    0.9172    3.4314    2.3624 H   0  0  0  0  0  0  0  0  0  0  0  0
    0.3414    3.7499    0.7095 H   0  0  0  0  0  0  0  0  0  0  0  0
  5  6  2  0  0  0  0
  5  7  1  0  0  0  0
  2  3  1  0  0  0  0
  2  4  1  0  0  0  0
  2  5  1  0  0  0  0
  1  2  1  0  0  0  0
 22 23  2  0  0  0  0
 22 24  1  0  0  0  0
 20 21  1  0  0  0  0
 19 20  1  0  0  0  0
 17 18  1  0  0  0  0
 17 19  2  0  0  0  0
 15 16  1  0  0  0  0
 15 17  1  0  0  0  0
 14 15  1  0  0  0  0
 14 20  2  0  0  0  0
 11 12  1  0  0  0  0
 11 13  1  0  0  0  0
 11 14  1  0  0  0  0
  9 10  1  0  0  0  0
  9 11  1  0  0  0  0
  9 22  1  0  0  0  0
  7  8  1  0  0  0  0
  7  9  1  0  0  0  0
 26 27  1  0  0  0  0
 26 28  1  0  0  0  0
 26 29  1  0  0  0  0
 24 25  1  0  0  0  0
 24 26  1  0  0  0  0
M  END
$$$$
default_name
  -OEChem-02102213163D

 29 29  0     1  0  0  0  0  0999 V2000
   -3.6042   -3.5728    1.4576 H   0  0  0  0  0  0  0  0  0  0  0  0
   -3.5202   -2.6488    0.8866 C   0  0  0  0  0  0  0  0  0  0  0  0
   -4.2052   -1.9048    1.2896 H   0  0  0  0  0  0  0  0  0  0  0  0
   -3.7552   -2.8428   -0.1584 H   0  0  0  0  0  0  0  0  0  0  0  0
   -2.1052   -2.1358    0.9946 C   0  0  0  0  0  0  0  0  0  0  0  0
   -1.2852   -2.7288    1.6826 O   0  0  0  0  0  0  0  0  0  0  0  0
   -1.8202   -1.0288    0.3146 N   0  0  0  0  0  0  0  0  0  0  0  0
   -2.5542   -0.5788   -0.2104 H   0  0  0  0  0  0  0  0  0  0  0  0
   -0.5102   -0.3728    0.3086 C   0  0  1  0  0  0  0  0  0  0  0  0
    0.0719   -0.7468    1.1521 H   0  0  0  0  0  0  0  0  0  0  0  0
    0.2338   -0.7427   -0.9878 C   0  0  0  0  0  0  0  0  0  0  0  0
   -0.0993   -1.7267   -1.3227 H   0  0  0  0  0  0  0  0  0  0  0  0
   -0.0229   -0.0195   -1.7641 H   0  0  0  0  0  0  0  0  0  0  0  0
    1.7327   -0.7700   -0.8368 C   0  0  0  0  0  0  0  0  0  0  0  0
    2.5919    0.2897   -1.0342 N   0  0  0  0  0  0  0  0  0  0  0  0
    2.3399    1.2034   -1.3802 H   0  0  0  0  0  0  0  0  0  0  0  0
    3.8283   -0.1082   -0.6902 C   0  0  0  0  0  0  0  0  0  0  0  0
    4.7202    0.5042   -0.7423 H   0  0  0  0  0  0  0  0  0  0  0  0
    3.8056   -1.3800   -0.2654 N   0  0  0  0  0  0  0  0  0  0  0  0
    2.4802   -1.8127   -0.3579 C   0  0  0  0  0  0  0  0  0  0  0  0
    2.1038   -2.7853   -0.0685 H   0  0  0  0  0  0  0  0  0  0  0  0
   -0.6600    1.1486    0.4782 C   0  0  0  0  0  0  0  0  0  0  0  0
   -1.5001    1.7648   -0.1771 O   0  0  0  0  0  0  0  0  0  0  0  0
    0.1634    1.7559    1.3418 N   0  0  0  0  0  0  0  0  0  0  0  0
    0.8618    1.1897    1.8008 H   0  0  0  0  0  0  0  0  0  0  0  0
    0.1509    3.1886    1.6256 C   0  0  0  0  0  0  0  0  0  0  0  0
   -0.8272    3.4794    2.0152 H   0  0  0  0  0  0  0  0  0  0  0  0
    0.9172    3.4314    2.3624 H   0  0  0  0  0  0  0  0  0  0  0  0
    0.3414    3.7499    0.7095 H   0  0  0  0  0  0  0  0  0  0  0  0
  5  6  2  0  0  0  0
  5  7  1  0  0  0  0
  2  3  1  0  0  0  0
  2  4  1  0  0  0  0
  2  5  1  0  0  0  0
  1  2  1  0  0  0  0
 22 23  2  0  0  0  0
 22 24  1  0  0  0  0
 20 21  1  0  0  0  0
 19 20  1  0  0  0  0
 17 18  1  0  0  0  0
 17 19  2  0  0  0  0
 15 16  1  0  0  0  0
 15 17  1  0  0  0  0
 14 15  1  0  0  0  0
 14 20  2  0  0  0  0
 11 12  1  0  0  0  0
 11 13  1  0  0  0  0
 11 14  1  0  0  0  0
  9 10  1  0  0  0  0
  9 11  1  0  0  0  0
  9 22  1  0  0  0  0
  7  8  1  0  0  0  0
  7  9  1  0  0  0  0
 26 27  1  0  0  0  0
 26 28  1  0  0  0  0
 26 29  1  0  0  0  0
 24 25  1  0  0  0  0
 24 26  1  0  0  0  0
M  END
$$$$
default_name
  -OEChem-02102213163D

 29 29  0     1  0  0  0  0  0999 V2000
   -3.6042   -3.5728    1.4576 H   0  0  0  0  0  0  0  0  0  0  0  0
   -3.5202   -2.6488    0.8866 C   0  0  0  0  0  0  0  0  0  0  0  0
   -4.2052   -1.9048    1.2896 H   0  0  0  0  0  0  0  0  0  0  0  0
   -3.7552   -2.8428   -0.1584 H   0  0  0  0  0  0  0  0  0  0  0  0
   -2.1052   -2.1358    0.9946 C   0  0  0  0  0  0  0  0  0  0  0  0
   -1.2852   -2.7288    1.6826 O   0  0  0  0  0  0  0  0  0  0  0  0
   -1.8202   -1.0288    0.3146 N   0  0  0  0  0  0  0  0  0  0  0  0
   -2.5542   -0.5788   -0.2104 H   0  0  0  0  0  0  0  0  0  0  0  0
   -0.5102   -0.3728    0.3086 C   0  0  1  0  0  0  0  0  0  0  0  0
    0.0719   -0.7468    1.1521 H   0  0  0  0  0  0  0  0  0  0  0  0
    0.2338   -0.7427   -0.9878 C   0  0  0  0  0  0  0  0  0  0  0  0
   -0.0993   -1.7267   -1.3227 H   0  0  0  0  0  0  0  0  0  0  0  0
   -0.0229   -0.0195   -1.7641 H   0  0  0  0  0  0  0  0  0  0  0  0
    1.7327   -0.7700   -0.8368 C   0  0  0  0  0  0  0  0  0  0  0  0
    2.5637    0.3262   -0.7478 N   0  0  0  0  0  0  0  0  0  0  0  0
    2.2880    1.2915   -0.8489 H   0  0  0  0  0  0  0  0  0  0  0  0
    3.8098   -0.1154   -0.5078 C   0  0  0  0  0  0  0  0  0  0  0  0
    4.6852    0.5121   -0.3934 H   0  0  0  0  0  0  0  0  0  0  0  0
    3.8203   -1.4538   -0.4249 N   0  0  0  0  0  0  0  0  0  0  0  0
    2.5070   -1.8816   -0.6364 C   0  0  0  0  0  0  0  0  0  0  0  0
    2.1562   -2.9052   -0.6102 H   0  0  0  0  0  0  0  0  0  0  0  0
   -0.6600    1.1486    0.4782 C   0  0  0  0  0  0  0  0  0  0  0  0
   -1.5001    1.7648   -0.1771 O   0  0  0  0  0  0  0  0  0  0  0  0
    0.1634    1.7559    1.3418 N   0  0  0  0  0  0  0  0  0  0  0  0
    0.8618    1.1897    1.8008 H   0  0  0  0  0  0  0  0  0  0  0  0
    0.1509    3.1886    1.6256 C   0  0  0  0  0  0  0  0  0  0  0  0
   -0.8272    3.4794    2.0152 H   0  0  0  0  0  0  0  0  0  0  0  0
    0.9172    3.4314    2.3624 H   0  0  0  0  0  0  0  0  0  0  0  0
    0.3414    3.7499    0.7095 H   0  0  0  0  0  0  0  0  0  0  0  0
  5  6  2  0  0  0  0
  5  7  1  0  0  0  0
  2  3  1  0  0  0  0
  2  4  1  0  0  0  0
  2  5  1  0  0  0  0
  1  2  1  0  0  0  0
 22 23  2  0  0  0  0
 22 24  1  0  0  0  0
 20 21  1  0  0  0  0
 19 20  1  0  0  0  0
 17 18  1  0  0  0  0
 17 19  2  0  0  0  0
 15 16  1  0  0  0  0
 15 17  1  0  0  0  0
 14 15  1  0  0  0  0
 14 20  2  0  0  0  0
 11 12  1  0  0  0  0
 11 13  1  0  0  0  0
 11 14  1  0  0  0  0
  9 10  1  0  0  0  0
  9 11  1  0  0  0  0
  9 22  1  0  0  0  0
  7  8  1  0  0  0  0
  7  9  1  0  0  0  0
 26 27  1  0  0  0  0
 26 28  1  0  0  0  0
 26 29  1  0  0  0  0
 24 25  1  0  0  0  0
 24 26  1  0  0  0  0
M  END
$$$$
default_name
  -OEChem-02102213163D

 29 29  0     1  0  0  0  0  0999 V2000
   -3.6042   -3.5728    1.4576 H   0  0  0  0  0  0  0  0  0  0  0  0
   -3.5202   -2.6488    0.8866 C   0  0  0  0  0  0  0  0  0  0  0  0
   -4.2052   -1.9048    1.2896 H   0  0  0  0  0  0  0  0  0  0  0  0
   -3.7552   -2.8428   -0.1584 H   0  0  0  0  0  0  0  0  0  0  0  0
   -2.1052   -2.1358    0.9946 C   0  0  0  0  0  0  0  0  0  0  0  0
   -1.2852   -2.7288    1.6826 O   0  0  0  0  0  0  0  0  0  0  0  0
   -1.8202   -1.0288    0.3146 N   0  0  0  0  0  0  0  0  0  0  0  0
   -2.5542   -0.5788   -0.2104 H   0  0  0  0  0  0  0  0  0  0  0  0
   -0.5102   -0.3728    0.3086 C   0  0  1  0  0  0  0  0  0  0  0  0
    0.0719   -0.7468    1.1521 H   0  0  0  0  0  0  0  0  0  0  0  0
    0.2338   -0.7427   -0.9878 C   0  0  0  0  0  0  0  0  0  0  0  0
   -0.0993   -1.7267   -1.3227 H   0  0  0  0  0  0  0  0  0  0  0  0
   -0.0229   -0.0195   -1.7641 H   0  0  0  0  0  0  0  0  0  0  0  0
    1.7327   -0.7700   -0.8368 C   0  0  0  0  0  0  0  0  0  0  0  0
    2.5342    0.2870   -0.4620 N   0  0  0  0  0  0  0  0  0  0  0  0
    2.2331    1.2385   -0.3134 H   0  0  0  0  0  0  0  0  0  0  0  0
    3.7913   -0.1698   -0.3337 C   0  0  0  0  0  0  0  0  0  0  0  0
    4.6495    0.4291   -0.0545 H   0  0  0  0  0  0  0  0  0  0  0  0
    3.8372   -1.4837   -0.5980 N   0  0  0  0  0  0  0  0  0  0  0  0
    2.5360   -1.8757   -0.9230 C   0  0  0  0  0  0  0  0  0  0  0  0
    2.2125   -2.8800   -1.1640 H   0  0  0  0  0  0  0  0  0  0  0  0
   -0.6600    1.1486    0.4782 C   0  0  0  0  0  0  0  0  0  0  0  0
   -1.5001    1.7648   -0.1771 O   0  0  0  0  0  0  0  0  0  0  0  0
    0.1634    1.7559    1.3418 N   0  0  0  0  0  0  0  0  0  0  0  0
    0.8618    1.1897    1.8008 H   0  0  0  0  0  0  0  0  0  0  0  0
    0.1509    3.1886    1.6256 C   0  0  0  0  0  0  0  0  0  0  0  0
   -0.8272    3.4794    2.0152 H   0  0  0  0  0  0  0  0  0  0  0  0
    0.9172    3.4314    2.3624 H   0  0  0  0  0  0  0  0  0  0  0  0
    0.3414    3.7499    0.7095 H   0  0  0  0  0  0  0  0  0  0  0  0
  5  6  2  0  0  0  0
  5  7  1  0  0  0  0
  2  3  1  0  0  0  0
  2  4  1  0  0  0  0
  2  5  1  0  0  0  0
  1  2  1  0  0  0  0
 22 23  2  0  0  0  0
 22 24  1  0  0  0  0
 20 21  1  0  0  0  0
 19 20  1  0  0  0  0
 17 18  1  0  0  0  0
 17 19  2  0  0  0  0
 15 16  1  0  0  0  0
 15 17  1  0  0  0  0
 14 15  1  0  0  0  0
 14 20  2  0  0  0  0
 11 12  1  0  0  0  0
 11 13  1  0  0  0  0
 11 14  1  0  0  0  0
  9 10  1  0  0  0  0
  9 11  1  0  0  0  0
  9 22  1  0  0  0  0
  7  8  1  0  0  0  0
  7  9  1  0  0  0  0
 26 27  1  0  0  0  0
 26 28  1  0  0  0  0
 26 29  1  0  0  0  0
 24 25  1  0  0  0  0
 24 26  1  0  0  0  0
M  END
$$$$
default_name
  -OEChem-02102213163D

 29 29  0     1  0  0  0  0  0999 V2000
   -3.6042   -3.5728    1.4576 H   0  0  0  0  0  0  0  0  0  0  0  0
   -3.5202   -2.6488    0.8866 C   0  0  0  0  0  0  0  0  0  0  0  0
   -4.2052   -1.9048    1.2896 H   0  0  0  0  0  0  0  0  0  0  0  0
   -3.7552   -2.8428   -0.1584 H   0  0  0  0  0  0  0  0  0  0  0  0
   -2.1052   -2.1358    0.9946 C   0  0  0  0  0  0  0  0  0  0  0  0
   -1.2852   -2.7288    1.6826 O   0  0  0  0  0  0  0  0  0  0  0  0
   -1.8202   -1.0288    0.3146 N   0  0  0  0  0  0  0  0  0  0  0  0
   -2.5542   -0.5788   -0.2104 H   0  0  0  0  0  0  0  0  0  0  0  0
   -0.5102   -0.3728    0.3086 C   0  0  1  0  0  0  0  0  0  0  0  0
    0.0719   -0.7468    1.1521 H   0  0  0  0  0  0  0  0  0  0  0  0
    0.2338   -0.7427   -0.9878 C   0  0  0  0  0  0  0  0  0  0  0  0
   -0.0993   -1.7267   -1.3227 H   0  0  0  0  0  0  0  0  0  0  0  0
   -0.0229   -0.0195   -1.7641 H   0  0  0  0  0  0  0  0  0  0  0  0
    1.7327   -0.7700   -0.8368 C   0  0  0  0  0  0  0  0  0  0  0  0
    2.5053    0.1748   -0.1961 N   0  0  0  0  0  0  0  0  0  0  0  0
    2.1789    1.0480    0.1900 H   0  0  0  0  0  0  0  0  0  0  0  0
    3.7740   -0.2676   -0.1795 C   0  0  0  0  0  0  0  0  0  0  0  0
    4.6156    0.2607    0.2514 H   0  0  0  0  0  0  0  0  0  0  0  0
    3.8551   -1.4676   -0.7728 N   0  0  0  0  0  0  0  0  0  0  0  0
    2.5652   -1.7954   -1.1983 C   0  0  0  0  0  0  0  0  0  0  0  0
    2.2688   -2.7117   -1.6922 H   0  0  0  0  0  0  0  0  0  0  0  0
   -0.6600    1.1486    0.4782 C   0  0  0  0  0  0  0  0  0  0  0  0
   -1.5001    1.7648   -0.1771 O   0  0  0  0  0  0  0  0  0  0  0  0
    0.1634    1.7559    1.3418 N   0  0  0  0  0  0  0  0  0  0  0  0
    0.8618    1.1897    1.8008 H   0  0  0  0  0  0  0  0  0  0  0  0
    0.1509    3.1886    1.6256 C   0  0  0  0  0  0  0  0  0  0  0  0
   -0.8272    3.4794    2.0152 H   0  0  0  0  0  0  0  0  0  0  0  0
    0.9172    3.4314    2.3624 H   0  0  0  0  0  0  0  0  0  0  0  0
    0.3414    3.7499    0.7095 H   0  0  0  0  0  0  0  0  0  0  0  0
  5  6  2  0  0  0  0
  5  7  1  0  0  0  0
  2  3  1  0  0  0  0
  2  4  1  0  0  0  0
  2  5  1  0  0  0  0
  1  2  1  0  0  0  0
 22 23  2  0  0  0  0
 22 24  1  0  0  0  0
 20 21  1  0  0  0  0
 19 20  1  0  0  0  0
 17 18  1  0  0  0  0
 17 19  2  0  0  0  0
 15 16  1  0  0  0  0
 15 17  1  0  0  0  0
 14 15  1  0  0  0  0
 14 20  2  0  0  0  0
 11 12  1  0  0  0  0
 11 13  1  0  0  0  0
 11 14  1  0  0  0  0
  9 10  1  0  0  0  0
  9 11  1  0  0  0  0
  9 22  1  0  0  0  0
  7  8  1  0  0  0  0
  7  9  1  0  0  0  0
 26 27  1  0  0  0  0
 26 28  1  0  0  0  0
 26 29  1  0  0  0  0
 24 25  1  0  0  0  0
 24 26  1  0  0  0  0
M  END
$$$$
default_name
  -OEChem-02102213163D

 29 29  0     1  0  0  0  0  0999 V2000
   -3.6042   -3.5728    1.4576 H   0  0  0  0  0  0  0  0  0  0  0  0
   -3.5202   -2.6488    0.8866 C   0  0  0  0  0  0  0  0  0  0  0  0
   -4.2052   -1.9048    1.2896 H   0  0  0  0  0  0  0  0  0  0  0  0
   -3.7552   -2.8428   -0.1584 H   0  0  0  0  0  0  0  0  0  0  0  0
   -2.1052   -2.1358    0.9946 C   0  0  0  0  0  0  0  0  0  0  0  0
   -1.2852   -2.7288    1.6826 O   0  0  0  0  0  0  0  0  0  0  0  0
   -1.8202   -1.0288    0.3146 N   0  0  0  0  0  0  0  0  0  0  0  0
   -2.5542   -0.5788   -0.2104 H   0  0  0  0  0  0  0  0  0  0  0  0
   -0.5102   -0.3728    0.3086 C   0  0  1  0  0  0  0  0  0  0  0  0
    0.0719   -0.7468    1.1521 H   0  0  0  0  0  0  0  0  0  0  0  0
    0.2338   -0.7427   -0.9878 C   0  0  0  0  0  0  0  0  0  0  0  0
   -0.0993   -1.7267   -1.3227 H   0  0  0  0  0  0  0  0  0  0  0  0
   -0.0229   -0.0195   -1.7641 H   0  0  0  0  0  0  0  0  0  0  0  0
    1.7327   -0.7700   -0.8368 C   0  0  0  0  0  0  0  0  0  0  0  0
    2.4792   -0.0028    0.0318 N   0  0  0  0  0  0  0  0  0  0  0  0
    2.1291    0.7330    0.6269 H   0  0  0  0  0  0  0  0  0  0  0  0
    3.7591   -0.4023   -0.0559 C   0  0  0  0  0  0  0  0  0  0  0  0
    4.5858    0.0184    0.5033 H   0  0  0  0  0  0  0  0  0  0  0  0
    3.8728   -1.4065   -0.9373 N   0  0  0  0  0  0  0  0  0  0  0  0
    2.5926   -1.6463   -1.4433 C   0  0  0  0  0  0  0  0  0  0  0  0
    2.3213   -2.4117   -2.1589 H   0  0  0  0  0  0  0  0  0  0  0  0
   -0.6600    1.1486    0.4782 C   0  0  0  0  0  0  0  0  0  0  0  0
   -1.5001    1.7648   -0.1771 O   0  0  0  0  0  0  0  0  0  0  0  0
    0.1634    1.7559    1.3418 N   0  0  0  0  0  0  0  0  0  0  0  0
    0.8618    1.1897    1.8008 H   0  0  0  0  0  0  0  0  0  0  0  0
    0.1509    3.1886    1.6256 C   0  0  0  0  0  0  0  0  0  0  0  0
   -0.8272    3.4794    2.0152 H   0  0  0  0  0  0  0  0  0  0  0  0
    0.9172    3.4314    2.3624 H   0  0  0  0  0  0  0  0  0  0  0  0
    0.3414    3.7499    0.7095 H   0  0  0  0  0  0  0  0  0  0  0  0
  5  6  2  0  0  0  0
  5  7  1  0  0  0  0
  2  3  1  0  0  0  0
  2  4  1  0  0  0  0
  2  5  1  0  0  0  0
  1  2  1  0  0  0  0
 22 23  2  0  0  0  0
 22 24  1  0  0  0  0
 20 21  1  0  0  0  0
 19 20  1  0  0  0  0
 17 18  1  0  0  0  0
 17 19  2  0  0  0  0
 15 16  1  0  0  0  0
 15 17  1  0  0  0  0
 14 15  1  0  0  0  0
 14 20  2  0  0  0  0
 11 12  1  0  0  0  0
 11 13  1  0  0  0  0
 11 14  1  0  0  0  0
  9 10  1  0  0  0  0
  9 11  1  0  0  0  0
  9 22  1  0  0  0  0
  7  8  1  0  0  0  0
  7  9  1  0  0  0  0
 26 27  1  0  0  0  0
 26 28  1  0  0  0  0
 26 29  1  0  0  0  0
 24 25  1  0  0  0  0
 24 26  1  0  0  0  0
M  END
$$$$
default_name
  -OEChem-02102213163D

 29 29  0     1  0  0  0  0  0999 V2000
   -3.6042   -3.5728    1.4576 H   0  0  0  0  0  0  0  0  0  0  0  0
   -3.5202   -2.6488    0.8866 C   0  0  0  0  0  0  0  0  0  0  0  0
   -4.2052   -1.9048    1.2896 H   0  0  0  0  0  0  0  0  0  0  0  0
   -3.7552   -2.8428   -0.1584 H   0  0  0  0  0  0  0  0  0  0  0  0
   -2.1052   -2.1358    0.9946 C   0  0  0  0  0  0  0  0  0  0  0  0
   -1.2852   -2.7288    1.6826 O   0  0  0  0  0  0  0  0  0  0  0  0
   -1.8202   -1.0288    0.3146 N   0  0  0  0  0  0  0  0  0  0  0  0
   -2.5542   -0.5788   -0.2104 H   0  0  0  0  0  0  0  0  0  0  0  0
   -0.5102   -0.3728    0.3086 C   0  0  1  0  0  0  0  0  0  0  0  0
    0.0719   -0.7468    1.1521 H   0  0  0  0  0  0  0  0  0  0  0  0
    0.2338   -0.7427   -0.9878 C   0  0  0  0  0  0  0  0  0  0  0  0
   -0.0993   -1.7267   -1.3227 H   0  0  0  0  0  0  0  0  0  0  0  0
   -0.0229   -0.0195   -1.7641 H   0  0  0  0  0  0  0  0  0  0  0  0
    1.7327   -0.7700   -0.8368 C   0  0  0  0  0  0  0  0  0  0  0  0
    2.4574   -0.2337    0.2060 N   0  0  0  0  0  0  0  0  0  0  0  0
    2.0872    0.3149    0.9676 H   0  0  0  0  0  0  0  0  0  0  0  0
    3.7476   -0.5646    0.0288 C   0  0  0  0  0  0  0  0  0  0  0  0
    4.5622   -0.2813    0.6840 H   0  0  0  0  0  0  0  0  0  0  0  0
    3.8891   -1.3047   -1.0805 N   0  0  0  0  0  0  0  0  0  0  0  0
    2.6163   -1.4385   -1.6415 C   0  0  0  0  0  0  0  0  0  0  0  0
    2.3664   -2.0004   -2.5321 H   0  0  0  0  0  0  0  0  0  0  0  0
   -0.6600    1.1486    0.4782 C   0  0  0  0  0  0  0  0  0  0  0  0
   -1.5001    1.7648   -0.1771 O   0  0  0  0  0  0  0  0  0  0  0  0
    0.1634    1.7559    1.3418 N   0  0  0  0  0  0  0  0  0  0  0  0
    0.8618    1.1897    1.8008 H   0  0  0  0  0  0  0  0  0  0  0  0
    0.1509    3.1886    1.6256 C   0  0  0  0  0  0  0  0  0  0  0  0
   -0.8272    3.4794    2.0152 H   0  0  0  0  0  0  0  0  0  0  0  0
    0.9172    3.4314    2.3624 H   0  0  0  0  0  0  0  0  0  0  0  0
    0.3414    3.7499    0.7095 H   0  0  0  0  0  0  0  0  0  0  0  0
  5  6  2  0  0  0  0
  5  7  1  0  0  0  0
  2  3  1  0  0  0  0
  2  4  1  0  0  0  0
  2  5  1  0  0  0  0
  1  2  1  0  0  0  0
 22 23  2  0  0  0  0
 22 24  1  0  0  0  0
 20 21  1  0  0  0  0
 19 20  1  0  0  0  0
 17 18  1  0  0  0  0
 17 19  2  0  0  0  0
 15 16  1  0  0  0  0
 15 17  1  0  0  0  0
 14 15  1  0  0  0  0
 14 20  2  0  0  0  0
 11 12  1  0  0  0  0
 11 13  1  0  0  0  0
 11 14  1  0  0  0  0
  9 10  1  0  0  0  0
  9 11  1  0  0  0  0
  9 22  1  0  0  0  0
  7  8  1  0  0  0  0
  7  9  1  0  0  0  0
 26 27  1  0  0  0  0
 26 28  1  0  0  0  0
 26 29  1  0  0  0  0
 24 25  1  0  0  0  0
 24 26  1  0  0  0  0
M  END
$$$$
default_name
  -OEChem-02102213163D

 29 29  0     1  0  0  0  0  0999 V2000
   -3.6042   -3.5728    1.4576 H   0  0  0  0  0  0  0  0  0  0  0  0
   -3.5202   -2.6488    0.8866 C   0  0  0  0  0  0  0  0  0  0  0  0
   -4.2052   -1.9048    1.2896 H   0  0  0  0  0  0  0  0  0  0  0  0
   -3.7552   -2.8428   -0.1584 H   0  0  0  0  0  0  0  0  0  0  0  0
   -2.1052   -2.1358    0.9946 C   0  0  0  0  0  0  0  0  0  0  0  0
   -1.2852   -2.7288    1.6826 O   0  0  0  0  0  0  0  0  0  0  0  0
   -1.8202   -1.0288    0.3146 N   0  0  0  0  0  0  0  0  0  0  0  0
   -2.5542   -0.5788   -0.2104 H   0  0  0  0  0  0  0  0  0  0  0  0
   -0.5102   -0.3728    0.3086 C   0  0  1  0  0  0  0  0  0  0  0  0
    0.0719   -0.7468    1.1521 H   0  0  0  0  0  0  0  0  0  0  0  0
    0.2338   -0.7427   -0.9878 C   0  0  0  0  0  0  0  0  0  0  0  0
   -0.0993   -1.7267   -1.3227 H   0  0  0  0  0  0  0  0  0  0  0  0
   -0.0229   -0.0195   -1.7641 H   0  0  0  0  0  0  0  0  0  0  0  0
    1.7327   -0.7700   -0.8368 C   0  0  0  0  0  0  0  0  0  0  0  0
    2.4416   -0.5022    0.3147 N   0  0  0  0  0  0  0  0  0  0  0  0
    2.0559   -0.1778    1.1889 H   0  0  0  0  0  0  0  0  0  0  0  0
    3.7403   -0.7434    0.0687 C   0  0  0  0  0  0  0  0  0  0  0  0
    4.5462   -0.6179    0.7814 H   0  0  0  0  0  0  0  0  0  0  0  0
    3.9028   -1.1691   -1.1925 N   0  0  0  0  0  0  0  0  0  0  0  0
    2.6348   -1.1861   -1.7793 C   0  0  0  0  0  0  0  0  0  0  0  0
    2.4010   -1.5058   -2.7865 H   0  0  0  0  0  0  0  0  0  0  0  0
   -0.6600    1.1486    0.4782 C   0  0  0  0  0  0  0  0  0  0  0  0
   -1.5001    1.7648   -0.1771 O   0  0  0  0  0  0  0  0  0  0  0  0
    0.1634    1.7559    1.3418 N   0  0  0  0  0  0  0  0  0  0  0  0
    0.8618    1.1897    1.8008 H   0  0  0  0  0  0  0  0  0  0  0  0
    0.1509    3.1886    1.6256 C   0  0  0  0  0  0  0  0  0  0  0  0
   -0.8272    3.4794    2.0152 H   0  0  0  0  0  0  0  0  0  0  0  0
    0.9172    3.4314    2.3624 H   0  0  0  0  0  0  0  0  0  0  0  0
    0.3414    3.7499    0.7095 H   0  0  0  0  0  0  0  0  0  0  0  0
  5  6  2  0  0  0  0
  5  7  1  0  0  0  0
  2  3  1  0  0  0  0
  2  4  1  0  0  0  0
  2  5  1  0  0  0  0
  1  2  1  0  0  0  0
 22 23  2  0  0  0  0
 22 24  1  0  0  0  0
 20 21  1  0  0  0  0
 19 20  1  0  0  0  0
 17 18  1  0  0  0  0
 17 19  2  0  0  0  0
 15 16  1  0  0  0  0
 15 17  1  0  0  0  0
 14 15  1  0  0  0  0
 14 20  2  0  0  0  0
 11 12  1  0  0  0  0
 11 13  1  0  0  0  0
 11 14  1  0  0  0  0
  9 10  1  0  0  0  0
  9 11  1  0  0  0  0
  9 22  1  0  0  0  0
  7  8  1  0  0  0  0
  7  9  1  0  0  0  0
 26 27  1  0  0  0  0
 26 28  1  0  0  0  0
 26 29  1  0  0  0  0
 24 25  1  0  0  0  0
 24 26  1  0  0  0  0
M  END
$$$$
default_name
  -OEChem-02102213163D

 29 29  0     1  0  0  0  0  0999 V2000
   -3.6042   -3.5728    1.4576 H   0  0  0  0  0  0  0  0  0  0  0  0
   -3.5202   -2.6488    0.8866 C   0  0  0  0  0  0  0  0  0  0  0  0
   -4.2052   -1.9048    1.2896 H   0  0  0  0  0  0  0  0  0  0  0  0
   -3.7552   -2.8428   -0.1584 H   0  0  0  0  0  0  0  0  0  0  0  0
   -2.1052   -2.1358    0.9946 C   0  0  0  0  0  0  0  0  0  0  0  0
   -1.2852   -2.7288    1.6826 O   0  0  0  0  0  0  0  0  0  0  0  0
   -1.8202   -1.0288    0.3146 N   0  0  0  0  0  0  0  0  0  0  0  0
   -2.5542   -0.5788   -0.2104 H   0  0  0  0  0  0  0  0  0  0  0  0
   -0.5102   -0.3728    0.3086 C   0  0  1  0  0  0  0  0  0  0  0  0
    0.0719   -0.7468    1.1521 H   0  0  0  0  0  0  0  0  0  0  0  0
    0.2338   -0.7427   -0.9878 C   0  0  0  0  0  0  0  0  0  0  0  0
   -0.0993   -1.7267   -1.3227 H   0  0  0  0  0  0  0  0  0  0  0  0
   -0.0229   -0.0195   -1.7641 H   0  0  0  0  0  0  0  0  0  0  0  0
    1.7327   -0.7700   -0.8368 C   0  0  0  0  0  0  0  0  0  0  0  0
    2.4327   -0.7899    0.3505 N   0  0  0  0  0  0  0  0  0  0  0  0
    2.0375   -0.7115    1.2756 H   0  0  0  0  0  0  0  0  0  0  0  0
    3.7377   -0.9266    0.0612 C   0  0  0  0  0  0  0  0  0  0  0  0
    4.5391   -0.9685    0.7887 H   0  0  0  0  0  0  0  0  0  0  0  0
    3.9131   -1.0089   -1.2657 N   0  0  0  0  0  0  0  0  0  0  0  0
    2.6468   -0.9063   -1.8473 C   0  0  0  0  0  0  0  0  0  0  0  0
    2.4228   -0.9616   -2.9048 H   0  0  0  0  0  0  0  0  0  0  0  0
   -0.6600    1.1486    0.4782 C   0  0  0  0  0  0  0  0  0  0  0  0
   -1.5001    1.7648   -0.1771 O   0  0  0  0  0  0  0  0  0  0  0  0
    0.1634    1.7559    1.3418 N   0  0  0  0  0  0  0  0  0  0  0  0
    0.8618    1.1897    1.8008 H   0  0  0  0  0  0  0  0  0  0  0  0
    0.1509    3.1886    1.6256 C   0  0  0  0  0  0  0  0  0  0  0  0
   -0.8272    3.4794    2.0152 H   0  0  0  0  0  0  0  0  0  0  0  0
    0.9172    3.4314    2.3624 H   0  0  0  0  0  0  0  0  0  0  0  0
    0.3414    3.7499    0.7095 H   0  0  0  0  0  0  0  0  0  0  0  0
  5  6  2  0  0  0  0
  5  7  1  0  0  0  0
  2  3  1  0  0  0  0
  2  4  1  0  0  0  0
  2  5  1  0  0  0  0
  1  2  1  0  0  0  0
 22 23  2  0  0  0  0
 22 24  1  0  0  0  0
 20 21  1  0  0  0  0
 19 20  1  0  0  0  0
 17 18  1  0  0  0  0
 17 19  2  0  0  0  0
 15 16  1  0  0  0  0
 15 17  1  0  0  0  0
 14 15  1  0  0  0  0
 14 20  2  0  0  0  0
 11 12  1  0  0  0  0
 11 13  1  0  0  0  0
 11 14  1  0  0  0  0
  9 10  1  0  0  0  0
  9 11  1  0  0  0  0
  9 22  1  0  0  0  0
  7  8  1  0  0  0  0
  7  9  1  0  0  0  0
 26 27  1  0  0  0  0
 26 28  1  0  0  0  0
 26 29  1  0  0  0  0
 24 25  1  0  0  0  0
 24 26  1  0  0  0  0
M  END
$$$$
default_name
  -OEChem-02102213163D

 29 29  0     1  0  0  0  0  0999 V2000
   -3.6042   -3.5728    1.4576 H   0  0  0  0  0  0  0  0  0  0  0  0
   -3.5202   -2.6488    0.8866 C   0  0  0  0  0  0  0  0  0  0  0  0
   -4.2052   -1.9048    1.2896 H   0  0  0  0  0  0  0  0  0  0  0  0
   -3.7552   -2.8428   -0.1584 H   0  0  0  0  0  0  0  0  0  0  0  0
   -2.1052   -2.1358    0.9946 C   0  0  0  0  0  0  0  0  0  0  0  0
   -1.2852   -2.7288    1.6826 O   0  0  0  0  0  0  0  0  0  0  0  0
   -1.8202   -1.0288    0.3146 N   0  0  0  0  0  0  0  0  0  0  0  0
   -2.5542   -0.5788   -0.2104 H   0  0  0  0  0  0  0  0  0  0  0  0
   -0.5102   -0.3728    0.3086 C   0  0  1  0  0  0  0  0  0  0  0  0
    0.0719   -0.7468    1.1521 H   0  0  0  0  0  0  0  0  0  0  0  0
    0.2338   -0.7427   -0.9878 C   0  0  0  0  0  0  0  0  0  0  0  0
   -0.0993   -1.7267   -1.3227 H   0  0  0  0  0  0  0  0  0  0  0  0
   -0.0229   -0.0195   -1.7641 H   0  0  0  0  0  0  0  0  0  0  0  0
    1.7327   -0.7700   -0.8368 C   0  0  0  0  0  0  0  0  0  0  0  0
    2.4315   -1.0772    0.3110 N   0  0  0  0  0  0  0  0  0  0  0  0
    2.0331   -1.2497    1.2219 H   0  0  0  0  0  0  0  0  0  0  0  0
    3.7400   -1.1018    0.0068 C   0  0  0  0  0  0  0  0  0  0  0  0
    4.5413   -1.3092    0.7054 H   0  0  0  0  0  0  0  0  0  0  0  0
    3.9193   -0.8350   -1.2951 N   0  0  0  0  0  0  0  0  0  0  0  0
    2.6514   -0.6183   -1.8409 C   0  0  0  0  0  0  0  0  0  0  0  0
    2.4303   -0.4050   -2.8788 H   0  0  0  0  0  0  0  0  0  0  0  0
   -0.6600    1.1486    0.4782 C   0  0  0  0  0  0  0  0  0  0  0  0
   -1.5001    1.7648   -0.1771 O   0  0  0  0  0  0  0  0  0  0  0  0
    0.1634    1.7559    1.3418 N   0  0  0  0  0  0  0  0  0  0  0  0
    0.8618    1.1897    1.8008 H   0  0  0  0  0  0  0  0  0  0  0  0
    0.1509    3.1886    1.6256 C   0  0  0  0  0  0  0  0  0  0  0  0
   -0.8272    3.4794    2.0152 H   0  0  0  0  0  0  0  0  0  0  0  0
    0.9172    3.4314    2.3624 H   0  0  0  0  0  0  0  0  0  0  0  0
    0.3414    3.7499    0.7095 H   0  0  0  0  0  0  0  0  0  0  0  0
  5  6  2  0  0  0  0
  5  7  1  0  0  0  0
  2  3  1  0  0  0  0
  2  4  1  0  0  0  0
  2  5  1  0  0  0  0
  1  2  1  0  0  0  0
 22 23  2  0  0  0  0
 22 24  1  0  0  0  0
 20 21  1  0  0  0  0
 19 20  1  0  0  0  0
 17 18  1  0  0  0  0
 17 19  2  0  0  0  0
 15 16  1  0  0  0  0
 15 17  1  0  0  0  0
 14 15  1  0  0  0  0
 14 20  2  0  0  0  0
 11 12  1  0  0  0  0
 11 13  1  0  0  0  0
 11 14  1  0  0  0  0
  9 10  1  0  0  0  0
  9 11  1  0  0  0  0
  9 22  1  0  0  0  0
  7  8  1  0  0  0  0
  7  9  1  0  0  0  0
 26 27  1  0  0  0  0
 26 28  1  0  0  0  0
 26 29  1  0  0  0  0
 24 25  1  0  0  0  0
 24 26  1  0  0  0  0
M  END
$$$$
default_name
  -OEChem-02102213163D

 29 29  0     1  0  0  0  0  0999 V2000
   -3.6042   -3.5728    1.4576 H   0  0  0  0  0  0  0  0  0  0  0  0
   -3.5202   -2.6488    0.8866 C   0  0  0  0  0  0  0  0  0  0  0  0
   -4.2052   -1.9048    1.2896 H   0  0  0  0  0  0  0  0  0  0  0  0
   -3.7552   -2.8428   -0.1584 H   0  0  0  0  0  0  0  0  0  0  0  0
   -2.1052   -2.1358    0.9946 C   0  0  0  0  0  0  0  0  0  0  0  0
   -1.2852   -2.7288    1.6826 O   0  0  0  0  0  0  0  0  0  0  0  0
   -1.8202   -1.0288    0.3146 N   0  0  0  0  0  0  0  0  0  0  0  0
   -2.5542   -0.5788   -0.2104 H   0  0  0  0  0  0  0  0  0  0  0  0
   -0.5102   -0.3728    0.3086 C   0  0  1  0  0  0  0  0  0  0  0  0
    0.0719   -0.7468    1.1521 H   0  0  0  0  0  0  0  0  0  0  0  0
    0.2338   -0.7427   -0.9878 C   0  0  0  0  0  0  0  0  0  0  0  0
   -0.0993   -1.7267   -1.3227 H   0  0  0  0  0  0  0  0  0  0  0  0
   -0.0229   -0.0195   -1.7641 H   0  0  0  0  0  0  0  0  0  0  0  0
    1.7327   -0.7700   -0.8368 C   0  0  0  0  0  0  0  0  0  0  0  0
    2.4379   -1.3446    0.1988 N   0  0  0  0  0  0  0  0  0  0  0  0
    2.0431   -1.7559    1.0313 H   0  0  0  0  0  0  0  0  0  0  0  0
    3.7470   -1.2568   -0.0908 C   0  0  0  0  0  0  0  0  0  0  0  0
    4.5527   -1.6169    0.5373 H   0  0  0  0  0  0  0  0  0  0  0  0
    3.9208   -0.6593   -1.2787 N   0  0  0  0  0  0  0  0  0  0  0  0
    2.6483   -0.3415   -1.7606 C   0  0  0  0  0  0  0  0  0  0  0  0
    2.4230    0.1261   -2.7103 H   0  0  0  0  0  0  0  0  0  0  0  0
   -0.6600    1.1486    0.4782 C   0  0  0  0  0  0  0  0  0  0  0  0
   -1.5001    1.7648   -0.1771 O   0  0  0  0  0  0  0  0  0  0  0  0
    0.1634    1.7559    1.3418 N   0  0  0  0  0  0  0  0  0  0  0  0
    0.8618    1.1897    1.8008 H   0  0  0  0  0  0  0  0  0  0  0  0
    0.1509    3.1886    1.6256 C   0  0  0  0  0  0  0  0  0  0  0  0
   -0.8272    3.4794    2.0152 H   0  0  0  0  0  0  0  0  0  0  0  0
    0.9172    3.4314    2.3624 H   0  0  0  0  0  0  0  0  0  0  0  0
    0.3414    3.7499    0.7095 H   0  0  0  0  0  0  0  0  0  0  0  0
  5  6  2  0  0  0  0
  5  7  1  0  0  0  0
  2  3  1  0  0  0  0
  2  4  1  0  0  0  0
  2  5  1  0  0  0  0
  1  2  1  0  0  0  0
 22 23  2  0  0  0  0
 22 24  1  0  0  0  0
 20 21  1  0  0  0  0
 19 20  1  0  0  0  0
 17 18  1  0  0  0  0
 17 19  2  0  0  0  0
 15 16  1  0  0  0  0
 15 17  1  0  0  0  0
 14 15  1  0  0  0  0
 14 20  2  0  0  0  0
 11 12  1  0  0  0  0
 11 13  1  0  0  0  0
 11 14  1  0  0  0  0
  9 10  1  0  0  0  0
  9 11  1  0  0  0  0
  9 22  1  0  0  0  0
  7  8  1  0  0  0  0
  7  9  1  0  0  0  0
 26 27  1  0  0  0  0
 26 28  1  0  0  0  0
 26 29  1  0  0  0  0
 24 25  1  0  0  0  0
 24 26  1  0  0  0  0
M  END
$$$$
default_name
  -OEChem-02102213163D

 29 29  0     1  0  0  0  0  0999 V2000
   -3.6042   -3.5728    1.4576 H   0  0  0  0  0  0  0  0  0  0  0  0
   -3.5202   -2.6488    0.8866 C   0  0  0  0  0  0  0  0  0  0  0  0
   -4.2052   -1.9048    1.2896 H   0  0  0  0  0  0  0  0  0  0  0  0
   -3.7552   -2.8428   -0.1584 H   0  0  0  0  0  0  0  0  0  0  0  0
   -2.1052   -2.1358    0.9946 C   0  0  0  0  0  0  0  0  0  0  0  0
   -1.2852   -2.7288    1.6826 O   0  0  0  0  0  0  0  0  0  0  0  0
   -1.8202   -1.0288    0.3146 N   0  0  0  0  0  0  0  0  0  0  0  0
   -2.5542   -0.5788   -0.2104 H   0  0  0  0  0  0  0  0  0  0  0  0
   -0.5102   -0.3728    0.3086 C   0  0  1  0  0  0  0  0  0  0  0  0
    0.0719   -0.7468    1.1521 H   0  0  0  0  0  0  0  0  0  0  0  0
    0.2338   -0.7427   -0.9878 C   0  0  0  0  0  0  0  0  0  0  0  0
   -0.0993   -1.7267   -1.3227 H   0  0  0  0  0  0  0  0  0  0  0  0
   -0.0229   -0.0195   -1.7641 H   0  0  0  0  0  0  0  0  0  0  0  0
    1.7327   -0.7700   -0.8368 C   0  0  0  0  0  0  0  0  0  0  0  0
    2.4516   -1.5739    0.0217 N   0  0  0  0  0  0  0  0  0  0  0  0
    2.0668   -2.1956    0.7170 H   0  0  0  0  0  0  0  0  0  0  0  0
    3.7583   -1.3813   -0.2251 C   0  0  0  0  0  0  0  0  0  0  0  0
    4.5724   -1.8704    0.2957 H   0  0  0  0  0  0  0  0  0  0  0  0
    3.9177   -0.4938   -1.2177 N   0  0  0  0  0  0  0  0  0  0  0  0
    2.6378   -0.0950   -1.6118 C   0  0  0  0  0  0  0  0  0  0  0  0
    2.4014    0.5956   -2.4109 H   0  0  0  0  0  0  0  0  0  0  0  0
   -0.6600    1.1486    0.4782 C   0  0  0  0  0  0  0  0  0  0  0  0
   -1.5001    1.7648   -0.1771 O   0  0  0  0  0  0  0  0  0  0  0  0
    0.1634    1.7559    1.3418 N   0  0  0  0  0  0  0  0  0  0  0  0
    0.8618    1.1897    1.8008 H   0  0  0  0  0  0  0  0  0  0  0  0
    0.1509    3.1886    1.6256 C   0  0  0  0  0  0  0  0  0  0  0  0
   -0.8272    3.4794    2.0152 H   0  0  0  0  0  0  0  0  0  0  0  0
    0.9172    3.4314    2.3624 H   0  0  0  0  0  0  0  0  0  0  0  0
    0.3414    3.7499    0.7095 H   0  0  0  0  0  0  0  0  0  0  0  0
  5  6  2  0  0  0  0
  5  7  1  0  0  0  0
  2  3  1  0  0  0  0
  2  4  1  0  0  0  0
  2  5  1  0  0  0  0
  1  2  1  0  0  0  0
 22 23  2  0  0  0  0
 22 24  1  0  0  0  0
 20 21  1  0  0  0  0
 19 20  1  0  0  0  0
 17 18  1  0  0  0  0
 17 19  2  0  0  0  0
 15 16  1  0  0  0  0
 15 17  1  0  0  0  0
 14 15  1  0  0  0  0
 14 20  2  0  0  0  0
 11 12  1  0  0  0  0
 11 13  1  0  0  0  0
 11 14  1  0  0  0  0
  9 10  1  0  0  0  0
  9 11  1  0  0  0  0
  9 22  1  0  0  0  0
  7  8  1  0  0  0  0
  7  9  1  0  0  0  0
 26 27  1  0  0  0  0
 26 28  1  0  0  0  0
 26 29  1  0  0  0  0
 24 25  1  0  0  0  0
 24 26  1  0  0  0  0
M  END
$$$$
default_name
  -OEChem-02102213163D

 29 29  0     1  0  0  0  0  0999 V2000
   -3.6042   -3.5728    1.4576 H   0  0  0  0  0  0  0  0  0  0  0  0
   -3.5202   -2.6488    0.8866 C   0  0  0  0  0  0  0  0  0  0  0  0
   -4.2052   -1.9048    1.2896 H   0  0  0  0  0  0  0  0  0  0  0  0
   -3.7552   -2.8428   -0.1584 H   0  0  0  0  0  0  0  0  0  0  0  0
   -2.1052   -2.1358    0.9946 C   0  0  0  0  0  0  0  0  0  0  0  0
   -1.2852   -2.7288    1.6826 O   0  0  0  0  0  0  0  0  0  0  0  0
   -1.8202   -1.0288    0.3146 N   0  0  0  0  0  0  0  0  0  0  0  0
   -2.5542   -0.5788   -0.2104 H   0  0  0  0  0  0  0  0  0  0  0  0
   -0.5102   -0.3728    0.3086 C   0  0  1  0  0  0  0  0  0  0  0  0
    0.0719   -0.7468    1.1521 H   0  0  0  0  0  0  0  0  0  0  0  0
    0.2338   -0.7427   -0.9878 C   0  0  0  0  0  0  0  0  0  0  0  0
   -0.0993   -1.7267   -1.3227 H   0  0  0  0  0  0  0  0  0  0  0  0
   -0.0229   -0.0195   -1.7641 H   0  0  0  0  0  0  0  0  0  0  0  0
    1.7327   -0.7700   -0.8368 C   0  0  0  0  0  0  0  0  0  0  0  0
    2.4716   -1.7494   -0.2084 N   0  0  0  0  0  0  0  0  0  0  0  0
    2.1025   -2.5387    0.3004 H   0  0  0  0  0  0  0  0  0  0  0  0
    3.7730   -1.4667   -0.3867 C   0  0  0  0  0  0  0  0  0  0  0  0
    4.5992   -2.0526   -0.0028 H   0  0  0  0  0  0  0  0  0  0  0  0
    3.9100   -0.3498   -1.1161 N   0  0  0  0  0  0  0  0  0  0  0  0
    2.6205    0.1045   -1.4046 C   0  0  0  0  0  0  0  0  0  0  0  0
    2.3669    0.9714   -2.0009 H   0  0  0  0  0  0  0  0  0  0  0  0
   -0.6600    1.1486    0.4782 C   0  0  0  0  0  0  0  0  0  0  0  0
   -1.5001    1.7648   -0.1771 O   0  0  0  0  0  0  0  0  0  0  0  0
    0.1634    1.7559    1.3418 N   0  0  0  0  0  0  0  0  0  0  0  0
    0.8618    1.1897    1.8008 H   0  0  0  0  0  0  0  0  0  0  0  0
    0.1509    3.1886    1.6256 C   0  0  0  0  0  0  0  0  0  0  0  0
   -0.8272    3.4794    2.0152 H   0  0  0  0  0  0  0  0  0  0  0  0
    0.9172    3.4314    2.3624 H   0  0  0  0  0  0  0  0  0  0  0  0
    0.3414    3.7499    0.7095 H   0  0  0  0  0  0  0  0  0  0  0  0
  5  6  2  0  0  0  0
  5  7  1  0  0  0  0
  2  3  1  0  0  0  0
  2  4  1  0  0  0  0
  2  5  1  0  0  0  0
  1  2  1  0  0  0  0
 22 23  2  0  0  0  0
 22 24  1  0  0  0  0
 20 21  1  0  0  0  0
 19 20  1  0  0  0  0
 17 18  1  0  0  0  0
 17 19  2  0  0  0  0
 15 16  1  0  0  0  0
 15 17  1  0  0  0  0
 14 15  1  0  0  0  0
 14 20  2  0  0  0  0
 11 12  1  0  0  0  0
 11 13  1  0  0  0  0
 11 14  1  0  0  0  0
  9 10  1  0  0  0  0
  9 11  1  0  0  0  0
  9 22  1  0  0  0  0
  7  8  1  0  0  0  0
  7  9  1  0  0  0  0
 26 27  1  0  0  0  0
 26 28  1  0  0  0  0
 26 29  1  0  0  0  0
 24 25  1  0  0  0  0
 24 26  1  0  0  0  0
M  END
$$$$
default_name
  -OEChem-02102213163D

 29 29  0     1  0  0  0  0  0999 V2000
   -3.6042   -3.5728    1.4576 H   0  0  0  0  0  0  0  0  0  0  0  0
   -3.5202   -2.6488    0.8866 C   0  0  0  0  0  0  0  0  0  0  0  0
   -4.2052   -1.9048    1.2896 H   0  0  0  0  0  0  0  0  0  0  0  0
   -3.7552   -2.8428   -0.1584 H   0  0  0  0  0  0  0  0  0  0  0  0
   -2.1052   -2.1358    0.9946 C   0  0  0  0  0  0  0  0  0  0  0  0
   -1.2852   -2.7288    1.6826 O   0  0  0  0  0  0  0  0  0  0  0  0
   -1.8202   -1.0288    0.3146 N   0  0  0  0  0  0  0  0  0  0  0  0
   -2.5542   -0.5788   -0.2104 H   0  0  0  0  0  0  0  0  0  0  0  0
   -0.5102   -0.3728    0.3086 C   0  0  1  0  0  0  0  0  0  0  0  0
    0.0719   -0.7468    1.1521 H   0  0  0  0  0  0  0  0  0  0  0  0
    0.2338   -0.7427   -0.9878 C   0  0  0  0  0  0  0  0  0  0  0  0
   -0.0993   -1.7267   -1.3227 H   0  0  0  0  0  0  0  0  0  0  0  0
   -0.0229   -0.0195   -1.7641 H   0  0  0  0  0  0  0  0  0  0  0  0
    1.7327   -0.7700   -0.8368 C   0  0  0  0  0  0  0  0  0  0  0  0
    2.4966   -1.8591   -0.4757 N   0  0  0  0  0  0  0  0  0  0  0  0
    2.1479   -2.7619   -0.1903 H   0  0  0  0  0  0  0  0  0  0  0  0
    3.7903   -1.5072   -0.5647 C   0  0  0  0  0  0  0  0  0  0  0  0
    4.6312   -2.1511   -0.3380 H   0  0  0  0  0  0  0  0  0  0  0  0
    3.8985   -0.2370   -0.9809 N   0  0  0  0  0  0  0  0  0  0  0  0
    2.5977    0.2435   -1.1531 C   0  0  0  0  0  0  0  0  0  0  0  0
    2.3219    1.2280   -1.5083 H   0  0  0  0  0  0  0  0  0  0  0  0
   -0.6600    1.1486    0.4782 C   0  0  0  0  0  0  0  0  0  0  0  0
   -1.5001    1.7648   -0.1771 O   0  0  0  0  0  0  0  0  0  0  0  0
    0.1634    1.7559    1.3418 N   0  0  0  0  0  0  0  0  0  0  0  0
    0.8618    1.1897    1.8008 H   0  0  0  0  0  0  0  0  0  0  0  0
    0.1509    3.1886    1.6256 C   0  0  0  0  0  0  0  0  0  0  0  0
   -0.8272    3.4794    2.0152 H   0  0  0  0  0  0  0  0  0  0  0  0
    0.9172    3.4314    2.3624 H   0  0  0  0  0  0  0  0  0  0  0  0
    0.3414    3.7499    0.7095 H   0  0  0  0  0  0  0  0  0  0  0  0
  5  6  2  0  0  0  0
  5  7  1  0  0  0  0
  2  3  1  0  0  0  0
  2  4  1  0  0  0  0
  2  5  1  0  0  0  0
  1  2  1  0  0  0  0
 22 23  2  0  0  0  0
 22 24  1  0  0  0  0
 20 21  1  0  0  0  0
 19 20  1  0  0  0  0
 17 18  1  0  0  0  0
 17 19  2  0  0  0  0
 15 16  1  0  0  0  0
 15 17  1  0  0  0  0
 14 15  1  0  0  0  0
 14 20  2  0  0  0  0
 11 12  1  0  0  0  0
 11 13  1  0  0  0  0
 11 14  1  0  0  0  0
  9 10  1  0  0  0  0
  9 11  1  0  0  0  0
  9 22  1  0  0  0  0
  7  8  1  0  0  0  0
  7  9  1  0  0  0  0
 26 27  1  0  0  0  0
 26 28  1  0  0  0  0
 26 29  1  0  0  0  0
 24 25  1  0  0  0  0
 24 26  1  0  0  0  0
M  END
$$$$
default_name
  -OEChem-02102213163D

 29 29  0     1  0  0  0  0  0999 V2000
   -3.6042   -3.5728    1.4576 H   0  0  0  0  0  0  0  0  0  0  0  0
   -3.5202   -2.6488    0.8866 C   0  0  0  0  0  0  0  0  0  0  0  0
   -4.2052   -1.9048    1.2896 H   0  0  0  0  0  0  0  0  0  0  0  0
   -3.7552   -2.8428   -0.1584 H   0  0  0  0  0  0  0  0  0  0  0  0
   -2.1052   -2.1358    0.9946 C   0  0  0  0  0  0  0  0  0  0  0  0
   -1.2852   -2.7288    1.6826 O   0  0  0  0  0  0  0  0  0  0  0  0
   -1.8202   -1.0288    0.3146 N   0  0  0  0  0  0  0  0  0  0  0  0
   -2.5542   -0.5788   -0.2104 H   0  0  0  0  0  0  0  0  0  0  0  0
   -0.5102   -0.3728    0.3086 C   0  0  1  0  0  0  0  0  0  0  0  0
    0.0719   -0.7468    1.1521 H   0  0  0  0  0  0  0  0  0  0  0  0
    0.2338   -0.7427   -0.9878 C   0  0  0  0  0  0  0  0  0  0  0  0
   -0.0993   -1.7267   -1.3227 H   0  0  0  0  0  0  0  0  0  0  0  0
   -0.0229   -0.0195   -1.7641 H   0  0  0  0  0  0  0  0  0  0  0  0
    1.7327   -0.7700   -0.8368 C   0  0  0  0  0  0  0  0  0  0  0  0
    2.5248   -1.8956   -0.7621 N   0  0  0  0  0  0  0  0  0  0  0  0
    2.1999   -2.8501   -0.7215 H   0  0  0  0  0  0  0  0  0  0  0  0
    3.8088   -1.5000   -0.7471 C   0  0  0  0  0  0  0  0  0  0  0  0
    4.6662   -2.1591   -0.6869 H   0  0  0  0  0  0  0  0  0  0  0  0
    3.8837   -0.1631   -0.8214 N   0  0  0  0  0  0  0  0  0  0  0  0
    2.5709    0.3123   -0.8746 C   0  0  0  0  0  0  0  0  0  0  0  0
    2.2695    1.3478   -0.9666 H   0  0  0  0  0  0  0  0  0  0  0  0
   -0.6600    1.1486    0.4782 C   0  0  0  0  0  0  0  0  0  0  0  0
   -1.5001    1.7648   -0.1771 O   0  0  0  0  0  0  0  0  0  0  0  0
    0.1634    1.7559    1.3418 N   0  0  0  0  0  0  0  0  0  0  0  0
    0.8618    1.1897    1.8008 H   0  0  0  0  0  0  0  0  0  0  0  0
    0.1509    3.1886    1.6256 C   0  0  0  0  0  0  0  0  0  0  0  0
   -0.8272    3.4794    2.0152 H   0  0  0  0  0  0  0  0  0  0  0  0
    0.9172    3.4314    2.3624 H   0  0  0  0  0  0  0  0  0  0  0  0
    0.3414    3.7499    0.7095 H   0  0  0  0  0  0  0  0  0  0  0  0
  5  6  2  0  0  0  0
  5  7  1  0  0  0  0
  2  3  1  0  0  0  0
  2  4  1  0  0  0  0
  2  5  1  0  0  0  0
  1  2  1  0  0  0  0
 22 23  2  0  0  0  0
 22 24  1  0  0  0  0
 20 21  1  0  0  0  0
 19 20  1  0  0  0  0
 17 18  1  0  0  0  0
 17 19  2  0  0  0  0
 15 16  1  0  0  0  0
 15 17  1  0  0  0  0
 14 15  1  0  0  0  0
 14 20  2  0  0  0  0
 11 12  1  0  0  0  0
 11 13  1  0  0  0  0
 11 14  1  0  0  0  0
  9 10  1  0  0  0  0
  9 11  1  0  0  0  0
  9 22  1  0  0  0  0
  7  8  1  0  0  0  0
  7  9  1  0  0  0  0
 26 27  1  0  0  0  0
 26 28  1  0  0  0  0
 26 29  1  0  0  0  0
 24 25  1  0  0  0  0
 24 26  1  0  0  0  0
M  END
$$$$
default_name
  -OEChem-02102213163D

 29 29  0     1  0  0  0  0  0999 V2000
   -3.6042   -3.5728    1.4576 H   0  0  0  0  0  0  0  0  0  0  0  0
   -3.5202   -2.6488    0.8866 C   0  0  0  0  0  0  0  0  0  0  0  0
   -4.2052   -1.9048    1.2896 H   0  0  0  0  0  0  0  0  0  0  0  0
   -3.7552   -2.8428   -0.1584 H   0  0  0  0  0  0  0  0  0  0  0  0
   -2.1052   -2.1358    0.9946 C   0  0  0  0  0  0  0  0  0  0  0  0
   -1.2852   -2.7288    1.6826 O   0  0  0  0  0  0  0  0  0  0  0  0
   -1.8202   -1.0288    0.3146 N   0  0  0  0  0  0  0  0  0  0  0  0
   -2.5542   -0.5788   -0.2104 H   0  0  0  0  0  0  0  0  0  0  0  0
   -0.5102   -0.3728    0.3086 C   0  0  1  0  0  0  0  0  0  0  0  0
    0.0719   -0.7468    1.1521 H   0  0  0  0  0  0  0  0  0  0  0  0
    0.2338   -0.7427   -0.9878 C   0  0  0  0  0  0  0  0  0  0  0  0
   -0.0993   -1.7267   -1.3227 H   0  0  0  0  0  0  0  0  0  0  0  0
   -0.0229   -0.0195   -1.7641 H   0  0  0  0  0  0  0  0  0  0  0  0
    1.7327   -0.7700   -0.8368 C   0  0  0  0  0  0  0  0  0  0  0  0
    2.5543   -1.8564   -1.0480 N   0  0  0  0  0  0  0  0  0  0  0  0
    2.2548   -2.7970   -1.2571 H   0  0  0  0  0  0  0  0  0  0  0  0
    3.8273   -1.4456   -0.9212 C   0  0  0  0  0  0  0  0  0  0  0  0
    4.7019   -2.0760   -1.0258 H   0  0  0  0  0  0  0  0  0  0  0  0
    3.8668   -0.1333   -0.6483 N   0  0  0  0  0  0  0  0  0  0  0  0
    2.5419    0.3065   -0.5880 C   0  0  0  0  0  0  0  0  0  0  0  0
    2.2132    1.3227   -0.4127 H   0  0  0  0  0  0  0  0  0  0  0  0
   -0.6600    1.1486    0.4782 C   0  0  0  0  0  0  0  0  0  0  0  0
   -1.5001    1.7648   -0.1771 O   0  0  0  0  0  0  0  0  0  0  0  0
    0.1634    1.7559    1.3418 N   0  0  0  0  0  0  0  0  0  0  0  0
    0.8618    1.1897    1.8008 H   0  0  0  0  0  0  0  0  0  0  0  0
    0.1509    3.1886    1.6256 C   0  0  0  0  0  0  0  0  0  0  0  0
   -0.8272    3.4794    2.0152 H   0  0  0  0  0  0  0  0  0  0  0  0
    0.9172    3.4314    2.3624 H   0  0  0  0  0  0  0  0  0  0  0  0
    0.3414    3.7499    0.7095 H   0  0  0  0  0  0  0  0  0  0  0  0
  5  6  2  0  0  0  0
  5  7  1  0  0  0  0
  2  3  1  0  0  0  0
  2  4  1  0  0  0  0
  2  5  1  0  0  0  0
  1  2  1  0  0  0  0
 22 23  2  0  0  0  0
 22 24  1  0  0  0  0
 20 21  1  0  0  0  0
 19 20  1  0  0  0  0
 17 18  1  0  0  0  0
 17 19  2  0  0  0  0
 15 16  1  0  0  0  0
 15 17  1  0  0  0  0
 14 15  1  0  0  0  0
 14 20  2  0  0  0  0
 11 12  1  0  0  0  0
 11 13  1  0  0  0  0
 11 14  1  0  0  0  0
  9 10  1  0  0  0  0
  9 11  1  0  0  0  0
  9 22  1  0  0  0  0
  7  8  1  0  0  0  0
  7  9  1  0  0  0  0
 26 27  1  0  0  0  0
 26 28  1  0  0  0  0
 26 29  1  0  0  0  0
 24 25  1  0  0  0  0
 24 26  1  0  0  0  0
M  END
$$$$
default_name
  -OEChem-02102213163D

 29 29  0     1  0  0  0  0  0999 V2000
   -3.6042   -3.5728    1.4576 H   0  0  0  0  0  0  0  0  0  0  0  0
   -3.5202   -2.6488    0.8866 C   0  0  0  0  0  0  0  0  0  0  0  0
   -4.2052   -1.9048    1.2896 H   0  0  0  0  0  0  0  0  0  0  0  0
   -3.7552   -2.8428   -0.1584 H   0  0  0  0  0  0  0  0  0  0  0  0
   -2.1052   -2.1358    0.9946 C   0  0  0  0  0  0  0  0  0  0  0  0
   -1.2852   -2.7288    1.6826 O   0  0  0  0  0  0  0  0  0  0  0  0
   -1.8202   -1.0288    0.3146 N   0  0  0  0  0  0  0  0  0  0  0  0
   -2.5542   -0.5788   -0.2104 H   0  0  0  0  0  0  0  0  0  0  0  0
   -0.5102   -0.3728    0.3086 C   0  0  1  0  0  0  0  0  0  0  0  0
    0.0719   -0.7468    1.1521 H   0  0  0  0  0  0  0  0  0  0  0  0
    0.2338   -0.7427   -0.9878 C   0  0  0  0  0  0  0  0  0  0  0  0
   -0.0993   -1.7267   -1.3227 H   0  0  0  0  0  0  0  0  0  0  0  0
   -0.0229   -0.0195   -1.7641 H   0  0  0  0  0  0  0  0  0  0  0  0
    1.7327   -0.7700   -0.8368 C   0  0  0  0  0  0  0  0  0  0  0  0
    2.5831   -1.7442   -1.3139 N   0  0  0  0  0  0  0  0  0  0  0  0
    2.3090   -2.6065   -1.7605 H   0  0  0  0  0  0  0  0  0  0  0  0
    3.8446   -1.3478   -1.0754 C   0  0  0  0  0  0  0  0  0  0  0  0
    4.7358   -1.9076   -1.3316 H   0  0  0  0  0  0  0  0  0  0  0  0
    3.8489   -0.1494   -0.4735 N   0  0  0  0  0  0  0  0  0  0  0  0
    2.5127    0.2262   -0.3127 C   0  0  0  0  0  0  0  0  0  0  0  0
    2.1569    1.1544    0.1155 H   0  0  0  0  0  0  0  0  0  0  0  0
   -0.6600    1.1486    0.4782 C   0  0  0  0  0  0  0  0  0  0  0  0
   -1.5001    1.7648   -0.1771 O   0  0  0  0  0  0  0  0  0  0  0  0
    0.1634    1.7559    1.3418 N   0  0  0  0  0  0  0  0  0  0  0  0
    0.8618    1.1897    1.8008 H   0  0  0  0  0  0  0  0  0  0  0  0
    0.1509    3.1886    1.6256 C   0  0  0  0  0  0  0  0  0  0  0  0
   -0.8272    3.4794    2.0152 H   0  0  0  0  0  0  0  0  0  0  0  0
    0.9172    3.4314    2.3624 H   0  0  0  0  0  0  0  0  0  0  0  0
    0.3414    3.7499    0.7095 H   0  0  0  0  0  0  0  0  0  0  0  0
  5  6  2  0  0  0  0
  5  7  1  0  0  0  0
  2  3  1  0  0  0  0
  2  4  1  0  0  0  0
  2  5  1  0  0  0  0
  1  2  1  0  0  0  0
 22 23  2  0  0  0  0
 22 24  1  0  0  0  0
 20 21  1  0  0  0  0
 19 20  1  0  0  0  0
 17 18  1  0  0  0  0
 17 19  2  0  0  0  0
 15 16  1  0  0  0  0
 15 17  1  0  0  0  0
 14 15  1  0  0  0  0
 14 20  2  0  0  0  0
 11 12  1  0  0  0  0
 11 13  1  0  0  0  0
 11 14  1  0  0  0  0
  9 10  1  0  0  0  0
  9 11  1  0  0  0  0
  9 22  1  0  0  0  0
  7  8  1  0  0  0  0
  7  9  1  0  0  0  0
 26 27  1  0  0  0  0
 26 28  1  0  0  0  0
 26 29  1  0  0  0  0
 24 25  1  0  0  0  0
 24 26  1  0  0  0  0
M  END
$$$$
default_name
  -OEChem-02102213163D

 29 29  0     1  0  0  0  0  0999 V2000
   -3.6042   -3.5728    1.4576 H   0  0  0  0  0  0  0  0  0  0  0  0
   -3.5202   -2.6488    0.8866 C   0  0  0  0  0  0  0  0  0  0  0  0
   -4.2052   -1.9048    1.2896 H   0  0  0  0  0  0  0  0  0  0  0  0
   -3.7552   -2.8428   -0.1584 H   0  0  0  0  0  0  0  0  0  0  0  0
   -2.1052   -2.1358    0.9946 C   0  0  0  0  0  0  0  0  0  0  0  0
   -1.2852   -2.7288    1.6826 O   0  0  0  0  0  0  0  0  0  0  0  0
   -1.8202   -1.0288    0.3146 N   0  0  0  0  0  0  0  0  0  0  0  0
   -2.5542   -0.5788   -0.2104 H   0  0  0  0  0  0  0  0  0  0  0  0
   -0.5102   -0.3728    0.3086 C   0  0  1  0  0  0  0  0  0  0  0  0
    0.0719   -0.7468    1.1521 H   0  0  0  0  0  0  0  0  0  0  0  0
    0.2338   -0.7427   -0.9878 C   0  0  0  0  0  0  0  0  0  0  0  0
   -0.0993   -1.7267   -1.3227 H   0  0  0  0  0  0  0  0  0  0  0  0
   -0.0229   -0.0195   -1.7641 H   0  0  0  0  0  0  0  0  0  0  0  0
    1.7327   -0.7700   -0.8368 C   0  0  0  0  0  0  0  0  0  0  0  0
    2.6093   -1.5666   -1.5417 N   0  0  0  0  0  0  0  0  0  0  0  0
    2.3588   -2.2915   -2.1974 H   0  0  0  0  0  0  0  0  0  0  0  0
    3.8595   -1.2131   -1.1990 C   0  0  0  0  0  0  0  0  0  0  0  0
    4.7656   -1.6653   -1.5835 H   0  0  0  0  0  0  0  0  0  0  0  0
    3.8312   -0.2105   -0.3090 N   0  0  0  0  0  0  0  0  0  0  0  0
    2.4853    0.0771   -0.0677 C   0  0  0  0  0  0  0  0  0  0  0  0
    2.1044    0.8543    0.5822 H   0  0  0  0  0  0  0  0  0  0  0  0
   -0.6600    1.1486    0.4782 C   0  0  0  0  0  0  0  0  0  0  0  0
   -1.5001    1.7648   -0.1771 O   0  0  0  0  0  0  0  0  0  0  0  0
    0.1634    1.7559    1.3418 N   0  0  0  0  0  0  0  0  0  0  0  0
    0.8618    1.1897    1.8008 H   0  0  0  0  0  0  0  0  0  0  0  0
    0.1509    3.1886    1.6256 C   0  0  0  0  0  0  0  0  0  0  0  0
   -0.8272    3.4794    2.0152 H   0  0  0  0  0  0  0  0  0  0  0  0
    0.9172    3.4314    2.3624 H   0  0  0  0  0  0  0  0  0  0  0  0
    0.3414    3.7499    0.7095 H   0  0  0  0  0  0  0  0  0  0  0  0
  5  6  2  0  0  0  0
  5  7  1  0  0  0  0
  2  3  1  0  0  0  0
  2  4  1  0  0  0  0
  2  5  1  0  0  0  0
  1  2  1  0  0  0  0
 22 23  2  0  0  0  0
 22 24  1  0  0  0  0
 20 21  1  0  0  0  0
 19 20  1  0  0  0  0
 17 18  1  0  0  0  0
 17 19  2  0  0  0  0
 15 16  1  0  0  0  0
 15 17  1  0  0  0  0
 14 15  1  0  0  0  0
 14 20  2  0  0  0  0
 11 12  1  0  0  0  0
 11 13  1  0  0  0  0
 11 14  1  0  0  0  0
  9 10  1  0  0  0  0
  9 11  1  0  0  0  0
  9 22  1  0  0  0  0
  7  8  1  0  0  0  0
  7  9  1  0  0  0  0
 26 27  1  0  0  0  0
 26 28  1  0  0  0  0
 26 29  1  0  0  0  0
 24 25  1  0  0  0  0
 24 26  1  0  0  0  0
M  END
$$$$
default_name
  -OEChem-02102213163D

 29 29  0     1  0  0  0  0  0999 V2000
   -3.6042   -3.5728    1.4576 H   0  0  0  0  0  0  0  0  0  0  0  0
   -3.5202   -2.6488    0.8866 C   0  0  0  0  0  0  0  0  0  0  0  0
   -4.2052   -1.9048    1.2896 H   0  0  0  0  0  0  0  0  0  0  0  0
   -3.7552   -2.8428   -0.1584 H   0  0  0  0  0  0  0  0  0  0  0  0
   -2.1052   -2.1358    0.9946 C   0  0  0  0  0  0  0  0  0  0  0  0
   -1.2852   -2.7288    1.6826 O   0  0  0  0  0  0  0  0  0  0  0  0
   -1.8202   -1.0288    0.3146 N   0  0  0  0  0  0  0  0  0  0  0  0
   -2.5542   -0.5788   -0.2104 H   0  0  0  0  0  0  0  0  0  0  0  0
   -0.5102   -0.3728    0.3086 C   0  0  1  0  0  0  0  0  0  0  0  0
    0.0719   -0.7468    1.1521 H   0  0  0  0  0  0  0  0  0  0  0  0
    0.2338   -0.7427   -0.9878 C   0  0  0  0  0  0  0  0  0  0  0  0
   -0.0993   -1.7267   -1.3227 H   0  0  0  0  0  0  0  0  0  0  0  0
   -0.0229   -0.0195   -1.7641 H   0  0  0  0  0  0  0  0  0  0  0  0
    1.7327   -0.7700   -0.8368 C   0  0  0  0  0  0  0  0  0  0  0  0
    2.6311   -1.3357   -1.7159 N   0  0  0  0  0  0  0  0  0  0  0  0
    2.4007   -1.8734   -2.5381 H   0  0  0  0  0  0  0  0  0  0  0  0
    3.8710   -1.0509   -1.2837 C   0  0  0  0  0  0  0  0  0  0  0  0
    4.7892   -1.3657   -1.7643 H   0  0  0  0  0  0  0  0  0  0  0  0
    3.8149   -0.3123   -0.1658 N   0  0  0  0  0  0  0  0  0  0  0  0
    2.4615   -0.1308    0.1305 C   0  0  0  0  0  0  0  0  0  0  0  0
    2.0593    0.4430    0.9554 H   0  0  0  0  0  0  0  0  0  0  0  0
   -0.6600    1.1486    0.4782 C   0  0  0  0  0  0  0  0  0  0  0  0
   -1.5001    1.7648   -0.1771 O   0  0  0  0  0  0  0  0  0  0  0  0
    0.1634    1.7559    1.3418 N   0  0  0  0  0  0  0  0  0  0  0  0
    0.8618    1.1897    1.8008 H   0  0  0  0  0  0  0  0  0  0  0  0
    0.1509    3.1886    1.6256 C   0  0  0  0  0  0  0  0  0  0  0  0
   -0.8272    3.4794    2.0152 H   0  0  0  0  0  0  0  0  0  0  0  0
    0.9172    3.4314    2.3624 H   0  0  0  0  0  0  0  0  0  0  0  0
    0.3414    3.7499    0.7095 H   0  0  0  0  0  0  0  0  0  0  0  0
  5  6  2  0  0  0  0
  5  7  1  0  0  0  0
  2  3  1  0  0  0  0
  2  4  1  0  0  0  0
  2  5  1  0  0  0  0
  1  2  1  0  0  0  0
 22 23  2  0  0  0  0
 22 24  1  0  0  0  0
 20 21  1  0  0  0  0
 19 20  1  0  0  0  0
 17 18  1  0  0  0  0
 17 19  2  0  0  0  0
 15 16  1  0  0  0  0
 15 17  1  0  0  0  0
 14 15  1  0  0  0  0
 14 20  2  0  0  0  0
 11 12  1  0  0  0  0
 11 13  1  0  0  0  0
 11 14  1  0  0  0  0
  9 10  1  0  0  0  0
  9 11  1  0  0  0  0
  9 22  1  0  0  0  0
  7  8  1  0  0  0  0
  7  9  1  0  0  0  0
 26 27  1  0  0  0  0
 26 28  1  0  0  0  0
 26 29  1  0  0  0  0
 24 25  1  0  0  0  0
 24 26  1  0  0  0  0
M  END
$$$$
default_name
  -OEChem-02102213163D

 29 29  0     1  0  0  0  0  0999 V2000
   -3.6042   -3.5728    1.4576 H   0  0  0  0  0  0  0  0  0  0  0  0
   -3.5202   -2.6488    0.8866 C   0  0  0  0  0  0  0  0  0  0  0  0
   -4.2052   -1.9048    1.2896 H   0  0  0  0  0  0  0  0  0  0  0  0
   -3.7552   -2.8428   -0.1584 H   0  0  0  0  0  0  0  0  0  0  0  0
   -2.1052   -2.1358    0.9946 C   0  0  0  0  0  0  0  0  0  0  0  0
   -1.2852   -2.7288    1.6826 O   0  0  0  0  0  0  0  0  0  0  0  0
   -1.8202   -1.0288    0.3146 N   0  0  0  0  0  0  0  0  0  0  0  0
   -2.5542   -0.5788   -0.2104 H   0  0  0  0  0  0  0  0  0  0  0  0
   -0.5102   -0.3728    0.3086 C   0  0  1  0  0  0  0  0  0  0  0  0
    0.0719   -0.7468    1.1521 H   0  0  0  0  0  0  0  0  0  0  0  0
    0.2338   -0.7427   -0.9878 C   0  0  0  0  0  0  0  0  0  0  0  0
   -0.2757   -1.5816   -1.4653 H   0  0  0  0  0  0  0  0  0  0  0  0
    0.1976    0.1060   -1.6733 H   0  0  0  0  0  0  0  0  0  0  0  0
    1.6762   -1.1195   -0.7694 C   0  0  0  0  0  0  0  0  0  0  0  0
    2.5781   -1.4933   -1.7425 N   0  0  0  0  0  0  0  0  0  0  0  0
    2.3728   -1.6386   -2.7197 H   0  0  0  0  0  0  0  0  0  0  0  0
    3.7810   -1.6367   -1.1613 C   0  0  0  0  0  0  0  0  0  0  0  0
    4.6910   -1.9308   -1.6699 H   0  0  0  0  0  0  0  0  0  0  0  0
    3.7001   -1.3592    0.1482 N   0  0  0  0  0  0  0  0  0  0  0  0
    2.3667   -1.0333    0.4100 C   0  0  0  0  0  0  0  0  0  0  0  0
    1.9586   -0.7308    1.3657 H   0  0  0  0  0  0  0  0  0  0  0  0
   -0.6600    1.1486    0.4782 C   0  0  0  0  0  0  0  0  0  0  0  0
   -1.5001    1.7648   -0.1771 O   0  0  0  0  0  0  0  0  0  0  0  0
    0.1634    1.7559    1.3418 N   0  0  0  0  0  0  0  0  0  0  0  0
    0.8618    1.1897    1.8008 H   0  0  0  0  0  0  0  0  0  0  0  0
    0.1509    3.1886    1.6256 C   0  0  0  0  0  0  0  0  0  0  0  0
   -0.8272    3.4794    2.0152 H   0  0  0  0  0  0  0  0  0  0  0  0
    0.9172    3.4314    2.3624 H   0  0  0  0  0  0  0  0  0  0  0  0
    0.3414    3.7499    0.7095 H   0  0  0  0  0  0  0  0  0  0  0  0
  5  6  2  0  0  0  0
  5  7  1  0  0  0  0
  2  3  1  0  0  0  0
  2  4  1  0  0  0  0
  2  5  1  0  0  0  0
  1  2  1  0  0  0  0
 22 23  2  0  0  0  0
 22 24  1  0  0  0  0
 20 21  1  0  0  0  0
 19 20  1  0  0  0  0
 17 18  1  0  0  0  0
 17 19  2  0  0  0  0
 15 16  1  0  0  0  0
 15 17  1  0  0  0  0
 14 15  1  0  0  0  0
 14 20  2  0  0  0  0
 11 12  1  0  0  0  0
 11 13  1  0  0  0  0
 11 14  1  0  0  0  0
  9 10  1  0  0  0  0
  9 11  1  0  0  0  0
  9 22  1  0  0  0  0
  7  8  1  0  0  0  0
  7  9  1  0  0  0  0
 26 27  1  0  0  0  0
 26 28  1  0  0  0  0
 26 29  1  0  0  0  0
 24 25  1  0  0  0  0
 24 26  1  0  0  0  0
M  END
$$$$
default_name
  -OEChem-02102213163D

 29 29  0     1  0  0  0  0  0999 V2000
   -3.6042   -3.5728    1.4576 H   0  0  0  0  0  0  0  0  0  0  0  0
   -3.5202   -2.6488    0.8866 C   0  0  0  0  0  0  0  0  0  0  0  0
   -4.2052   -1.9048    1.2896 H   0  0  0  0  0  0  0  0  0  0  0  0
   -3.7552   -2.8428   -0.1584 H   0  0  0  0  0  0  0  0  0  0  0  0
   -2.1052   -2.1358    0.9946 C   0  0  0  0  0  0  0  0  0  0  0  0
   -1.2852   -2.7288    1.6826 O   0  0  0  0  0  0  0  0  0  0  0  0
   -1.8202   -1.0288    0.3146 N   0  0  0  0  0  0  0  0  0  0  0  0
   -2.5542   -0.5788   -0.2104 H   0  0  0  0  0  0  0  0  0  0  0  0
   -0.5102   -0.3728    0.3086 C   0  0  1  0  0  0  0  0  0  0  0  0
    0.0719   -0.7468    1.1521 H   0  0  0  0  0  0  0  0  0  0  0  0
    0.2338   -0.7427   -0.9878 C   0  0  0  0  0  0  0  0  0  0  0  0
   -0.2757   -1.5816   -1.4653 H   0  0  0  0  0  0  0  0  0  0  0  0
    0.1976    0.1060   -1.6733 H   0  0  0  0  0  0  0  0  0  0  0  0
    1.6762   -1.1195   -0.7694 C   0  0  0  0  0  0  0  0  0  0  0  0
    2.6510   -1.2126   -1.7396 N   0  0  0  0  0  0  0  0  0  0  0  0
    2.5115   -1.1159   -2.7343 H   0  0  0  0  0  0  0  0  0  0  0  0
    3.8221   -1.4608   -1.1295 C   0  0  0  0  0  0  0  0  0  0  0  0
    4.7735   -1.5921   -1.6305 H   0  0  0  0  0  0  0  0  0  0  0  0
    3.6502   -1.5206    0.1991 N   0  0  0  0  0  0  0  0  0  0  0  0
    2.2901   -1.3094    0.4399 C   0  0  0  0  0  0  0  0  0  0  0  0
    1.8120   -1.2666    1.4100 H   0  0  0  0  0  0  0  0  0  0  0  0
   -0.6600    1.1486    0.4782 C   0  0  0  0  0  0  0  0  0  0  0  0
   -1.5001    1.7648   -0.1771 O   0  0  0  0  0  0  0  0  0  0  0  0
    0.1634    1.7559    1.3418 N   0  0  0  0  0  0  0  0  0  0  0  0
    0.8618    1.1897    1.8008 H   0  0  0  0  0  0  0  0  0  0  0  0
    0.1509    3.1886    1.6256 C   0  0  0  0  0  0  0  0  0  0  0  0
   -0.8272    3.4794    2.0152 H   0  0  0  0  0  0  0  0  0  0  0  0
    0.9172    3.4314    2.3624 H   0  0  0  0  0  0  0  0  0  0  0  0
    0.3414    3.7499    0.7095 H   0  0  0  0  0  0  0  0  0  0  0  0
  5  6  2  0  0  0  0
  5  7  1  0  0  0  0
  2  3  1  0  0  0  0
  2  4  1  0  0  0  0
  2  5  1  0  0  0  0
  1  2  1  0  0  0  0
 22 23  2  0  0  0  0
 22 24  1  0  0  0  0
 20 21  1  0  0  0  0
 19 20  1  0  0  0  0
 17 18  1  0  0  0  0
 17 19  2  0  0  0  0
 15 16  1  0  0  0  0
 15 17  1  0  0  0  0
 14 15  1  0  0  0  0
 14 20  2  0  0  0  0
 11 12  1  0  0  0  0
 11 13  1  0  0  0  0
 11 14  1  0  0  0  0
  9 10  1  0  0  0  0
  9 11  1  0  0  0  0
  9 22  1  0  0  0  0
  7  8  1  0  0  0  0
  7  9  1  0  0  0  0
 26 27  1  0  0  0  0
 26 28  1  0  0  0  0
 26 29  1  0  0  0  0
 24 25  1  0  0  0  0
 24 26  1  0  0  0  0
M  END
$$$$
default_name
  -OEChem-02102213163D

 29 29  0     1  0  0  0  0  0999 V2000
   -3.6042   -3.5728    1.4576 H   0  0  0  0  0  0  0  0  0  0  0  0
   -3.5202   -2.6488    0.8866 C   0  0  0  0  0  0  0  0  0  0  0  0
   -4.2052   -1.9048    1.2896 H   0  0  0  0  0  0  0  0  0  0  0  0
   -3.7552   -2.8428   -0.1584 H   0  0  0  0  0  0  0  0  0  0  0  0
   -2.1052   -2.1358    0.9946 C   0  0  0  0  0  0  0  0  0  0  0  0
   -1.2852   -2.7288    1.6826 O   0  0  0  0  0  0  0  0  0  0  0  0
   -1.8202   -1.0288    0.3146 N   0  0  0  0  0  0  0  0  0  0  0  0
   -2.5542   -0.5788   -0.2104 H   0  0  0  0  0  0  0  0  0  0  0  0
   -0.5102   -0.3728    0.3086 C   0  0  1  0  0  0  0  0  0  0  0  0
    0.0719   -0.7468    1.1521 H   0  0  0  0  0  0  0  0  0  0  0  0
    0.2338   -0.7427   -0.9878 C   0  0  0  0  0  0  0  0  0  0  0  0
   -0.2757   -1.5816   -1.4653 H   0  0  0  0  0  0  0  0  0  0  0  0
    0.1976    0.1060   -1.6733 H   0  0  0  0  0  0  0  0  0  0  0  0
    1.6762   -1.1195   -0.7694 C   0  0  0  0  0  0  0  0  0  0  0  0
    2.7107   -0.9394   -1.6625 N   0  0  0  0  0  0  0  0  0  0  0  0
    2.6268   -0.6022   -2.6098 H   0  0  0  0  0  0  0  0  0  0  0  0
    3.8532   -1.2973   -1.0527 C   0  0  0  0  0  0  0  0  0  0  0  0
    4.8379   -1.2717   -1.5032 H   0  0  0  0  0  0  0  0  0  0  0  0
    3.6048   -1.6910    0.2049 N   0  0  0  0  0  0  0  0  0  0  0  0
    2.2245   -1.5865    0.3953 C   0  0  0  0  0  0  0  0  0  0  0  0
    1.6876   -1.8006    1.3104 H   0  0  0  0  0  0  0  0  0  0  0  0
   -0.6600    1.1486    0.4782 C   0  0  0  0  0  0  0  0  0  0  0  0
   -1.5001    1.7648   -0.1771 O   0  0  0  0  0  0  0  0  0  0  0  0
    0.1634    1.7559    1.3418 N   0  0  0  0  0  0  0  0  0  0  0  0
    0.8618    1.1897    1.8008 H   0  0  0  0  0  0  0  0  0  0  0  0
    0.1509    3.1886    1.6256 C   0  0  0  0  0  0  0  0  0  0  0  0
   -0.8272    3.4794    2.0152 H   0  0  0  0  0  0  0  0  0  0  0  0
    0.9172    3.4314    2.3624 H   0  0  0  0  0  0  0  0  0  0  0  0
    0.3414    3.7499    0.7095 H   0  0  0  0  0  0  0  0  0  0  0  0
  5  6  2  0  0  0  0
  5  7  1  0  0  0  0
  2  3  1  0  0  0  0
  2  4  1  0  0  0  0
  2  5  1  0  0  0  0
  1  2  1  0  0  0  0
 22 23  2  0  0  0  0
 22 24  1  0  0  0  0
 20 21  1  0  0  0  0
 19 20  1  0  0  0  0
 17 18  1  0  0  0  0
 17 19  2  0  0  0  0
 15 16  1  0  0  0  0
 15 17  1  0  0  0  0
 14 15  1  0  0  0  0
 14 20  2  0  0  0  0
 11 12  1  0  0  0  0
 11 13  1  0  0  0  0
 11 14  1  0  0  0  0
  9 10  1  0  0  0  0
  9 11  1  0  0  0  0
  9 22  1  0  0  0  0
  7  8  1  0  0  0  0
  7  9  1  0  0  0  0
 26 27  1  0  0  0  0
 26 28  1  0  0  0  0
 26 29  1  0  0  0  0
 24 25  1  0  0  0  0
 24 26  1  0  0  0  0
M  END
$$$$
default_name
  -OEChem-02102213163D

 29 29  0     1  0  0  0  0  0999 V2000
   -3.6042   -3.5728    1.4576 H   0  0  0  0  0  0  0  0  0  0  0  0
   -3.5202   -2.6488    0.8866 C   0  0  0  0  0  0  0  0  0  0  0  0
   -4.2052   -1.9048    1.2896 H   0  0  0  0  0  0  0  0  0  0  0  0
   -3.7552   -2.8428   -0.1584 H   0  0  0  0  0  0  0  0  0  0  0  0
   -2.1052   -2.1358    0.9946 C   0  0  0  0  0  0  0  0  0  0  0  0
   -1.2852   -2.7288    1.6826 O   0  0  0  0  0  0  0  0  0  0  0  0
   -1.8202   -1.0288    0.3146 N   0  0  0  0  0  0  0  0  0  0  0  0
   -2.5542   -0.5788   -0.2104 H   0  0  0  0  0  0  0  0  0  0  0  0
   -0.5102   -0.3728    0.3086 C   0  0  1  0  0  0  0  0  0  0  0  0
    0.0719   -0.7468    1.1521 H   0  0  0  0  0  0  0  0  0  0  0  0
    0.2338   -0.7427   -0.9878 C   0  0  0  0  0  0  0  0  0  0  0  0
   -0.2757   -1.5816   -1.4653 H   0  0  0  0  0  0  0  0  0  0  0  0
    0.1976    0.1060   -1.6733 H   0  0  0  0  0  0  0  0  0  0  0  0
    1.6762   -1.1195   -0.7694 C   0  0  0  0  0  0  0  0  0  0  0  0
    2.7531   -0.6924   -1.5165 N   0  0  0  0  0  0  0  0  0  0  0  0
    2.7109   -0.1326   -2.3549 H   0  0  0  0  0  0  0  0  0  0  0  0
    3.8721   -1.1571   -0.9359 C   0  0  0  0  0  0  0  0  0  0  0  0
    4.8799   -0.9913   -1.2967 H   0  0  0  0  0  0  0  0  0  0  0  0
    3.5670   -1.8588    0.1655 N   0  0  0  0  0  0  0  0  0  0  0  0
    2.1744   -1.8455    0.2794 C   0  0  0  0  0  0  0  0  0  0  0  0
    1.5939   -2.2964    1.0739 H   0  0  0  0  0  0  0  0  0  0  0  0
   -0.6600    1.1486    0.4782 C   0  0  0  0  0  0  0  0  0  0  0  0
   -1.5001    1.7648   -0.1771 O   0  0  0  0  0  0  0  0  0  0  0  0
    0.1634    1.7559    1.3418 N   0  0  0  0  0  0  0  0  0  0  0  0
    0.8618    1.1897    1.8008 H   0  0  0  0  0  0  0  0  0  0  0  0
    0.1509    3.1886    1.6256 C   0  0  0  0  0  0  0  0  0  0  0  0
   -0.8272    3.4794    2.0152 H   0  0  0  0  0  0  0  0  0  0  0  0
    0.9172    3.4314    2.3624 H   0  0  0  0  0  0  0  0  0  0  0  0
    0.3414    3.7499    0.7095 H   0  0  0  0  0  0  0  0  0  0  0  0
  5  6  2  0  0  0  0
  5  7  1  0  0  0  0
  2  3  1  0  0  0  0
  2  4  1  0  0  0  0
  2  5  1  0  0  0  0
  1  2  1  0  0  0  0
 22 23  2  0  0  0  0
 22 24  1  0  0  0  0
 20 21  1  0  0  0  0
 19 20  1  0  0  0  0
 17 18  1  0  0  0  0
 17 19  2  0  0  0  0
 15 16  1  0  0  0  0
 15 17  1  0  0  0  0
 14 15  1  0  0  0  0
 14 20  2  0  0  0  0
 11 12  1  0  0  0  0
 11 13  1  0  0  0  0
 11 14  1  0  0  0  0
  9 10  1  0  0  0  0
  9 11  1  0  0  0  0
  9 22  1  0  0  0  0
  7  8  1  0  0  0  0
  7  9  1  0  0  0  0
 26 27  1  0  0  0  0
 26 28  1  0  0  0  0
 26 29  1  0  0  0  0
 24 25  1  0  0  0  0
 24 26  1  0  0  0  0
M  END
$$$$
default_name
  -OEChem-02102213163D

 29 29  0     1  0  0  0  0  0999 V2000
   -3.6042   -3.5728    1.4576 H   0  0  0  0  0  0  0  0  0  0  0  0
   -3.5202   -2.6488    0.8866 C   0  0  0  0  0  0  0  0  0  0  0  0
   -4.2052   -1.9048    1.2896 H   0  0  0  0  0  0  0  0  0  0  0  0
   -3.7552   -2.8428   -0.1584 H   0  0  0  0  0  0  0  0  0  0  0  0
   -2.1052   -2.1358    0.9946 C   0  0  0  0  0  0  0  0  0  0  0  0
   -1.2852   -2.7288    1.6826 O   0  0  0  0  0  0  0  0  0  0  0  0
   -1.8202   -1.0288    0.3146 N   0  0  0  0  0  0  0  0  0  0  0  0
   -2.5542   -0.5788   -0.2104 H   0  0  0  0  0  0  0  0  0  0  0  0
   -0.5102   -0.3728    0.3086 C   0  0  1  0  0  0  0  0  0  0  0  0
    0.0719   -0.7468    1.1521 H   0  0  0  0  0  0  0  0  0  0  0  0
    0.2338   -0.7427   -0.9878 C   0  0  0  0  0  0  0  0  0  0  0  0
   -0.2757   -1.5816   -1.4653 H   0  0  0  0  0  0  0  0  0  0  0  0
    0.1976    0.1060   -1.6733 H   0  0  0  0  0  0  0  0  0  0  0  0
    1.6762   -1.1195   -0.7694 C   0  0  0  0  0  0  0  0  0  0  0  0
    2.7753   -0.4884   -1.3115 N   0  0  0  0  0  0  0  0  0  0  0  0
    2.7580    0.2611   -1.9868 H   0  0  0  0  0  0  0  0  0  0  0  0
    3.8776   -1.0500   -0.7871 C   0  0  0  0  0  0  0  0  0  0  0  0
    4.8965   -0.7700   -1.0250 H   0  0  0  0  0  0  0  0  0  0  0  0
    3.5393   -2.0124    0.0833 N   0  0  0  0  0  0  0  0  0  0  0  0
    2.1432   -2.0689    0.1000 C   0  0  0  0  0  0  0  0  0  0  0  0
    1.5373   -2.7202    0.7165 H   0  0  0  0  0  0  0  0  0  0  0  0
   -0.6600    1.1486    0.4782 C   0  0  0  0  0  0  0  0  0  0  0  0
   -1.5001    1.7648   -0.1771 O   0  0  0  0  0  0  0  0  0  0  0  0
    0.1634    1.7559    1.3418 N   0  0  0  0  0  0  0  0  0  0  0  0
    0.8618    1.1897    1.8008 H   0  0  0  0  0  0  0  0  0  0  0  0
    0.1509    3.1886    1.6256 C   0  0  0  0  0  0  0  0  0  0  0  0
   -0.8272    3.4794    2.0152 H   0  0  0  0  0  0  0  0  0  0  0  0
    0.9172    3.4314    2.3624 H   0  0  0  0  0  0  0  0  0  0  0  0
    0.3414    3.7499    0.7095 H   0  0  0  0  0  0  0  0  0  0  0  0
  5  6  2  0  0  0  0
  5  7  1  0  0  0  0
  2  3  1  0  0  0  0
  2  4  1  0  0  0  0
  2  5  1  0  0  0  0
  1  2  1  0  0  0  0
 22 23  2  0  0  0  0
 22 24  1  0  0  0  0
 20 21  1  0  0  0  0
 19 20  1  0  0  0  0
 17 18  1  0  0  0  0
 17 19  2  0  0  0  0
 15 16  1  0  0  0  0
 15 17  1  0  0  0  0
 14 15  1  0  0  0  0
 14 20  2  0  0  0  0
 11 12  1  0  0  0  0
 11 13  1  0  0  0  0
 11 14  1  0  0  0  0
  9 10  1  0  0  0  0
  9 11  1  0  0  0  0
  9 22  1  0  0  0  0
  7  8  1  0  0  0  0
  7  9  1  0  0  0  0
 26 27  1  0  0  0  0
 26 28  1  0  0  0  0
 26 29  1  0  0  0  0
 24 25  1  0  0  0  0
 24 26  1  0  0  0  0
M  END
$$$$
default_name
  -OEChem-02102213163D

 29 29  0     1  0  0  0  0  0999 V2000
   -3.6042   -3.5728    1.4576 H   0  0  0  0  0  0  0  0  0  0  0  0
   -3.5202   -2.6488    0.8866 C   0  0  0  0  0  0  0  0  0  0  0  0
   -4.2052   -1.9048    1.2896 H   0  0  0  0  0  0  0  0  0  0  0  0
   -3.7552   -2.8428   -0.1584 H   0  0  0  0  0  0  0  0  0  0  0  0
   -2.1052   -2.1358    0.9946 C   0  0  0  0  0  0  0  0  0  0  0  0
   -1.2852   -2.7288    1.6826 O   0  0  0  0  0  0  0  0  0  0  0  0
   -1.8202   -1.0288    0.3146 N   0  0  0  0  0  0  0  0  0  0  0  0
   -2.5542   -0.5788   -0.2104 H   0  0  0  0  0  0  0  0  0  0  0  0
   -0.5102   -0.3728    0.3086 C   0  0  1  0  0  0  0  0  0  0  0  0
    0.0719   -0.7468    1.1521 H   0  0  0  0  0  0  0  0  0  0  0  0
    0.2338   -0.7427   -0.9878 C   0  0  0  0  0  0  0  0  0  0  0  0
   -0.2757   -1.5816   -1.4653 H   0  0  0  0  0  0  0  0  0  0  0  0
    0.1976    0.1060   -1.6733 H   0  0  0  0  0  0  0  0  0  0  0  0
    1.6762   -1.1195   -0.7694 C   0  0  0  0  0  0  0  0  0  0  0  0
    2.7759   -0.3413   -1.0615 N   0  0  0  0  0  0  0  0  0  0  0  0
    2.7649    0.5519   -1.5307 H   0  0  0  0  0  0  0  0  0  0  0  0
    3.8692   -0.9832   -0.6165 C   0  0  0  0  0  0  0  0  0  0  0  0
    4.8867   -0.6230   -0.7067 H   0  0  0  0  0  0  0  0  0  0  0  0
    3.5236   -2.1415   -0.0359 N   0  0  0  0  0  0  0  0  0  0  0  0
    2.1331   -2.2413   -0.1306 C   0  0  0  0  0  0  0  0  0  0  0  0
    1.5217   -3.0432    0.2627 H   0  0  0  0  0  0  0  0  0  0  0  0
   -0.6600    1.1486    0.4782 C   0  0  0  0  0  0  0  0  0  0  0  0
   -1.5001    1.7648   -0.1771 O   0  0  0  0  0  0  0  0  0  0  0  0
    0.1634    1.7559    1.3418 N   0  0  0  0  0  0  0  0  0  0  0  0
    0.8618    1.1897    1.8008 H   0  0  0  0  0  0  0  0  0  0  0  0
    0.1509    3.1886    1.6256 C   0  0  0  0  0  0  0  0  0  0  0  0
   -0.8272    3.4794    2.0152 H   0  0  0  0  0  0  0  0  0  0  0  0
    0.9172    3.4314    2.3624 H   0  0  0  0  0  0  0  0  0  0  0  0
    0.3414    3.7499    0.7095 H   0  0  0  0  0  0  0  0  0  0  0  0
  5  6  2  0  0  0  0
  5  7  1  0  0  0  0
  2  3  1  0  0  0  0
  2  4  1  0  0  0  0
  2  5  1  0  0  0  0
  1  2  1  0  0  0  0
 22 23  2  0  0  0  0
 22 24  1  0  0  0  0
 20 21  1  0  0  0  0
 19 20  1  0  0  0  0
 17 18  1  0  0  0  0
 17 19  2  0  0  0  0
 15 16  1  0  0  0  0
 15 17  1  0  0  0  0
 14 15  1  0  0  0  0
 14 20  2  0  0  0  0
 11 12  1  0  0  0  0
 11 13  1  0  0  0  0
 11 14  1  0  0  0  0
  9 10  1  0  0  0  0
  9 11  1  0  0  0  0
  9 22  1  0  0  0  0
  7  8  1  0  0  0  0
  7  9  1  0  0  0  0
 26 27  1  0  0  0  0
 26 28  1  0  0  0  0
 26 29  1  0  0  0  0
 24 25  1  0  0  0  0
 24 26  1  0  0  0  0
M  END
$$$$
default_name
  -OEChem-02102213163D

 29 29  0     1  0  0  0  0  0999 V2000
   -3.6042   -3.5728    1.4576 H   0  0  0  0  0  0  0  0  0  0  0  0
   -3.5202   -2.6488    0.8866 C   0  0  0  0  0  0  0  0  0  0  0  0
   -4.2052   -1.9048    1.2896 H   0  0  0  0  0  0  0  0  0  0  0  0
   -3.7552   -2.8428   -0.1584 H   0  0  0  0  0  0  0  0  0  0  0  0
   -2.1052   -2.1358    0.9946 C   0  0  0  0  0  0  0  0  0  0  0  0
   -1.2852   -2.7288    1.6826 O   0  0  0  0  0  0  0  0  0  0  0  0
   -1.8202   -1.0288    0.3146 N   0  0  0  0  0  0  0  0  0  0  0  0
   -2.5542   -0.5788   -0.2104 H   0  0  0  0  0  0  0  0  0  0  0  0
   -0.5102   -0.3728    0.3086 C   0  0  1  0  0  0  0  0  0  0  0  0
    0.0719   -0.7468    1.1521 H   0  0  0  0  0  0  0  0  0  0  0  0
    0.2338   -0.7427   -0.9878 C   0  0  0  0  0  0  0  0  0  0  0  0
   -0.2757   -1.5816   -1.4653 H   0  0  0  0  0  0  0  0  0  0  0  0
    0.1976    0.1060   -1.6733 H   0  0  0  0  0  0  0  0  0  0  0  0
    1.6762   -1.1195   -0.7694 C   0  0  0  0  0  0  0  0  0  0  0  0
    2.7547   -0.2612   -0.7836 N   0  0  0  0  0  0  0  0  0  0  0  0
    2.7311    0.7200   -1.0177 H   0  0  0  0  0  0  0  0  0  0  0  0
    3.8476   -0.9612   -0.4357 C   0  0  0  0  0  0  0  0  0  0  0  0
    4.8511   -0.5602   -0.3634 H   0  0  0  0  0  0  0  0  0  0  0  0
    3.5210   -2.2373   -0.1840 N   0  0  0  0  0  0  0  0  0  0  0  0
    2.1447   -2.3511   -0.3968 C   0  0  0  0  0  0  0  0  0  0  0  0
    1.5481   -3.2433   -0.2568 H   0  0  0  0  0  0  0  0  0  0  0  0
   -0.6600    1.1486    0.4782 C   0  0  0  0  0  0  0  0  0  0  0  0
   -1.5001    1.7648   -0.1771 O   0  0  0  0  0  0  0  0  0  0  0  0
    0.1634    1.7559    1.3418 N   0  0  0  0  0  0  0  0  0  0  0  0
    0.8618    1.1897    1.8008 H   0  0  0  0  0  0  0  0  0  0  0  0
    0.1509    3.1886    1.6256 C   0  0  0  0  0  0  0  0  0  0  0  0
   -0.8272    3.4794    2.0152 H   0  0  0  0  0  0  0  0  0  0  0  0
    0.9172    3.4314    2.3624 H   0  0  0  0  0  0  0  0  0  0  0  0
    0.3414    3.7499    0.7095 H   0  0  0  0  0  0  0  0  0  0  0  0
  5  6  2  0  0  0  0
  5  7  1  0  0  0  0
  2  3  1  0  0  0  0
  2  4  1  0  0  0  0
  2  5  1  0  0  0  0
  1  2  1  0  0  0  0
 22 23  2  0  0  0  0
 22 24  1  0  0  0  0
 20 21  1  0  0  0  0
 19 20  1  0  0  0  0
 17 18  1  0  0  0  0
 17 19  2  0  0  0  0
 15 16  1  0  0  0  0
 15 17  1  0  0  0  0
 14 15  1  0  0  0  0
 14 20  2  0  0  0  0
 11 12  1  0  0  0  0
 11 13  1  0  0  0  0
 11 14  1  0  0  0  0
  9 10  1  0  0  0  0
  9 11  1  0  0  0  0
  9 22  1  0  0  0  0
  7  8  1  0  0  0  0
  7  9  1  0  0  0  0
 26 27  1  0  0  0  0
 26 28  1  0  0  0  0
 26 29  1  0  0  0  0
 24 25  1  0  0  0  0
 24 26  1  0  0  0  0
M  END
$$$$
default_name
  -OEChem-02102213163D

 29 29  0     1  0  0  0  0  0999 V2000
   -3.6042   -3.5728    1.4576 H   0  0  0  0  0  0  0  0  0  0  0  0
   -3.5202   -2.6488    0.8866 C   0  0  0  0  0  0  0  0  0  0  0  0
   -4.2052   -1.9048    1.2896 H   0  0  0  0  0  0  0  0  0  0  0  0
   -3.7552   -2.8428   -0.1584 H   0  0  0  0  0  0  0  0  0  0  0  0
   -2.1052   -2.1358    0.9946 C   0  0  0  0  0  0  0  0  0  0  0  0
   -1.2852   -2.7288    1.6826 O   0  0  0  0  0  0  0  0  0  0  0  0
   -1.8202   -1.0288    0.3146 N   0  0  0  0  0  0  0  0  0  0  0  0
   -2.5542   -0.5788   -0.2104 H   0  0  0  0  0  0  0  0  0  0  0  0
   -0.5102   -0.3728    0.3086 C   0  0  1  0  0  0  0  0  0  0  0  0
    0.0719   -0.7468    1.1521 H   0  0  0  0  0  0  0  0  0  0  0  0
    0.2338   -0.7427   -0.9878 C   0  0  0  0  0  0  0  0  0  0  0  0
   -0.2757   -1.5816   -1.4653 H   0  0  0  0  0  0  0  0  0  0  0  0
    0.1976    0.1060   -1.6733 H   0  0  0  0  0  0  0  0  0  0  0  0
    1.6762   -1.1195   -0.7694 C   0  0  0  0  0  0  0  0  0  0  0  0
    2.7133   -0.2534   -0.4966 N   0  0  0  0  0  0  0  0  0  0  0  0
    2.6590    0.7541   -0.4826 H   0  0  0  0  0  0  0  0  0  0  0  0
    3.8141   -0.9856   -0.2570 C   0  0  0  0  0  0  0  0  0  0  0  0
    4.7922   -0.5860   -0.0186 H   0  0  0  0  0  0  0  0  0  0  0  0
    3.5317   -2.2932   -0.3510 N   0  0  0  0  0  0  0  0  0  0  0  0
    2.1772   -2.3908   -0.6803 C   0  0  0  0  0  0  0  0  0  0  0  0
    1.6147   -3.3069   -0.8064 H   0  0  0  0  0  0  0  0  0  0  0  0
   -0.6600    1.1486    0.4782 C   0  0  0  0  0  0  0  0  0  0  0  0
   -1.5001    1.7648   -0.1771 O   0  0  0  0  0  0  0  0  0  0  0  0
    0.1634    1.7559    1.3418 N   0  0  0  0  0  0  0  0  0  0  0  0
    0.8618    1.1897    1.8008 H   0  0  0  0  0  0  0  0  0  0  0  0
    0.1509    3.1886    1.6256 C   0  0  0  0  0  0  0  0  0  0  0  0
   -0.8272    3.4794    2.0152 H   0  0  0  0  0  0  0  0  0  0  0  0
    0.9172    3.4314    2.3624 H   0  0  0  0  0  0  0  0  0  0  0  0
    0.3414    3.7499    0.7095 H   0  0  0  0  0  0  0  0  0  0  0  0
  5  6  2  0  0  0  0
  5  7  1  0  0  0  0
  2  3  1  0  0  0  0
  2  4  1  0  0  0  0
  2  5  1  0  0  0  0
  1  2  1  0  0  0  0
 22 23  2  0  0  0  0
 22 24  1  0  0  0  0
 20 21  1  0  0  0  0
 19 20  1  0  0  0  0
 17 18  1  0  0  0  0
 17 19  2  0  0  0  0
 15 16  1  0  0  0  0
 15 17  1  0  0  0  0
 14 15  1  0  0  0  0
 14 20  2  0  0  0  0
 11 12  1  0  0  0  0
 11 13  1  0  0  0  0
 11 14  1  0  0  0  0
  9 10  1  0  0  0  0
  9 11  1  0  0  0  0
  9 22  1  0  0  0  0
  7  8  1  0  0  0  0
  7  9  1  0  0  0  0
 26 27  1  0  0  0  0
 26 28  1  0  0  0  0
 26 29  1  0  0  0  0
 24 25  1  0  0  0  0
 24 26  1  0  0  0  0
M  END
$$$$
default_name
  -OEChem-02102213163D

 29 29  0     1  0  0  0  0  0999 V2000
   -3.6042   -3.5728    1.4576 H   0  0  0  0  0  0  0  0  0  0  0  0
   -3.5202   -2.6488    0.8866 C   0  0  0  0  0  0  0  0  0  0  0  0
   -4.2052   -1.9048    1.2896 H   0  0  0  0  0  0  0  0  0  0  0  0
   -3.7552   -2.8428   -0.1584 H   0  0  0  0  0  0  0  0  0  0  0  0
   -2.1052   -2.1358    0.9946 C   0  0  0  0  0  0  0  0  0  0  0  0
   -1.2852   -2.7288    1.6826 O   0  0  0  0  0  0  0  0  0  0  0  0
   -1.8202   -1.0288    0.3146 N   0  0  0  0  0  0  0  0  0  0  0  0
   -2.5542   -0.5788   -0.2104 H   0  0  0  0  0  0  0  0  0  0  0  0
   -0.5102   -0.3728    0.3086 C   0  0  1  0  0  0  0  0  0  0  0  0
    0.0719   -0.7468    1.1521 H   0  0  0  0  0  0  0  0  0  0  0  0
    0.2338   -0.7427   -0.9878 C   0  0  0  0  0  0  0  0  0  0  0  0
   -0.2757   -1.5816   -1.4653 H   0  0  0  0  0  0  0  0  0  0  0  0
    0.1976    0.1060   -1.6733 H   0  0  0  0  0  0  0  0  0  0  0  0
    1.6762   -1.1195   -0.7694 C   0  0  0  0  0  0  0  0  0  0  0  0
    2.6544   -0.3185   -0.2201 N   0  0  0  0  0  0  0  0  0  0  0  0
    2.5534    0.6517    0.0379 H   0  0  0  0  0  0  0  0  0  0  0  0
    3.7712   -1.0547   -0.0927 C   0  0  0  0  0  0  0  0  0  0  0  0
    4.7139   -0.6985    0.3043 H   0  0  0  0  0  0  0  0  0  0  0  0
    3.5549   -2.3054   -0.5255 N   0  0  0  0  0  0  0  0  0  0  0  0
    2.2285   -2.3577   -0.9619 C   0  0  0  0  0  0  0  0  0  0  0  0
    1.7170   -3.2296   -1.3487 H   0  0  0  0  0  0  0  0  0  0  0  0
   -0.6600    1.1486    0.4782 C   0  0  0  0  0  0  0  0  0  0  0  0
   -1.5001    1.7648   -0.1771 O   0  0  0  0  0  0  0  0  0  0  0  0
    0.1634    1.7559    1.3418 N   0  0  0  0  0  0  0  0  0  0  0  0
    0.8618    1.1897    1.8008 H   0  0  0  0  0  0  0  0  0  0  0  0
    0.1509    3.1886    1.6256 C   0  0  0  0  0  0  0  0  0  0  0  0
   -0.8272    3.4794    2.0152 H   0  0  0  0  0  0  0  0  0  0  0  0
    0.9172    3.4314    2.3624 H   0  0  0  0  0  0  0  0  0  0  0  0
    0.3414    3.7499    0.7095 H   0  0  0  0  0  0  0  0  0  0  0  0
  5  6  2  0  0  0  0
  5  7  1  0  0  0  0
  2  3  1  0  0  0  0
  2  4  1  0  0  0  0
  2  5  1  0  0  0  0
  1  2  1  0  0  0  0
 22 23  2  0  0  0  0
 22 24  1  0  0  0  0
 20 21  1  0  0  0  0
 19 20  1  0  0  0  0
 17 18  1  0  0  0  0
 17 19  2  0  0  0  0
 15 16  1  0  0  0  0
 15 17  1  0  0  0  0
 14 15  1  0  0  0  0
 14 20  2  0  0  0  0
 11 12  1  0  0  0  0
 11 13  1  0  0  0  0
 11 14  1  0  0  0  0
  9 10  1  0  0  0  0
  9 11  1  0  0  0  0
  9 22  1  0  0  0  0
  7  8  1  0  0  0  0
  7  9  1  0  0  0  0
 26 27  1  0  0  0  0
 26 28  1  0  0  0  0
 26 29  1  0  0  0  0
 24 25  1  0  0  0  0
 24 26  1  0  0  0  0
M  END
$$$$
default_name
  -OEChem-02102213163D

 29 29  0     1  0  0  0  0  0999 V2000
   -3.6042   -3.5728    1.4576 H   0  0  0  0  0  0  0  0  0  0  0  0
   -3.5202   -2.6488    0.8866 C   0  0  0  0  0  0  0  0  0  0  0  0
   -4.2052   -1.9048    1.2896 H   0  0  0  0  0  0  0  0  0  0  0  0
   -3.7552   -2.8428   -0.1584 H   0  0  0  0  0  0  0  0  0  0  0  0
   -2.1052   -2.1358    0.9946 C   0  0  0  0  0  0  0  0  0  0  0  0
   -1.2852   -2.7288    1.6826 O   0  0  0  0  0  0  0  0  0  0  0  0
   -1.8202   -1.0288    0.3146 N   0  0  0  0  0  0  0  0  0  0  0  0
   -2.5542   -0.5788   -0.2104 H   0  0  0  0  0  0  0  0  0  0  0  0
   -0.5102   -0.3728    0.3086 C   0  0  1  0  0  0  0  0  0  0  0  0
    0.0719   -0.7468    1.1521 H   0  0  0  0  0  0  0  0  0  0  0  0
    0.2338   -0.7427   -0.9878 C   0  0  0  0  0  0  0  0  0  0  0  0
   -0.2757   -1.5816   -1.4653 H   0  0  0  0  0  0  0  0  0  0  0  0
    0.1976    0.1060   -1.6733 H   0  0  0  0  0  0  0  0  0  0  0  0
    1.6762   -1.1195   -0.7694 C   0  0  0  0  0  0  0  0  0  0  0  0
    2.5821   -0.4522    0.0269 N   0  0  0  0  0  0  0  0  0  0  0  0
    2.4216    0.4198    0.5086 H   0  0  0  0  0  0  0  0  0  0  0  0
    3.7217   -1.1638    0.0462 C   0  0  0  0  0  0  0  0  0  0  0  0
    4.6216   -0.8901    0.5832 H   0  0  0  0  0  0  0  0  0  0  0  0
    3.5891   -2.2731   -0.6956 N   0  0  0  0  0  0  0  0  0  0  0  0
    2.2951   -2.2540   -1.2224 C   0  0  0  0  0  0  0  0  0  0  0  0
    1.8480   -3.0168   -1.8467 H   0  0  0  0  0  0  0  0  0  0  0  0
   -0.6600    1.1486    0.4782 C   0  0  0  0  0  0  0  0  0  0  0  0
   -1.5001    1.7648   -0.1771 O   0  0  0  0  0  0  0  0  0  0  0  0
    0.1634    1.7559    1.3418 N   0  0  0  0  0  0  0  0  0  0  0  0
    0.8618    1.1897    1.8008 H   0  0  0  0  0  0  0  0  0  0  0  0
    0.1509    3.1886    1.6256 C   0  0  0  0  0  0  0  0  0  0  0  0
   -0.8272    3.4794    2.0152 H   0  0  0  0  0  0  0  0  0  0  0  0
    0.9172    3.4314    2.3624 H   0  0  0  0  0  0  0  0  0  0  0  0
    0.3414    3.7499    0.7095 H   0  0  0  0  0  0  0  0  0  0  0  0
  5  6  2  0  0  0  0
  5  7  1  0  0  0  0
  2  3  1  0  0  0  0
  2  4  1  0  0  0  0
  2  5  1  0  0  0  0
  1  2  1  0  0  0  0
 22 23  2  0  0  0  0
 22 24  1  0  0  0  0
 20 21  1  0  0  0  0
 19 20  1  0  0  0  0
 17 18  1  0  0  0  0
 17 19  2  0  0  0  0
 15 16  1  0  0  0  0
 15 17  1  0  0  0  0
 14 15  1  0  0  0  0
 14 20  2  0  0  0  0
 11 12  1  0  0  0  0
 11 13  1  0  0  0  0
 11 14  1  0  0  0  0
  9 10  1  0  0  0  0
  9 11  1  0  0  0  0
  9 22  1  0  0  0  0
  7  8  1  0  0  0  0
  7  9  1  0  0  0  0
 26 27  1  0  0  0  0
 26 28  1  0  0  0  0
 26 29  1  0  0  0  0
 24 25  1  0  0  0  0
 24 26  1  0  0  0  0
M  END
$$$$
default_name
  -OEChem-02102213163D

 29 29  0     1  0  0  0  0  0999 V2000
   -3.6042   -3.5728    1.4576 H   0  0  0  0  0  0  0  0  0  0  0  0
   -3.5202   -2.6488    0.8866 C   0  0  0  0  0  0  0  0  0  0  0  0
   -4.2052   -1.9048    1.2896 H   0  0  0  0  0  0  0  0  0  0  0  0
   -3.7552   -2.8428   -0.1584 H   0  0  0  0  0  0  0  0  0  0  0  0
   -2.1052   -2.1358    0.9946 C   0  0  0  0  0  0  0  0  0  0  0  0
   -1.2852   -2.7288    1.6826 O   0  0  0  0  0  0  0  0  0  0  0  0
   -1.8202   -1.0288    0.3146 N   0  0  0  0  0  0  0  0  0  0  0  0
   -2.5542   -0.5788   -0.2104 H   0  0  0  0  0  0  0  0  0  0  0  0
   -0.5102   -0.3728    0.3086 C   0  0  1  0  0  0  0  0  0  0  0  0
    0.0719   -0.7468    1.1521 H   0  0  0  0  0  0  0  0  0  0  0  0
    0.2338   -0.7427   -0.9878 C   0  0  0  0  0  0  0  0  0  0  0  0
   -0.2757   -1.5816   -1.4653 H   0  0  0  0  0  0  0  0  0  0  0  0
    0.1976    0.1060   -1.6733 H   0  0  0  0  0  0  0  0  0  0  0  0
    1.6762   -1.1195   -0.7694 C   0  0  0  0  0  0  0  0  0  0  0  0
    2.5013   -0.6452    0.2278 N   0  0  0  0  0  0  0  0  0  0  0  0
    2.2725    0.0743    0.8972 H   0  0  0  0  0  0  0  0  0  0  0  0
    3.6689   -1.3054    0.1501 C   0  0  0  0  0  0  0  0  0  0  0  0
    4.5216   -1.1478    0.7992 H   0  0  0  0  0  0  0  0  0  0  0  0
    3.6319   -2.1985   -0.8496 N   0  0  0  0  0  0  0  0  0  0  0  0
    2.3723   -2.0868   -1.4440 C   0  0  0  0  0  0  0  0  0  0  0  0
    1.9988   -2.6828   -2.2666 H   0  0  0  0  0  0  0  0  0  0  0  0
   -0.6600    1.1486    0.4782 C   0  0  0  0  0  0  0  0  0  0  0  0
   -1.5001    1.7648   -0.1771 O   0  0  0  0  0  0  0  0  0  0  0  0
    0.1634    1.7559    1.3418 N   0  0  0  0  0  0  0  0  0  0  0  0
    0.8618    1.1897    1.8008 H   0  0  0  0  0  0  0  0  0  0  0  0
    0.1509    3.1886    1.6256 C   0  0  0  0  0  0  0  0  0  0  0  0
   -0.8272    3.4794    2.0152 H   0  0  0  0  0  0  0  0  0  0  0  0
    0.9172    3.4314    2.3624 H   0  0  0  0  0  0  0  0  0  0  0  0
    0.3414    3.7499    0.7095 H   0  0  0  0  0  0  0  0  0  0  0  0
  5  6  2  0  0  0  0
  5  7  1  0  0  0  0
  2  3  1  0  0  0  0
  2  4  1  0  0  0  0
  2  5  1  0  0  0  0
  1  2  1  0  0  0  0
 22 23  2  0  0  0  0
 22 24  1  0  0  0  0
 20 21  1  0  0  0  0
 19 20  1  0  0  0  0
 17 18  1  0  0  0  0
 17 19  2  0  0  0  0
 15 16  1  0  0  0  0
 15 17  1  0  0  0  0
 14 15  1  0  0  0  0
 14 20  2  0  0  0  0
 11 12  1  0  0  0  0
 11 13  1  0  0  0  0
 11 14  1  0  0  0  0
  9 10  1  0  0  0  0
  9 11  1  0  0  0  0
  9 22  1  0  0  0  0
  7  8  1  0  0  0  0
  7  9  1  0  0  0  0
 26 27  1  0  0  0  0
 26 28  1  0  0  0  0
 26 29  1  0  0  0  0
 24 25  1  0  0  0  0
 24 26  1  0  0  0  0
M  END
$$$$
default_name
  -OEChem-02102213163D

 29 29  0     1  0  0  0  0  0999 V2000
   -3.6042   -3.5728    1.4576 H   0  0  0  0  0  0  0  0  0  0  0  0
   -3.5202   -2.6488    0.8866 C   0  0  0  0  0  0  0  0  0  0  0  0
   -4.2052   -1.9048    1.2896 H   0  0  0  0  0  0  0  0  0  0  0  0
   -3.7552   -2.8428   -0.1584 H   0  0  0  0  0  0  0  0  0  0  0  0
   -2.1052   -2.1358    0.9946 C   0  0  0  0  0  0  0  0  0  0  0  0
   -1.2852   -2.7288    1.6826 O   0  0  0  0  0  0  0  0  0  0  0  0
   -1.8202   -1.0288    0.3146 N   0  0  0  0  0  0  0  0  0  0  0  0
   -2.5542   -0.5788   -0.2104 H   0  0  0  0  0  0  0  0  0  0  0  0
   -0.5102   -0.3728    0.3086 C   0  0  1  0  0  0  0  0  0  0  0  0
    0.0719   -0.7468    1.1521 H   0  0  0  0  0  0  0  0  0  0  0  0
    0.2338   -0.7427   -0.9878 C   0  0  0  0  0  0  0  0  0  0  0  0
   -0.2757   -1.5816   -1.4653 H   0  0  0  0  0  0  0  0  0  0  0  0
    0.1976    0.1060   -1.6733 H   0  0  0  0  0  0  0  0  0  0  0  0
    1.6762   -1.1195   -0.7694 C   0  0  0  0  0  0  0  0  0  0  0  0
    2.4174   -0.8844    0.3687 N   0  0  0  0  0  0  0  0  0  0  0  0
    2.1163   -0.3613    1.1773 H   0  0  0  0  0  0  0  0  0  0  0  0
    3.6166   -1.4700    0.2120 C   0  0  0  0  0  0  0  0  0  0  0  0
    4.4207   -1.4539    0.9375 H   0  0  0  0  0  0  0  0  0  0  0  0
    3.6804   -2.0866   -0.9771 N   0  0  0  0  0  0  0  0  0  0  0  0
    2.4550   -1.8675   -1.6117 C   0  0  0  0  0  0  0  0  0  0  0  0
    2.1591   -2.2506   -2.5797 H   0  0  0  0  0  0  0  0  0  0  0  0
   -0.6600    1.1486    0.4782 C   0  0  0  0  0  0  0  0  0  0  0  0
   -1.5001    1.7648   -0.1771 O   0  0  0  0  0  0  0  0  0  0  0  0
    0.1634    1.7559    1.3418 N   0  0  0  0  0  0  0  0  0  0  0  0
    0.8618    1.1897    1.8008 H   0  0  0  0  0  0  0  0  0  0  0  0
    0.1509    3.1886    1.6256 C   0  0  0  0  0  0  0  0  0  0  0  0
   -0.8272    3.4794    2.0152 H   0  0  0  0  0  0  0  0  0  0  0  0
    0.9172    3.4314    2.3624 H   0  0  0  0  0  0  0  0  0  0  0  0
    0.3414    3.7499    0.7095 H   0  0  0  0  0  0  0  0  0  0  0  0
  5  6  2  0  0  0  0
  5  7  1  0  0  0  0
  2  3  1  0  0  0  0
  2  4  1  0  0  0  0
  2  5  1  0  0  0  0
  1  2  1  0  0  0  0
 22 23  2  0  0  0  0
 22 24  1  0  0  0  0
 20 21  1  0  0  0  0
 19 20  1  0  0  0  0
 17 18  1  0  0  0  0
 17 19  2  0  0  0  0
 15 16  1  0  0  0  0
 15 17  1  0  0  0  0
 14 15  1  0  0  0  0
 14 20  2  0  0  0  0
 11 12  1  0  0  0  0
 11 13  1  0  0  0  0
 11 14  1  0  0  0  0
  9 10  1  0  0  0  0
  9 11  1  0  0  0  0
  9 22  1  0  0  0  0
  7  8  1  0  0  0  0
  7  9  1  0  0  0  0
 26 27  1  0  0  0  0
 26 28  1  0  0  0  0
 26 29  1  0  0  0  0
 24 25  1  0  0  0  0
 24 26  1  0  0  0  0
M  END
$$$$
default_name
  -OEChem-02102213163D

 29 29  0     1  0  0  0  0  0999 V2000
   -3.6042   -3.5728    1.4576 H   0  0  0  0  0  0  0  0  0  0  0  0
   -3.5202   -2.6488    0.8866 C   0  0  0  0  0  0  0  0  0  0  0  0
   -4.2052   -1.9048    1.2896 H   0  0  0  0  0  0  0  0  0  0  0  0
   -3.7552   -2.8428   -0.1584 H   0  0  0  0  0  0  0  0  0  0  0  0
   -2.1052   -2.1358    0.9946 C   0  0  0  0  0  0  0  0  0  0  0  0
   -1.2852   -2.7288    1.6826 O   0  0  0  0  0  0  0  0  0  0  0  0
   -1.8202   -1.0288    0.3146 N   0  0  0  0  0  0  0  0  0  0  0  0
   -2.5542   -0.5788   -0.2104 H   0  0  0  0  0  0  0  0  0  0  0  0
   -0.5102   -0.3728    0.3086 C   0  0  1  0  0  0  0  0  0  0  0  0
    0.0719   -0.7468    1.1521 H   0  0  0  0  0  0  0  0  0  0  0  0
    0.2338   -0.7427   -0.9878 C   0  0  0  0  0  0  0  0  0  0  0  0
   -0.2757   -1.5816   -1.4653 H   0  0  0  0  0  0  0  0  0  0  0  0
    0.1976    0.1060   -1.6733 H   0  0  0  0  0  0  0  0  0  0  0  0
    1.6762   -1.1195   -0.7694 C   0  0  0  0  0  0  0  0  0  0  0  0
    2.3363   -1.1536    0.4402 N   0  0  0  0  0  0  0  0  0  0  0  0
    1.9636   -0.8574    1.3299 H   0  0  0  0  0  0  0  0  0  0  0  0
    3.5682   -1.6462    0.2276 C   0  0  0  0  0  0  0  0  0  0  0  0
    4.3258   -1.7877    0.9887 H   0  0  0  0  0  0  0  0  0  0  0  0
    3.7314   -1.9452   -1.0695 N   0  0  0  0  0  0  0  0  0  0  0  0
    2.5374   -1.6110   -1.7139 C   0  0  0  0  0  0  0  0  0  0  0  0
    2.3180   -1.7495   -2.7647 H   0  0  0  0  0  0  0  0  0  0  0  0
   -0.6600    1.1486    0.4782 C   0  0  0  0  0  0  0  0  0  0  0  0
   -1.5001    1.7648   -0.1771 O   0  0  0  0  0  0  0  0  0  0  0  0
    0.1634    1.7559    1.3418 N   0  0  0  0  0  0  0  0  0  0  0  0
    0.8618    1.1897    1.8008 H   0  0  0  0  0  0  0  0  0  0  0  0
    0.1509    3.1886    1.6256 C   0  0  0  0  0  0  0  0  0  0  0  0
   -0.8272    3.4794    2.0152 H   0  0  0  0  0  0  0  0  0  0  0  0
    0.9172    3.4314    2.3624 H   0  0  0  0  0  0  0  0  0  0  0  0
    0.3414    3.7499    0.7095 H   0  0  0  0  0  0  0  0  0  0  0  0
  5  6  2  0  0  0  0
  5  7  1  0  0  0  0
  2  3  1  0  0  0  0
  2  4  1  0  0  0  0
  2  5  1  0  0  0  0
  1  2  1  0  0  0  0
 22 23  2  0  0  0  0
 22 24  1  0  0  0  0
 20 21  1  0  0  0  0
 19 20  1  0  0  0  0
 17 18  1  0  0  0  0
 17 19  2  0  0  0  0
 15 16  1  0  0  0  0
 15 17  1  0  0  0  0
 14 15  1  0  0  0  0
 14 20  2  0  0  0  0
 11 12  1  0  0  0  0
 11 13  1  0  0  0  0
 11 14  1  0  0  0  0
  9 10  1  0  0  0  0
  9 11  1  0  0  0  0
  9 22  1  0  0  0  0
  7  8  1  0  0  0  0
  7  9  1  0  0  0  0
 26 27  1  0  0  0  0
 26 28  1  0  0  0  0
 26 29  1  0  0  0  0
 24 25  1  0  0  0  0
 24 26  1  0  0  0  0
M  END
$$$$
default_name
  -OEChem-02102213163D

 29 29  0     1  0  0  0  0  0999 V2000
   -3.6042   -3.5728    1.4576 H   0  0  0  0  0  0  0  0  0  0  0  0
   -3.5202   -2.6488    0.8866 C   0  0  0  0  0  0  0  0  0  0  0  0
   -4.2052   -1.9048    1.2896 H   0  0  0  0  0  0  0  0  0  0  0  0
   -3.7552   -2.8428   -0.1584 H   0  0  0  0  0  0  0  0  0  0  0  0
   -2.1052   -2.1358    0.9946 C   0  0  0  0  0  0  0  0  0  0  0  0
   -1.2852   -2.7288    1.6826 O   0  0  0  0  0  0  0  0  0  0  0  0
   -1.8202   -1.0288    0.3146 N   0  0  0  0  0  0  0  0  0  0  0  0
   -2.5542   -0.5788   -0.2104 H   0  0  0  0  0  0  0  0  0  0  0  0
   -0.5102   -0.3728    0.3086 C   0  0  1  0  0  0  0  0  0  0  0  0
    0.0719   -0.7468    1.1521 H   0  0  0  0  0  0  0  0  0  0  0  0
    0.2338   -0.7427   -0.9878 C   0  0  0  0  0  0  0  0  0  0  0  0
   -0.2757   -1.5816   -1.4653 H   0  0  0  0  0  0  0  0  0  0  0  0
    0.1976    0.1060   -1.6733 H   0  0  0  0  0  0  0  0  0  0  0  0
    1.6762   -1.1195   -0.7694 C   0  0  0  0  0  0  0  0  0  0  0  0
    2.2634   -1.4343    0.4373 N   0  0  0  0  0  0  0  0  0  0  0  0
    1.8249   -1.3801    1.3444 H   0  0  0  0  0  0  0  0  0  0  0  0
    3.5271   -1.8221    0.1959 C   0  0  0  0  0  0  0  0  0  0  0  0
    4.2433   -2.1263    0.9493 H   0  0  0  0  0  0  0  0  0  0  0  0
    3.7812   -1.7838   -1.1203 N   0  0  0  0  0  0  0  0  0  0  0  0
    2.6141   -1.3348   -1.7438 C   0  0  0  0  0  0  0  0  0  0  0  0
    2.4646   -1.2137   -2.8089 H   0  0  0  0  0  0  0  0  0  0  0  0
   -0.6600    1.1486    0.4782 C   0  0  0  0  0  0  0  0  0  0  0  0
   -1.5001    1.7648   -0.1771 O   0  0  0  0  0  0  0  0  0  0  0  0
    0.1634    1.7559    1.3418 N   0  0  0  0  0  0  0  0  0  0  0  0
    0.8618    1.1897    1.8008 H   0  0  0  0  0  0  0  0  0  0  0  0
    0.1509    3.1886    1.6256 C   0  0  0  0  0  0  0  0  0  0  0  0
   -0.8272    3.4794    2.0152 H   0  0  0  0  0  0  0  0  0  0  0  0
    0.9172    3.4314    2.3624 H   0  0  0  0  0  0  0  0  0  0  0  0
    0.3414    3.7499    0.7095 H   0  0  0  0  0  0  0  0  0  0  0  0
  5  6  2  0  0  0  0
  5  7  1  0  0  0  0
  2  3  1  0  0  0  0
  2  4  1  0  0  0  0
  2  5  1  0  0  0  0
  1  2  1  0  0  0  0
 22 23  2  0  0  0  0
 22 24  1  0  0  0  0
 20 21  1  0  0  0  0
 19 20  1  0  0  0  0
 17 18  1  0  0  0  0
 17 19  2  0  0  0  0
 15 16  1  0  0  0  0
 15 17  1  0  0  0  0
 14 15  1  0  0  0  0
 14 20  2  0  0  0  0
 11 12  1  0  0  0  0
 11 13  1  0  0  0  0
 11 14  1  0  0  0  0
  9 10  1  0  0  0  0
  9 11  1  0  0  0  0
  9 22  1  0  0  0  0
  7  8  1  0  0  0  0
  7  9  1  0  0  0  0
 26 27  1  0  0  0  0
 26 28  1  0  0  0  0
 26 29  1  0  0  0  0
 24 25  1  0  0  0  0
 24 26  1  0  0  0  0
M  END
$$$$
default_name
  -OEChem-02102213163D

 29 29  0     1  0  0  0  0  0999 V2000
   -3.6042   -3.5728    1.4576 H   0  0  0  0  0  0  0  0  0  0  0  0
   -3.5202   -2.6488    0.8866 C   0  0  0  0  0  0  0  0  0  0  0  0
   -4.2052   -1.9048    1.2896 H   0  0  0  0  0  0  0  0  0  0  0  0
   -3.7552   -2.8428   -0.1584 H   0  0  0  0  0  0  0  0  0  0  0  0
   -2.1052   -2.1358    0.9946 C   0  0  0  0  0  0  0  0  0  0  0  0
   -1.2852   -2.7288    1.6826 O   0  0  0  0  0  0  0  0  0  0  0  0
   -1.8202   -1.0288    0.3146 N   0  0  0  0  0  0  0  0  0  0  0  0
   -2.5542   -0.5788   -0.2104 H   0  0  0  0  0  0  0  0  0  0  0  0
   -0.5102   -0.3728    0.3086 C   0  0  1  0  0  0  0  0  0  0  0  0
    0.0719   -0.7468    1.1521 H   0  0  0  0  0  0  0  0  0  0  0  0
    0.2338   -0.7427   -0.9878 C   0  0  0  0  0  0  0  0  0  0  0  0
   -0.2757   -1.5816   -1.4653 H   0  0  0  0  0  0  0  0  0  0  0  0
    0.1976    0.1060   -1.6733 H   0  0  0  0  0  0  0  0  0  0  0  0
    1.6762   -1.1195   -0.7694 C   0  0  0  0  0  0  0  0  0  0  0  0
    2.2038   -1.7075    0.3602 N   0  0  0  0  0  0  0  0  0  0  0  0
    1.7096   -1.8937    1.2200 H   0  0  0  0  0  0  0  0  0  0  0  0
    3.4960   -1.9856    0.1190 C   0  0  0  0  0  0  0  0  0  0  0  0
    4.1789   -2.4468    0.8220 H   0  0  0  0  0  0  0  0  0  0  0  0
    3.8266   -1.6134   -1.1262 N   0  0  0  0  0  0  0  0  0  0  0  0
    2.6797   -1.0578   -1.6992 C   0  0  0  0  0  0  0  0  0  0  0  0
    2.5890   -0.6797   -2.7093 H   0  0  0  0  0  0  0  0  0  0  0  0
   -0.6600    1.1486    0.4782 C   0  0  0  0  0  0  0  0  0  0  0  0
   -1.5001    1.7648   -0.1771 O   0  0  0  0  0  0  0  0  0  0  0  0
    0.1634    1.7559    1.3418 N   0  0  0  0  0  0  0  0  0  0  0  0
    0.8618    1.1897    1.8008 H   0  0  0  0  0  0  0  0  0  0  0  0
    0.1509    3.1886    1.6256 C   0  0  0  0  0  0  0  0  0  0  0  0
   -0.8272    3.4794    2.0152 H   0  0  0  0  0  0  0  0  0  0  0  0
    0.9172    3.4314    2.3624 H   0  0  0  0  0  0  0  0  0  0  0  0
    0.3414    3.7499    0.7095 H   0  0  0  0  0  0  0  0  0  0  0  0
  5  6  2  0  0  0  0
  5  7  1  0  0  0  0
  2  3  1  0  0  0  0
  2  4  1  0  0  0  0
  2  5  1  0  0  0  0
  1  2  1  0  0  0  0
 22 23  2  0  0  0  0
 22 24  1  0  0  0  0
 20 21  1  0  0  0  0
 19 20  1  0  0  0  0
 17 18  1  0  0  0  0
 17 19  2  0  0  0  0
 15 16  1  0  0  0  0
 15 17  1  0  0  0  0
 14 15  1  0  0  0  0
 14 20  2  0  0  0  0
 11 12  1  0  0  0  0
 11 13  1  0  0  0  0
 11 14  1  0  0  0  0
  9 10  1  0  0  0  0
  9 11  1  0  0  0  0
  9 22  1  0  0  0  0
  7  8  1  0  0  0  0
  7  9  1  0  0  0  0
 26 27  1  0  0  0  0
 26 28  1  0  0  0  0
 26 29  1  0  0  0  0
 24 25  1  0  0  0  0
 24 26  1  0  0  0  0
M  END
$$$$
default_name
  -OEChem-02102213163D

 29 29  0     1  0  0  0  0  0999 V2000
   -3.6042   -3.5728    1.4576 H   0  0  0  0  0  0  0  0  0  0  0  0
   -3.5202   -2.6488    0.8866 C   0  0  0  0  0  0  0  0  0  0  0  0
   -4.2052   -1.9048    1.2896 H   0  0  0  0  0  0  0  0  0  0  0  0
   -3.7552   -2.8428   -0.1584 H   0  0  0  0  0  0  0  0  0  0  0  0
   -2.1052   -2.1358    0.9946 C   0  0  0  0  0  0  0  0  0  0  0  0
   -1.2852   -2.7288    1.6826 O   0  0  0  0  0  0  0  0  0  0  0  0
   -1.8202   -1.0288    0.3146 N   0  0  0  0  0  0  0  0  0  0  0  0
   -2.5542   -0.5788   -0.2104 H   0  0  0  0  0  0  0  0  0  0  0  0
   -0.5102   -0.3728    0.3086 C   0  0  1  0  0  0  0  0  0  0  0  0
    0.0719   -0.7468    1.1521 H   0  0  0  0  0  0  0  0  0  0  0  0
    0.2338   -0.7427   -0.9878 C   0  0  0  0  0  0  0  0  0  0  0  0
   -0.2757   -1.5816   -1.4653 H   0  0  0  0  0  0  0  0  0  0  0  0
    0.1976    0.1060   -1.6733 H   0  0  0  0  0  0  0  0  0  0  0  0
    1.6762   -1.1195   -0.7694 C   0  0  0  0  0  0  0  0  0  0  0  0
    2.1613   -1.9545    0.2142 N   0  0  0  0  0  0  0  0  0  0  0  0
    1.6255   -2.3634    0.9650 H   0  0  0  0  0  0  0  0  0  0  0  0
    3.4771   -2.1258    0.0022 C   0  0  0  0  0  0  0  0  0  0  0  0
    4.1369   -2.7272    0.6155 H   0  0  0  0  0  0  0  0  0  0  0  0
    3.8645   -1.4456   -1.0867 N   0  0  0  0  0  0  0  0  0  0  0  0
    2.7298   -0.7988   -1.5833 C   0  0  0  0  0  0  0  0  0  0  0  0
    2.6827   -0.1839   -2.4728 H   0  0  0  0  0  0  0  0  0  0  0  0
   -0.6600    1.1486    0.4782 C   0  0  0  0  0  0  0  0  0  0  0  0
   -1.5001    1.7648   -0.1771 O   0  0  0  0  0  0  0  0  0  0  0  0
    0.1634    1.7559    1.3418 N   0  0  0  0  0  0  0  0  0  0  0  0
    0.8618    1.1897    1.8008 H   0  0  0  0  0  0  0  0  0  0  0  0
    0.1509    3.1886    1.6256 C   0  0  0  0  0  0  0  0  0  0  0  0
   -0.8272    3.4794    2.0152 H   0  0  0  0  0  0  0  0  0  0  0  0
    0.9172    3.4314    2.3624 H   0  0  0  0  0  0  0  0  0  0  0  0
    0.3414    3.7499    0.7095 H   0  0  0  0  0  0  0  0  0  0  0  0
  5  6  2  0  0  0  0
  5  7  1  0  0  0  0
  2  3  1  0  0  0  0
  2  4  1  0  0  0  0
  2  5  1  0  0  0  0
  1  2  1  0  0  0  0
 22 23  2  0  0  0  0
 22 24  1  0  0  0  0
 20 21  1  0  0  0  0
 19 20  1  0  0  0  0
 17 18  1  0  0  0  0
 17 19  2  0  0  0  0
 15 16  1  0  0  0  0
 15 17  1  0  0  0  0
 14 15  1  0  0  0  0
 14 20  2  0  0  0  0
 11 12  1  0  0  0  0
 11 13  1  0  0  0  0
 11 14  1  0  0  0  0
  9 10  1  0  0  0  0
  9 11  1  0  0  0  0
  9 22  1  0  0  0  0
  7  8  1  0  0  0  0
  7  9  1  0  0  0  0
 26 27  1  0  0  0  0
 26 28  1  0  0  0  0
 26 29  1  0  0  0  0
 24 25  1  0  0  0  0
 24 26  1  0  0  0  0
M  END
$$$$
default_name
  -OEChem-02102213163D

 29 29  0     1  0  0  0  0  0999 V2000
   -3.6042   -3.5728    1.4576 H   0  0  0  0  0  0  0  0  0  0  0  0
   -3.5202   -2.6488    0.8866 C   0  0  0  0  0  0  0  0  0  0  0  0
   -4.2052   -1.9048    1.2896 H   0  0  0  0  0  0  0  0  0  0  0  0
   -3.7552   -2.8428   -0.1584 H   0  0  0  0  0  0  0  0  0  0  0  0
   -2.1052   -2.1358    0.9946 C   0  0  0  0  0  0  0  0  0  0  0  0
   -1.2852   -2.7288    1.6826 O   0  0  0  0  0  0  0  0  0  0  0  0
   -1.8202   -1.0288    0.3146 N   0  0  0  0  0  0  0  0  0  0  0  0
   -2.5542   -0.5788   -0.2104 H   0  0  0  0  0  0  0  0  0  0  0  0
   -0.5102   -0.3728    0.3086 C   0  0  1  0  0  0  0  0  0  0  0  0
    0.0719   -0.7468    1.1521 H   0  0  0  0  0  0  0  0  0  0  0  0
    0.2338   -0.7427   -0.9878 C   0  0  0  0  0  0  0  0  0  0  0  0
   -0.2757   -1.5816   -1.4653 H   0  0  0  0  0  0  0  0  0  0  0  0
    0.1976    0.1060   -1.6733 H   0  0  0  0  0  0  0  0  0  0  0  0
    1.6762   -1.1195   -0.7694 C   0  0  0  0  0  0  0  0  0  0  0  0
    2.1391   -2.1585    0.0092 N   0  0  0  0  0  0  0  0  0  0  0  0
    1.5784   -2.7571    0.5970 H   0  0  0  0  0  0  0  0  0  0  0  0
    3.4716   -2.2329   -0.1466 C   0  0  0  0  0  0  0  0  0  0  0  0
    4.1202   -2.9484    0.3438 H   0  0  0  0  0  0  0  0  0  0  0  0
    3.8922   -1.2920   -1.0046 N   0  0  0  0  0  0  0  0  0  0  0  0
    2.7610   -0.5754   -1.4039 C   0  0  0  0  0  0  0  0  0  0  0  0
    2.7393    0.2399   -2.1155 H   0  0  0  0  0  0  0  0  0  0  0  0
   -0.6600    1.1486    0.4782 C   0  0  0  0  0  0  0  0  0  0  0  0
   -1.5001    1.7648   -0.1771 O   0  0  0  0  0  0  0  0  0  0  0  0
    0.1634    1.7559    1.3418 N   0  0  0  0  0  0  0  0  0  0  0  0
    0.8618    1.1897    1.8008 H   0  0  0  0  0  0  0  0  0  0  0  0
    0.1509    3.1886    1.6256 C   0  0  0  0  0  0  0  0  0  0  0  0
   -0.8272    3.4794    2.0152 H   0  0  0  0  0  0  0  0  0  0  0  0
    0.9172    3.4314    2.3624 H   0  0  0  0  0  0  0  0  0  0  0  0
    0.3414    3.7499    0.7095 H   0  0  0  0  0  0  0  0  0  0  0  0
  5  6  2  0  0  0  0
  5  7  1  0  0  0  0
  2  3  1  0  0  0  0
  2  4  1  0  0  0  0
  2  5  1  0  0  0  0
  1  2  1  0  0  0  0
 22 23  2  0  0  0  0
 22 24  1  0  0  0  0
 20 21  1  0  0  0  0
 19 20  1  0  0  0  0
 17 18  1  0  0  0  0
 17 19  2  0  0  0  0
 15 16  1  0  0  0  0
 15 17  1  0  0  0  0
 14 15  1  0  0  0  0
 14 20  2  0  0  0  0
 11 12  1  0  0  0  0
 11 13  1  0  0  0  0
 11 14  1  0  0  0  0
  9 10  1  0  0  0  0
  9 11  1  0  0  0  0
  9 22  1  0  0  0  0
  7  8  1  0  0  0  0
  7  9  1  0  0  0  0
 26 27  1  0  0  0  0
 26 28  1  0  0  0  0
 26 29  1  0  0  0  0
 24 25  1  0  0  0  0
 24 26  1  0  0  0  0
M  END
$$$$
default_name
  -OEChem-02102213163D

 29 29  0     1  0  0  0  0  0999 V2000
   -3.6042   -3.5728    1.4576 H   0  0  0  0  0  0  0  0  0  0  0  0
   -3.5202   -2.6488    0.8866 C   0  0  0  0  0  0  0  0  0  0  0  0
   -4.2052   -1.9048    1.2896 H   0  0  0  0  0  0  0  0  0  0  0  0
   -3.7552   -2.8428   -0.1584 H   0  0  0  0  0  0  0  0  0  0  0  0
   -2.1052   -2.1358    0.9946 C   0  0  0  0  0  0  0  0  0  0  0  0
   -1.2852   -2.7288    1.6826 O   0  0  0  0  0  0  0  0  0  0  0  0
   -1.8202   -1.0288    0.3146 N   0  0  0  0  0  0  0  0  0  0  0  0
   -2.5542   -0.5788   -0.2104 H   0  0  0  0  0  0  0  0  0  0  0  0
   -0.5102   -0.3728    0.3086 C   0  0  1  0  0  0  0  0  0  0  0  0
    0.0719   -0.7468    1.1521 H   0  0  0  0  0  0  0  0  0  0  0  0
    0.2338   -0.7427   -0.9878 C   0  0  0  0  0  0  0  0  0  0  0  0
   -0.2757   -1.5816   -1.4653 H   0  0  0  0  0  0  0  0  0  0  0  0
    0.1976    0.1060   -1.6733 H   0  0  0  0  0  0  0  0  0  0  0  0
    1.6762   -1.1195   -0.7694 C   0  0  0  0  0  0  0  0  0  0  0  0
    2.1385   -2.3056   -0.2408 N   0  0  0  0  0  0  0  0  0  0  0  0
    1.5715   -3.0479    0.1409 H   0  0  0  0  0  0  0  0  0  0  0  0
    3.4800   -2.2997   -0.3172 C   0  0  0  0  0  0  0  0  0  0  0  0
    4.1300   -3.0955    0.0255 H   0  0  0  0  0  0  0  0  0  0  0  0
    3.9078   -1.1628   -0.8853 N   0  0  0  0  0  0  0  0  0  0  0  0
    2.7711   -0.4029   -1.1733 C   0  0  0  0  0  0  0  0  0  0  0  0
    2.7549    0.5628   -1.6616 H   0  0  0  0  0  0  0  0  0  0  0  0
   -0.6600    1.1486    0.4782 C   0  0  0  0  0  0  0  0  0  0  0  0
   -1.5001    1.7648   -0.1771 O   0  0  0  0  0  0  0  0  0  0  0  0
    0.1634    1.7559    1.3418 N   0  0  0  0  0  0  0  0  0  0  0  0
    0.8618    1.1897    1.8008 H   0  0  0  0  0  0  0  0  0  0  0  0
    0.1509    3.1886    1.6256 C   0  0  0  0  0  0  0  0  0  0  0  0
   -0.8272    3.4794    2.0152 H   0  0  0  0  0  0  0  0  0  0  0  0
    0.9172    3.4314    2.3624 H   0  0  0  0  0  0  0  0  0  0  0  0
    0.3414    3.7499    0.7095 H   0  0  0  0  0  0  0  0  0  0  0  0
  5  6  2  0  0  0  0
  5  7  1  0  0  0  0
  2  3  1  0  0  0  0
  2  4  1  0  0  0  0
  2  5  1  0  0  0  0
  1  2  1  0  0  0  0
 22 23  2  0  0  0  0
 22 24  1  0  0  0  0
 20 21  1  0  0  0  0
 19 20  1  0  0  0  0
 17 18  1  0  0  0  0
 17 19  2  0  0  0  0
 15 16  1  0  0  0  0
 15 17  1  0  0  0  0
 14 15  1  0  0  0  0
 14 20  2  0  0  0  0
 11 12  1  0  0  0  0
 11 13  1  0  0  0  0
 11 14  1  0  0  0  0
  9 10  1  0  0  0  0
  9 11  1  0  0  0  0
  9 22  1  0  0  0  0
  7  8  1  0  0  0  0
  7  9  1  0  0  0  0
 26 27  1  0  0  0  0
 26 28  1  0  0  0  0
 26 29  1  0  0  0  0
 24 25  1  0  0  0  0
 24 26  1  0  0  0  0
M  END
$$$$
default_name
  -OEChem-02102213163D

 29 29  0     1  0  0  0  0  0999 V2000
   -3.6042   -3.5728    1.4576 H   0  0  0  0  0  0  0  0  0  0  0  0
   -3.5202   -2.6488    0.8866 C   0  0  0  0  0  0  0  0  0  0  0  0
   -4.2052   -1.9048    1.2896 H   0  0  0  0  0  0  0  0  0  0  0  0
   -3.7552   -2.8428   -0.1584 H   0  0  0  0  0  0  0  0  0  0  0  0
   -2.1052   -2.1358    0.9946 C   0  0  0  0  0  0  0  0  0  0  0  0
   -1.2852   -2.7288    1.6826 O   0  0  0  0  0  0  0  0  0  0  0  0
   -1.8202   -1.0288    0.3146 N   0  0  0  0  0  0  0  0  0  0  0  0
   -2.5542   -0.5788   -0.2104 H   0  0  0  0  0  0  0  0  0  0  0  0
   -0.5102   -0.3728    0.3086 C   0  0  1  0  0  0  0  0  0  0  0  0
    0.0719   -0.7468    1.1521 H   0  0  0  0  0  0  0  0  0  0  0  0
    0.2338   -0.7427   -0.9878 C   0  0  0  0  0  0  0  0  0  0  0  0
   -0.2757   -1.5816   -1.4653 H   0  0  0  0  0  0  0  0  0  0  0  0
    0.1976    0.1060   -1.6733 H   0  0  0  0  0  0  0  0  0  0  0  0
    1.6762   -1.1195   -0.7694 C   0  0  0  0  0  0  0  0  0  0  0  0
    2.1597   -2.3858   -0.5188 N   0  0  0  0  0  0  0  0  0  0  0  0
    1.6053   -3.2160   -0.3722 H   0  0  0  0  0  0  0  0  0  0  0  0
    3.5016   -2.3217   -0.4980 C   0  0  0  0  0  0  0  0  0  0  0  0
    4.1656   -3.1582   -0.3178 H   0  0  0  0  0  0  0  0  0  0  0  0
    3.9104   -1.0671   -0.7372 N   0  0  0  0  0  0  0  0  0  0  0  0
    2.7595   -0.2931   -0.9071 C   0  0  0  0  0  0  0  0  0  0  0  0
    2.7285    0.7629   -1.1422 H   0  0  0  0  0  0  0  0  0  0  0  0
   -0.6600    1.1486    0.4782 C   0  0  0  0  0  0  0  0  0  0  0  0
   -1.5001    1.7648   -0.1771 O   0  0  0  0  0  0  0  0  0  0  0  0
    0.1634    1.7559    1.3418 N   0  0  0  0  0  0  0  0  0  0  0  0
    0.8618    1.1897    1.8008 H   0  0  0  0  0  0  0  0  0  0  0  0
    0.1509    3.1886    1.6256 C   0  0  0  0  0  0  0  0  0  0  0  0
   -0.8272    3.4794    2.0152 H   0  0  0  0  0  0  0  0  0  0  0  0
    0.9172    3.4314    2.3624 H   0  0  0  0  0  0  0  0  0  0  0  0
    0.3414    3.7499    0.7095 H   0  0  0  0  0  0  0  0  0  0  0  0
  5  6  2  0  0  0  0
  5  7  1  0  0  0  0
  2  3  1  0  0  0  0
  2  4  1  0  0  0  0
  2  5  1  0  0  0  0
  1  2  1  0  0  0  0
 22 23  2  0  0  0  0
 22 24  1  0  0  0  0
 20 21  1  0  0  0  0
 19 20  1  0  0  0  0
 17 18  1  0  0  0  0
 17 19  2  0  0  0  0
 15 16  1  0  0  0  0
 15 17  1  0  0  0  0
 14 15  1  0  0  0  0
 14 20  2  0  0  0  0
 11 12  1  0  0  0  0
 11 13  1  0  0  0  0
 11 14  1  0  0  0  0
  9 10  1  0  0  0  0
  9 11  1  0  0  0  0
  9 22  1  0  0  0  0
  7  8  1  0  0  0  0
  7  9  1  0  0  0  0
 26 27  1  0  0  0  0
 26 28  1  0  0  0  0
 26 29  1  0  0  0  0
 24 25  1  0  0  0  0
 24 26  1  0  0  0  0
M  END
$$$$
default_name
  -OEChem-02102213163D

 29 29  0     1  0  0  0  0  0999 V2000
   -3.6042   -3.5728    1.4576 H   0  0  0  0  0  0  0  0  0  0  0  0
   -3.5202   -2.6488    0.8866 C   0  0  0  0  0  0  0  0  0  0  0  0
   -4.2052   -1.9048    1.2896 H   0  0  0  0  0  0  0  0  0  0  0  0
   -3.7552   -2.8428   -0.1584 H   0  0  0  0  0  0  0  0  0  0  0  0
   -2.1052   -2.1358    0.9946 C   0  0  0  0  0  0  0  0  0  0  0  0
   -1.2852   -2.7288    1.6826 O   0  0  0  0  0  0  0  0  0  0  0  0
   -1.8202   -1.0288    0.3146 N   0  0  0  0  0  0  0  0  0  0  0  0
   -2.5542   -0.5788   -0.2104 H   0  0  0  0  0  0  0  0  0  0  0  0
   -0.5102   -0.3728    0.3086 C   0  0  1  0  0  0  0  0  0  0  0  0
    0.0719   -0.7468    1.1521 H   0  0  0  0  0  0  0  0  0  0  0  0
    0.2338   -0.7427   -0.9878 C   0  0  0  0  0  0  0  0  0  0  0  0
   -0.2757   -1.5816   -1.4653 H   0  0  0  0  0  0  0  0  0  0  0  0
    0.1976    0.1060   -1.6733 H   0  0  0  0  0  0  0  0  0  0  0  0
    1.6762   -1.1195   -0.7694 C   0  0  0  0  0  0  0  0  0  0  0  0
    2.2011   -2.3935   -0.8058 N   0  0  0  0  0  0  0  0  0  0  0  0
    1.6774   -3.2500   -0.9072 H   0  0  0  0  0  0  0  0  0  0  0  0
    3.5351   -2.2973   -0.6766 C   0  0  0  0  0  0  0  0  0  0  0  0
    4.2245   -3.1325   -0.6626 H   0  0  0  0  0  0  0  0  0  0  0  0
    3.8997   -1.0112   -0.5702 N   0  0  0  0  0  0  0  0  0  0  0  0
    2.7269   -0.2534   -0.6236 C   0  0  0  0  0  0  0  0  0  0  0  0
    2.6619    0.8265   -0.5926 H   0  0  0  0  0  0  0  0  0  0  0  0
   -0.6600    1.1486    0.4782 C   0  0  0  0  0  0  0  0  0  0  0  0
   -1.5001    1.7648   -0.1771 O   0  0  0  0  0  0  0  0  0  0  0  0
    0.1634    1.7559    1.3418 N   0  0  0  0  0  0  0  0  0  0  0  0
    0.8618    1.1897    1.8008 H   0  0  0  0  0  0  0  0  0  0  0  0
    0.1509    3.1886    1.6256 C   0  0  0  0  0  0  0  0  0  0  0  0
   -0.8272    3.4794    2.0152 H   0  0  0  0  0  0  0  0  0  0  0  0
    0.9172    3.4314    2.3624 H   0  0  0  0  0  0  0  0  0  0  0  0
    0.3414    3.7499    0.7095 H   0  0  0  0  0  0  0  0  0  0  0  0
  5  6  2  0  0  0  0
  5  7  1  0  0  0  0
  2  3  1  0  0  0  0
  2  4  1  0  0  0  0
  2  5  1  0  0  0  0
  1  2  1  0  0  0  0
 22 23  2  0  0  0  0
 22 24  1  0  0  0  0
 20 21  1  0  0  0  0
 19 20  1  0  0  0  0
 17 18  1  0  0  0  0
 17 19  2  0  0  0  0
 15 16  1  0  0  0  0
 15 17  1  0  0  0  0
 14 15  1  0  0  0  0
 14 20  2  0  0  0  0
 11 12  1  0  0  0  0
 11 13  1  0  0  0  0
 11 14  1  0  0  0  0
  9 10  1  0  0  0  0
  9 11  1  0  0  0  0
  9 22  1  0  0  0  0
  7  8  1  0  0  0  0
  7  9  1  0  0  0  0
 26 27  1  0  0  0  0
 26 28  1  0  0  0  0
 26 29  1  0  0  0  0
 24 25  1  0  0  0  0
 24 26  1  0  0  0  0
M  END
$$$$
default_name
  -OEChem-02102213163D

 29 29  0     1  0  0  0  0  0999 V2000
   -3.6042   -3.5728    1.4576 H   0  0  0  0  0  0  0  0  0  0  0  0
   -3.5202   -2.6488    0.8866 C   0  0  0  0  0  0  0  0  0  0  0  0
   -4.2052   -1.9048    1.2896 H   0  0  0  0  0  0  0  0  0  0  0  0
   -3.7552   -2.8428   -0.1584 H   0  0  0  0  0  0  0  0  0  0  0  0
   -2.1052   -2.1358    0.9946 C   0  0  0  0  0  0  0  0  0  0  0  0
   -1.2852   -2.7288    1.6826 O   0  0  0  0  0  0  0  0  0  0  0  0
   -1.8202   -1.0288    0.3146 N   0  0  0  0  0  0  0  0  0  0  0  0
   -2.5542   -0.5788   -0.2104 H   0  0  0  0  0  0  0  0  0  0  0  0
   -0.5102   -0.3728    0.3086 C   0  0  1  0  0  0  0  0  0  0  0  0
    0.0719   -0.7468    1.1521 H   0  0  0  0  0  0  0  0  0  0  0  0
    0.2338   -0.7427   -0.9878 C   0  0  0  0  0  0  0  0  0  0  0  0
   -0.2757   -1.5816   -1.4653 H   0  0  0  0  0  0  0  0  0  0  0  0
    0.1976    0.1060   -1.6733 H   0  0  0  0  0  0  0  0  0  0  0  0
    1.6762   -1.1195   -0.7694 C   0  0  0  0  0  0  0  0  0  0  0  0
    2.2600   -2.3284   -1.0822 N   0  0  0  0  0  0  0  0  0  0  0  0
    1.7830   -3.1476   -1.4278 H   0  0  0  0  0  0  0  0  0  0  0  0
    3.5780   -2.2282   -0.8410 C   0  0  0  0  0  0  0  0  0  0  0  0
    4.3028   -3.0200   -0.9855 H   0  0  0  0  0  0  0  0  0  0  0  0
    3.8765   -0.9990   -0.3957 N   0  0  0  0  0  0  0  0  0  0  0  0
    2.6756   -0.2865   -0.3420 C   0  0  0  0  0  0  0  0  0  0  0  0
    2.5596    0.7493   -0.0503 H   0  0  0  0  0  0  0  0  0  0  0  0
   -0.6600    1.1486    0.4782 C   0  0  0  0  0  0  0  0  0  0  0  0
   -1.5001    1.7648   -0.1771 O   0  0  0  0  0  0  0  0  0  0  0  0
    0.1634    1.7559    1.3418 N   0  0  0  0  0  0  0  0  0  0  0  0
    0.8618    1.1897    1.8008 H   0  0  0  0  0  0  0  0  0  0  0  0
    0.1509    3.1886    1.6256 C   0  0  0  0  0  0  0  0  0  0  0  0
   -0.8272    3.4794    2.0152 H   0  0  0  0  0  0  0  0  0  0  0  0
    0.9172    3.4314    2.3624 H   0  0  0  0  0  0  0  0  0  0  0  0
    0.3414    3.7499    0.7095 H   0  0  0  0  0  0  0  0  0  0  0  0
  5  6  2  0  0  0  0
  5  7  1  0  0  0  0
  2  3  1  0  0  0  0
  2  4  1  0  0  0  0
  2  5  1  0  0  0  0
  1  2  1  0  0  0  0
 22 23  2  0  0  0  0
 22 24  1  0  0  0  0
 20 21  1  0  0  0  0
 19 20  1  0  0  0  0
 17 18  1  0  0  0  0
 17 19  2  0  0  0  0
 15 16  1  0  0  0  0
 15 17  1  0  0  0  0
 14 15  1  0  0  0  0
 14 20  2  0  0  0  0
 11 12  1  0  0  0  0
 11 13  1  0  0  0  0
 11 14  1  0  0  0  0
  9 10  1  0  0  0  0
  9 11  1  0  0  0  0
  9 22  1  0  0  0  0
  7  8  1  0  0  0  0
  7  9  1  0  0  0  0
 26 27  1  0  0  0  0
 26 28  1  0  0  0  0
 26 29  1  0  0  0  0
 24 25  1  0  0  0  0
 24 26  1  0  0  0  0
M  END
$$$$
default_name
  -OEChem-02102213163D

 29 29  0     1  0  0  0  0  0999 V2000
   -3.6042   -3.5728    1.4576 H   0  0  0  0  0  0  0  0  0  0  0  0
   -3.5202   -2.6488    0.8866 C   0  0  0  0  0  0  0  0  0  0  0  0
   -4.2052   -1.9048    1.2896 H   0  0  0  0  0  0  0  0  0  0  0  0
   -3.7552   -2.8428   -0.1584 H   0  0  0  0  0  0  0  0  0  0  0  0
   -2.1052   -2.1358    0.9946 C   0  0  0  0  0  0  0  0  0  0  0  0
   -1.2852   -2.7288    1.6826 O   0  0  0  0  0  0  0  0  0  0  0  0
   -1.8202   -1.0288    0.3146 N   0  0  0  0  0  0  0  0  0  0  0  0
   -2.5542   -0.5788   -0.2104 H   0  0  0  0  0  0  0  0  0  0  0  0
   -0.5102   -0.3728    0.3086 C   0  0  1  0  0  0  0  0  0  0  0  0
    0.0719   -0.7468    1.1521 H   0  0  0  0  0  0  0  0  0  0  0  0
    0.2338   -0.7427   -0.9878 C   0  0  0  0  0  0  0  0  0  0  0  0
   -0.2757   -1.5816   -1.4653 H   0  0  0  0  0  0  0  0  0  0  0  0
    0.1976    0.1060   -1.6733 H   0  0  0  0  0  0  0  0  0  0  0  0
    1.6762   -1.1195   -0.7694 C   0  0  0  0  0  0  0  0  0  0  0  0
    2.3323   -2.1947   -1.3293 N   0  0  0  0  0  0  0  0  0  0  0  0
    1.9148   -2.9158   -1.8985 H   0  0  0  0  0  0  0  0  0  0  0  0
    3.6275   -2.1191   -0.9799 C   0  0  0  0  0  0  0  0  0  0  0  0
    4.3951   -2.8284   -1.2644 H   0  0  0  0  0  0  0  0  0  0  0  0
    3.8423   -1.0313   -0.2257 N   0  0  0  0  0  0  0  0  0  0  0  0
    2.6091   -0.3903   -0.0815 C   0  0  0  0  0  0  0  0  0  0  0  0
    2.4286    0.5364    0.4478 H   0  0  0  0  0  0  0  0  0  0  0  0
   -0.6600    1.1486    0.4782 C   0  0  0  0  0  0  0  0  0  0  0  0
   -1.5001    1.7648   -0.1771 O   0  0  0  0  0  0  0  0  0  0  0  0
    0.1634    1.7559    1.3418 N   0  0  0  0  0  0  0  0  0  0  0  0
    0.8618    1.1897    1.8008 H   0  0  0  0  0  0  0  0  0  0  0  0
    0.1509    3.1886    1.6256 C   0  0  0  0  0  0  0  0  0  0  0  0
   -0.8272    3.4794    2.0152 H   0  0  0  0  0  0  0  0  0  0  0  0
    0.9172    3.4314    2.3624 H   0  0  0  0  0  0  0  0  0  0  0  0
    0.3414    3.7499    0.7095 H   0  0  0  0  0  0  0  0  0  0  0  0
  5  6  2  0  0  0  0
  5  7  1  0  0  0  0
  2  3  1  0  0  0  0
  2  4  1  0  0  0  0
  2  5  1  0  0  0  0
  1  2  1  0  0  0  0
 22 23  2  0  0  0  0
 22 24  1  0  0  0  0
 20 21  1  0  0  0  0
 19 20  1  0  0  0  0
 17 18  1  0  0  0  0
 17 19  2  0  0  0  0
 15 16  1  0  0  0  0
 15 17  1  0  0  0  0
 14 15  1  0  0  0  0
 14 20  2  0  0  0  0
 11 12  1  0  0  0  0
 11 13  1  0  0  0  0
 11 14  1  0  0  0  0
  9 10  1  0  0  0  0
  9 11  1  0  0  0  0
  9 22  1  0  0  0  0
  7  8  1  0  0  0  0
  7  9  1  0  0  0  0
 26 27  1  0  0  0  0
 26 28  1  0  0  0  0
 26 29  1  0  0  0  0
 24 25  1  0  0  0  0
 24 26  1  0  0  0  0
M  END
$$$$
default_name
  -OEChem-02102213163D

 29 29  0     1  0  0  0  0  0999 V2000
   -3.6042   -3.5728    1.4576 H   0  0  0  0  0  0  0  0  0  0  0  0
   -3.5202   -2.6488    0.8866 C   0  0  0  0  0  0  0  0  0  0  0  0
   -4.2052   -1.9048    1.2896 H   0  0  0  0  0  0  0  0  0  0  0  0
   -3.7552   -2.8428   -0.1584 H   0  0  0  0  0  0  0  0  0  0  0  0
   -2.1052   -2.1358    0.9946 C   0  0  0  0  0  0  0  0  0  0  0  0
   -1.2852   -2.7288    1.6826 O   0  0  0  0  0  0  0  0  0  0  0  0
   -1.8202   -1.0288    0.3146 N   0  0  0  0  0  0  0  0  0  0  0  0
   -2.5542   -0.5788   -0.2104 H   0  0  0  0  0  0  0  0  0  0  0  0
   -0.5102   -0.3728    0.3086 C   0  0  1  0  0  0  0  0  0  0  0  0
    0.0719   -0.7468    1.1521 H   0  0  0  0  0  0  0  0  0  0  0  0
    0.2338   -0.7427   -0.9878 C   0  0  0  0  0  0  0  0  0  0  0  0
   -0.2757   -1.5816   -1.4653 H   0  0  0  0  0  0  0  0  0  0  0  0
    0.1976    0.1060   -1.6733 H   0  0  0  0  0  0  0  0  0  0  0  0
    1.6762   -1.1195   -0.7694 C   0  0  0  0  0  0  0  0  0  0  0  0
    2.4131   -2.0017   -1.5301 N   0  0  0  0  0  0  0  0  0  0  0  0
    2.0639   -2.5703   -2.2871 H   0  0  0  0  0  0  0  0  0  0  0  0
    3.6802   -1.9775   -1.0838 C   0  0  0  0  0  0  0  0  0  0  0  0
    4.4951   -2.5707   -1.4804 H   0  0  0  0  0  0  0  0  0  0  0  0
    3.7995   -1.1059   -0.0716 N   0  0  0  0  0  0  0  0  0  0  0  0
    2.5319   -0.5575    0.1401 C   0  0  0  0  0  0  0  0  0  0  0  0
    2.2778    0.2025    0.8677 H   0  0  0  0  0  0  0  0  0  0  0  0
   -0.6600    1.1486    0.4782 C   0  0  0  0  0  0  0  0  0  0  0  0
   -1.5001    1.7648   -0.1771 O   0  0  0  0  0  0  0  0  0  0  0  0
    0.1634    1.7559    1.3418 N   0  0  0  0  0  0  0  0  0  0  0  0
    0.8618    1.1897    1.8008 H   0  0  0  0  0  0  0  0  0  0  0  0
    0.1509    3.1886    1.6256 C   0  0  0  0  0  0  0  0  0  0  0  0
   -0.8272    3.4794    2.0152 H   0  0  0  0  0  0  0  0  0  0  0  0
    0.9172    3.4314    2.3624 H   0  0  0  0  0  0  0  0  0  0  0  0
    0.3414    3.7499    0.7095 H   0  0  0  0  0  0  0  0  0  0  0  0
  5  6  2  0  0  0  0
  5  7  1  0  0  0  0
  2  3  1  0  0  0  0
  2  4  1  0  0  0  0
  2  5  1  0  0  0  0
  1  2  1  0  0  0  0
 22 23  2  0  0  0  0
 22 24  1  0  0  0  0
 20 21  1  0  0  0  0
 19 20  1  0  0  0  0
 17 18  1  0  0  0  0
 17 19  2  0  0  0  0
 15 16  1  0  0  0  0
 15 17  1  0  0  0  0
 14 15  1  0  0  0  0
 14 20  2  0  0  0  0
 11 12  1  0  0  0  0
 11 13  1  0  0  0  0
 11 14  1  0  0  0  0
  9 10  1  0  0  0  0
  9 11  1  0  0  0  0
  9 22  1  0  0  0  0
  7  8  1  0  0  0  0
  7  9  1  0  0  0  0
 26 27  1  0  0  0  0
 26 28  1  0  0  0  0
 26 29  1  0  0  0  0
 24 25  1  0  0  0  0
 24 26  1  0  0  0  0
M  END
$$$$
default_name
  -OEChem-02102213163D

 29 29  0     1  0  0  0  0  0999 V2000
   -3.6042   -3.5728    1.4576 H   0  0  0  0  0  0  0  0  0  0  0  0
   -3.5202   -2.6488    0.8866 C   0  0  0  0  0  0  0  0  0  0  0  0
   -4.2052   -1.9048    1.2896 H   0  0  0  0  0  0  0  0  0  0  0  0
   -3.7552   -2.8428   -0.1584 H   0  0  0  0  0  0  0  0  0  0  0  0
   -2.1052   -2.1358    0.9946 C   0  0  0  0  0  0  0  0  0  0  0  0
   -1.2852   -2.7288    1.6826 O   0  0  0  0  0  0  0  0  0  0  0  0
   -1.8202   -1.0288    0.3146 N   0  0  0  0  0  0  0  0  0  0  0  0
   -2.5542   -0.5788   -0.2104 H   0  0  0  0  0  0  0  0  0  0  0  0
   -0.5102   -0.3728    0.3086 C   0  0  1  0  0  0  0  0  0  0  0  0
    0.0719   -0.7468    1.1521 H   0  0  0  0  0  0  0  0  0  0  0  0
    0.2338   -0.7427   -0.9878 C   0  0  0  0  0  0  0  0  0  0  0  0
   -0.2757   -1.5816   -1.4653 H   0  0  0  0  0  0  0  0  0  0  0  0
    0.1976    0.1060   -1.6733 H   0  0  0  0  0  0  0  0  0  0  0  0
    1.6762   -1.1195   -0.7694 C   0  0  0  0  0  0  0  0  0  0  0  0
    2.4970   -1.7625   -1.6711 N   0  0  0  0  0  0  0  0  0  0  0  0
    2.2201   -2.1346   -2.5672 H   0  0  0  0  0  0  0  0  0  0  0  0
    3.7326   -1.8129   -1.1457 C   0  0  0  0  0  0  0  0  0  0  0  0
    4.5960   -2.2646   -1.6187 H   0  0  0  0  0  0  0  0  0  0  0  0
    3.7510   -1.2177    0.0559 N   0  0  0  0  0  0  0  0  0  0  0  0
    2.4492   -0.7768    0.3078 C   0  0  0  0  0  0  0  0  0  0  0  0
    2.1175   -0.2297    1.1808 H   0  0  0  0  0  0  0  0  0  0  0  0
   -0.6600    1.1486    0.4782 C   0  0  0  0  0  0  0  0  0  0  0  0
   -1.5001    1.7648   -0.1771 O   0  0  0  0  0  0  0  0  0  0  0  0
    0.1634    1.7559    1.3418 N   0  0  0  0  0  0  0  0  0  0  0  0
    0.8618    1.1897    1.8008 H   0  0  0  0  0  0  0  0  0  0  0  0
    0.1509    3.1886    1.6256 C   0  0  0  0  0  0  0  0  0  0  0  0
   -0.8272    3.4794    2.0152 H   0  0  0  0  0  0  0  0  0  0  0  0
    0.9172    3.4314    2.3624 H   0  0  0  0  0  0  0  0  0  0  0  0
    0.3414    3.7499    0.7095 H   0  0  0  0  0  0  0  0  0  0  0  0
  5  6  2  0  0  0  0
  5  7  1  0  0  0  0
  2  3  1  0  0  0  0
  2  4  1  0  0  0  0
  2  5  1  0  0  0  0
  1  2  1  0  0  0  0
 22 23  2  0  0  0  0
 22 24  1  0  0  0  0
 20 21  1  0  0  0  0
 19 20  1  0  0  0  0
 17 18  1  0  0  0  0
 17 19  2  0  0  0  0
 15 16  1  0  0  0  0
 15 17  1  0  0  0  0
 14 15  1  0  0  0  0
 14 20  2  0  0  0  0
 11 12  1  0  0  0  0
 11 13  1  0  0  0  0
 11 14  1  0  0  0  0
  9 10  1  0  0  0  0
  9 11  1  0  0  0  0
  9 22  1  0  0  0  0
  7  8  1  0  0  0  0
  7  9  1  0  0  0  0
 26 27  1  0  0  0  0
 26 28  1  0  0  0  0
 26 29  1  0  0  0  0
 24 25  1  0  0  0  0
 24 26  1  0  0  0  0
M  END
$$$$
default_name
  -OEChem-02102213163D

 29 29  0     1  0  0  0  0  0999 V2000
   -3.6042   -3.5728    1.4576 H   0  0  0  0  0  0  0  0  0  0  0  0
   -3.5202   -2.6488    0.8866 C   0  0  0  0  0  0  0  0  0  0  0  0
   -4.2052   -1.9048    1.2896 H   0  0  0  0  0  0  0  0  0  0  0  0
   -3.7552   -2.8428   -0.1584 H   0  0  0  0  0  0  0  0  0  0  0  0
   -2.1052   -2.1358    0.9946 C   0  0  0  0  0  0  0  0  0  0  0  0
   -1.2852   -2.7288    1.6826 O   0  0  0  0  0  0  0  0  0  0  0  0
   -1.8202   -1.0288    0.3146 N   0  0  0  0  0  0  0  0  0  0  0  0
   -2.5542   -0.5788   -0.2104 H   0  0  0  0  0  0  0  0  0  0  0  0
   -0.5102   -0.3728    0.3086 C   0  0  1  0  0  0  0  0  0  0  0  0
    0.0719   -0.7468    1.1521 H   0  0  0  0  0  0  0  0  0  0  0  0
    0.2338   -0.7427   -0.9878 C   0  0  0  0  0  0  0  0  0  0  0  0
   -0.4055   -1.3852   -1.5958 H   0  0  0  0  0  0  0  0  0  0  0  0
    0.4322    0.1678   -1.5563 H   0  0  0  0  0  0  0  0  0  0  0  0
    1.5413   -1.4532   -0.7516 C   0  0  0  0  0  0  0  0  0  0  0  0
    2.4137   -1.9001   -1.7208 N   0  0  0  0  0  0  0  0  0  0  0  0
    2.2570   -1.8797   -2.7174 H   0  0  0  0  0  0  0  0  0  0  0  0
    3.5102   -2.3745   -1.1061 C   0  0  0  0  0  0  0  0  0  0  0  0
    4.3722   -2.8009   -1.6045 H   0  0  0  0  0  0  0  0  0  0  0  0
    3.3912   -2.2427    0.2231 N   0  0  0  0  0  0  0  0  0  0  0  0
    2.1426   -1.6623    0.4609 C   0  0  0  0  0  0  0  0  0  0  0  0
    1.7372   -1.3920    1.4273 H   0  0  0  0  0  0  0  0  0  0  0  0
   -0.6600    1.1486    0.4782 C   0  0  0  0  0  0  0  0  0  0  0  0
   -1.5001    1.7648   -0.1771 O   0  0  0  0  0  0  0  0  0  0  0  0
    0.1634    1.7559    1.3418 N   0  0  0  0  0  0  0  0  0  0  0  0
    0.8618    1.1897    1.8008 H   0  0  0  0  0  0  0  0  0  0  0  0
    0.1509    3.1886    1.6256 C   0  0  0  0  0  0  0  0  0  0  0  0
   -0.8272    3.4794    2.0152 H   0  0  0  0  0  0  0  0  0  0  0  0
    0.9172    3.4314    2.3624 H   0  0  0  0  0  0  0  0  0  0  0  0
    0.3414    3.7499    0.7095 H   0  0  0  0  0  0  0  0  0  0  0  0
  5  6  2  0  0  0  0
  5  7  1  0  0  0  0
  2  3  1  0  0  0  0
  2  4  1  0  0  0  0
  2  5  1  0  0  0  0
  1  2  1  0  0  0  0
 22 23  2  0  0  0  0
 22 24  1  0  0  0  0
 20 21  1  0  0  0  0
 19 20  1  0  0  0  0
 17 18  1  0  0  0  0
 17 19  2  0  0  0  0
 15 16  1  0  0  0  0
 15 17  1  0  0  0  0
 14 15  1  0  0  0  0
 14 20  2  0  0  0  0
 11 12  1  0  0  0  0
 11 13  1  0  0  0  0
 11 14  1  0  0  0  0
  9 10  1  0  0  0  0
  9 11  1  0  0  0  0
  9 22  1  0  0  0  0
  7  8  1  0  0  0  0
  7  9  1  0  0  0  0
 26 27  1  0  0  0  0
 26 28  1  0  0  0  0
 26 29  1  0  0  0  0
 24 25  1  0  0  0  0
 24 26  1  0  0  0  0
M  END
$$$$
default_name
  -OEChem-02102213163D

 29 29  0     1  0  0  0  0  0999 V2000
   -3.6042   -3.5728    1.4576 H   0  0  0  0  0  0  0  0  0  0  0  0
   -3.5202   -2.6488    0.8866 C   0  0  0  0  0  0  0  0  0  0  0  0
   -4.2052   -1.9048    1.2896 H   0  0  0  0  0  0  0  0  0  0  0  0
   -3.7552   -2.8428   -0.1584 H   0  0  0  0  0  0  0  0  0  0  0  0
   -2.1052   -2.1358    0.9946 C   0  0  0  0  0  0  0  0  0  0  0  0
   -1.2852   -2.7288    1.6826 O   0  0  0  0  0  0  0  0  0  0  0  0
   -1.8202   -1.0288    0.3146 N   0  0  0  0  0  0  0  0  0  0  0  0
   -2.5542   -0.5788   -0.2104 H   0  0  0  0  0  0  0  0  0  0  0  0
   -0.5102   -0.3728    0.3086 C   0  0  1  0  0  0  0  0  0  0  0  0
    0.0719   -0.7468    1.1521 H   0  0  0  0  0  0  0  0  0  0  0  0
    0.2338   -0.7427   -0.9878 C   0  0  0  0  0  0  0  0  0  0  0  0
   -0.4055   -1.3852   -1.5958 H   0  0  0  0  0  0  0  0  0  0  0  0
    0.4322    0.1678   -1.5563 H   0  0  0  0  0  0  0  0  0  0  0  0
    1.5413   -1.4532   -0.7516 C   0  0  0  0  0  0  0  0  0  0  0  0
    2.5445   -1.6449   -1.6774 N   0  0  0  0  0  0  0  0  0  0  0  0
    2.5050   -1.4029   -2.6561 H   0  0  0  0  0  0  0  0  0  0  0  0
    3.5855   -2.2171   -1.0495 C   0  0  0  0  0  0  0  0  0  0  0  0
    4.5220   -2.4961   -1.5168 H   0  0  0  0  0  0  0  0  0  0  0  0
    3.3043   -2.3938    0.2497 N   0  0  0  0  0  0  0  0  0  0  0  0
    2.0066   -1.9162    0.4503 C   0  0  0  0  0  0  0  0  0  0  0  0
    1.4764   -1.8832    1.3933 H   0  0  0  0  0  0  0  0  0  0  0  0
   -0.6600    1.1486    0.4782 C   0  0  0  0  0  0  0  0  0  0  0  0
   -1.5001    1.7648   -0.1771 O   0  0  0  0  0  0  0  0  0  0  0  0
    0.1634    1.7559    1.3418 N   0  0  0  0  0  0  0  0  0  0  0  0
    0.8618    1.1897    1.8008 H   0  0  0  0  0  0  0  0  0  0  0  0
    0.1509    3.1886    1.6256 C   0  0  0  0  0  0  0  0  0  0  0  0
   -0.8272    3.4794    2.0152 H   0  0  0  0  0  0  0  0  0  0  0  0
    0.9172    3.4314    2.3624 H   0  0  0  0  0  0  0  0  0  0  0  0
    0.3414    3.7499    0.7095 H   0  0  0  0  0  0  0  0  0  0  0  0
  5  6  2  0  0  0  0
  5  7  1  0  0  0  0
  2  3  1  0  0  0  0
  2  4  1  0  0  0  0
  2  5  1  0  0  0  0
  1  2  1  0  0  0  0
 22 23  2  0  0  0  0
 22 24  1  0  0  0  0
 20 21  1  0  0  0  0
 19 20  1  0  0  0  0
 17 18  1  0  0  0  0
 17 19  2  0  0  0  0
 15 16  1  0  0  0  0
 15 17  1  0  0  0  0
 14 15  1  0  0  0  0
 14 20  2  0  0  0  0
 11 12  1  0  0  0  0
 11 13  1  0  0  0  0
 11 14  1  0  0  0  0
  9 10  1  0  0  0  0
  9 11  1  0  0  0  0
  9 22  1  0  0  0  0
  7  8  1  0  0  0  0
  7  9  1  0  0  0  0
 26 27  1  0  0  0  0
 26 28  1  0  0  0  0
 26 29  1  0  0  0  0
 24 25  1  0  0  0  0
 24 26  1  0  0  0  0
M  END
$$$$
default_name
  -OEChem-02102213163D

 29 29  0     1  0  0  0  0  0999 V2000
   -3.6042   -3.5728    1.4576 H   0  0  0  0  0  0  0  0  0  0  0  0
   -3.5202   -2.6488    0.8866 C   0  0  0  0  0  0  0  0  0  0  0  0
   -4.2052   -1.9048    1.2896 H   0  0  0  0  0  0  0  0  0  0  0  0
   -3.7552   -2.8428   -0.1584 H   0  0  0  0  0  0  0  0  0  0  0  0
   -2.1052   -2.1358    0.9946 C   0  0  0  0  0  0  0  0  0  0  0  0
   -1.2852   -2.7288    1.6826 O   0  0  0  0  0  0  0  0  0  0  0  0
   -1.8202   -1.0288    0.3146 N   0  0  0  0  0  0  0  0  0  0  0  0
   -2.5542   -0.5788   -0.2104 H   0  0  0  0  0  0  0  0  0  0  0  0
   -0.5102   -0.3728    0.3086 C   0  0  1  0  0  0  0  0  0  0  0  0
    0.0719   -0.7468    1.1521 H   0  0  0  0  0  0  0  0  0  0  0  0
    0.2338   -0.7427   -0.9878 C   0  0  0  0  0  0  0  0  0  0  0  0
   -0.4055   -1.3852   -1.5958 H   0  0  0  0  0  0  0  0  0  0  0  0
    0.4322    0.1678   -1.5563 H   0  0  0  0  0  0  0  0  0  0  0  0
    1.5413   -1.4532   -0.7516 C   0  0  0  0  0  0  0  0  0  0  0  0
    2.6552   -1.4029   -1.5621 N   0  0  0  0  0  0  0  0  0  0  0  0
    2.7177   -0.9460   -2.4596 H   0  0  0  0  0  0  0  0  0  0  0  0
    3.6450   -2.0748   -0.9503 C   0  0  0  0  0  0  0  0  0  0  0  0
    4.6436   -2.2152   -1.3454 H   0  0  0  0  0  0  0  0  0  0  0  0
    3.2232   -2.5494    0.2309 N   0  0  0  0  0  0  0  0  0  0  0  0
    1.8868   -2.1645    0.3665 C   0  0  0  0  0  0  0  0  0  0  0  0
    1.2485   -2.3607    1.2183 H   0  0  0  0  0  0  0  0  0  0  0  0
   -0.6600    1.1486    0.4782 C   0  0  0  0  0  0  0  0  0  0  0  0
   -1.5001    1.7648   -0.1771 O   0  0  0  0  0  0  0  0  0  0  0  0
    0.1634    1.7559    1.3418 N   0  0  0  0  0  0  0  0  0  0  0  0
    0.8618    1.1897    1.8008 H   0  0  0  0  0  0  0  0  0  0  0  0
    0.1509    3.1886    1.6256 C   0  0  0  0  0  0  0  0  0  0  0  0
   -0.8272    3.4794    2.0152 H   0  0  0  0  0  0  0  0  0  0  0  0
    0.9172    3.4314    2.3624 H   0  0  0  0  0  0  0  0  0  0  0  0
    0.3414    3.7499    0.7095 H   0  0  0  0  0  0  0  0  0  0  0  0
  5  6  2  0  0  0  0
  5  7  1  0  0  0  0
  2  3  1  0  0  0  0
  2  4  1  0  0  0  0
  2  5  1  0  0  0  0
  1  2  1  0  0  0  0
 22 23  2  0  0  0  0
 22 24  1  0  0  0  0
 20 21  1  0  0  0  0
 19 20  1  0  0  0  0
 17 18  1  0  0  0  0
 17 19  2  0  0  0  0
 15 16  1  0  0  0  0
 15 17  1  0  0  0  0
 14 15  1  0  0  0  0
 14 20  2  0  0  0  0
 11 12  1  0  0  0  0
 11 13  1  0  0  0  0
 11 14  1  0  0  0  0
  9 10  1  0  0  0  0
  9 11  1  0  0  0  0
  9 22  1  0  0  0  0
  7  8  1  0  0  0  0
  7  9  1  0  0  0  0
 26 27  1  0  0  0  0
 26 28  1  0  0  0  0
 26 29  1  0  0  0  0
 24 25  1  0  0  0  0
 24 26  1  0  0  0  0
M  END
$$$$
default_name
  -OEChem-02102213163D

 29 29  0     1  0  0  0  0  0999 V2000
   -3.6042   -3.5728    1.4576 H   0  0  0  0  0  0  0  0  0  0  0  0
   -3.5202   -2.6488    0.8866 C   0  0  0  0  0  0  0  0  0  0  0  0
   -4.2052   -1.9048    1.2896 H   0  0  0  0  0  0  0  0  0  0  0  0
   -3.7552   -2.8428   -0.1584 H   0  0  0  0  0  0  0  0  0  0  0  0
   -2.1052   -2.1358    0.9946 C   0  0  0  0  0  0  0  0  0  0  0  0
   -1.2852   -2.7288    1.6826 O   0  0  0  0  0  0  0  0  0  0  0  0
   -1.8202   -1.0288    0.3146 N   0  0  0  0  0  0  0  0  0  0  0  0
   -2.5542   -0.5788   -0.2104 H   0  0  0  0  0  0  0  0  0  0  0  0
   -0.5102   -0.3728    0.3086 C   0  0  1  0  0  0  0  0  0  0  0  0
    0.0719   -0.7468    1.1521 H   0  0  0  0  0  0  0  0  0  0  0  0
    0.2338   -0.7427   -0.9878 C   0  0  0  0  0  0  0  0  0  0  0  0
   -0.4055   -1.3852   -1.5958 H   0  0  0  0  0  0  0  0  0  0  0  0
    0.4322    0.1678   -1.5563 H   0  0  0  0  0  0  0  0  0  0  0  0
    1.5413   -1.4532   -0.7516 C   0  0  0  0  0  0  0  0  0  0  0  0
    2.7382   -1.1905   -1.3829 N   0  0  0  0  0  0  0  0  0  0  0  0
    2.8807   -0.5402   -2.1411 H   0  0  0  0  0  0  0  0  0  0  0  0
    3.6845   -1.9571   -0.8153 C   0  0  0  0  0  0  0  0  0  0  0  0
    4.7288   -1.9776   -1.1019 H   0  0  0  0  0  0  0  0  0  0  0  0
    3.1534   -2.6987    0.1678 N   0  0  0  0  0  0  0  0  0  0  0  0
    1.7914   -2.3904    0.2151 C   0  0  0  0  0  0  0  0  0  0  0  0
    1.0692   -2.7919    0.9142 H   0  0  0  0  0  0  0  0  0  0  0  0
   -0.6600    1.1486    0.4782 C   0  0  0  0  0  0  0  0  0  0  0  0
   -1.5001    1.7648   -0.1771 O   0  0  0  0  0  0  0  0  0  0  0  0
    0.1634    1.7559    1.3418 N   0  0  0  0  0  0  0  0  0  0  0  0
    0.8618    1.1897    1.8008 H   0  0  0  0  0  0  0  0  0  0  0  0
    0.1509    3.1886    1.6256 C   0  0  0  0  0  0  0  0  0  0  0  0
   -0.8272    3.4794    2.0152 H   0  0  0  0  0  0  0  0  0  0  0  0
    0.9172    3.4314    2.3624 H   0  0  0  0  0  0  0  0  0  0  0  0
    0.3414    3.7499    0.7095 H   0  0  0  0  0  0  0  0  0  0  0  0
  5  6  2  0  0  0  0
  5  7  1  0  0  0  0
  2  3  1  0  0  0  0
  2  4  1  0  0  0  0
  2  5  1  0  0  0  0
  1  2  1  0  0  0  0
 22 23  2  0  0  0  0
 22 24  1  0  0  0  0
 20 21  1  0  0  0  0
 19 20  1  0  0  0  0
 17 18  1  0  0  0  0
 17 19  2  0  0  0  0
 15 16  1  0  0  0  0
 15 17  1  0  0  0  0
 14 15  1  0  0  0  0
 14 20  2  0  0  0  0
 11 12  1  0  0  0  0
 11 13  1  0  0  0  0
 11 14  1  0  0  0  0
  9 10  1  0  0  0  0
  9 11  1  0  0  0  0
  9 22  1  0  0  0  0
  7  8  1  0  0  0  0
  7  9  1  0  0  0  0
 26 27  1  0  0  0  0
 26 28  1  0  0  0  0
 26 29  1  0  0  0  0
 24 25  1  0  0  0  0
 24 26  1  0  0  0  0
M  END
$$$$
default_name
  -OEChem-02102213163D

 29 29  0     1  0  0  0  0  0999 V2000
   -3.6042   -3.5728    1.4576 H   0  0  0  0  0  0  0  0  0  0  0  0
   -3.5202   -2.6488    0.8866 C   0  0  0  0  0  0  0  0  0  0  0  0
   -4.2052   -1.9048    1.2896 H   0  0  0  0  0  0  0  0  0  0  0  0
   -3.7552   -2.8428   -0.1584 H   0  0  0  0  0  0  0  0  0  0  0  0
   -2.1052   -2.1358    0.9946 C   0  0  0  0  0  0  0  0  0  0  0  0
   -1.2852   -2.7288    1.6826 O   0  0  0  0  0  0  0  0  0  0  0  0
   -1.8202   -1.0288    0.3146 N   0  0  0  0  0  0  0  0  0  0  0  0
   -2.5542   -0.5788   -0.2104 H   0  0  0  0  0  0  0  0  0  0  0  0
   -0.5102   -0.3728    0.3086 C   0  0  1  0  0  0  0  0  0  0  0  0
    0.0719   -0.7468    1.1521 H   0  0  0  0  0  0  0  0  0  0  0  0
    0.2338   -0.7427   -0.9878 C   0  0  0  0  0  0  0  0  0  0  0  0
   -0.4055   -1.3852   -1.5958 H   0  0  0  0  0  0  0  0  0  0  0  0
    0.4322    0.1678   -1.5563 H   0  0  0  0  0  0  0  0  0  0  0  0
    1.5413   -1.4532   -0.7516 C   0  0  0  0  0  0  0  0  0  0  0  0
    2.7879   -1.0222   -1.1519 N   0  0  0  0  0  0  0  0  0  0  0  0
    2.9828   -0.2131   -1.7225 H   0  0  0  0  0  0  0  0  0  0  0  0
    3.7014   -1.8723   -0.6536 C   0  0  0  0  0  0  0  0  0  0  0  0
    4.7717   -1.7992   -0.8029 H   0  0  0  0  0  0  0  0  0  0  0  0
    3.0998   -2.8316    0.0649 N   0  0  0  0  0  0  0  0  0  0  0  0
    1.7269   -2.5784    0.0065 C   0  0  0  0  0  0  0  0  0  0  0  0
    0.9506   -3.1473    0.5017 H   0  0  0  0  0  0  0  0  0  0  0  0
   -0.6600    1.1486    0.4782 C   0  0  0  0  0  0  0  0  0  0  0  0
   -1.5001    1.7648   -0.1771 O   0  0  0  0  0  0  0  0  0  0  0  0
    0.1634    1.7559    1.3418 N   0  0  0  0  0  0  0  0  0  0  0  0
    0.8618    1.1897    1.8008 H   0  0  0  0  0  0  0  0  0  0  0  0
    0.1509    3.1886    1.6256 C   0  0  0  0  0  0  0  0  0  0  0  0
   -0.8272    3.4794    2.0152 H   0  0  0  0  0  0  0  0  0  0  0  0
    0.9172    3.4314    2.3624 H   0  0  0  0  0  0  0  0  0  0  0  0
    0.3414    3.7499    0.7095 H   0  0  0  0  0  0  0  0  0  0  0  0
  5  6  2  0  0  0  0
  5  7  1  0  0  0  0
  2  3  1  0  0  0  0
  2  4  1  0  0  0  0
  2  5  1  0  0  0  0
  1  2  1  0  0  0  0
 22 23  2  0  0  0  0
 22 24  1  0  0  0  0
 20 21  1  0  0  0  0
 19 20  1  0  0  0  0
 17 18  1  0  0  0  0
 17 19  2  0  0  0  0
 15 16  1  0  0  0  0
 15 17  1  0  0  0  0
 14 15  1  0  0  0  0
 14 20  2  0  0  0  0
 11 12  1  0  0  0  0
 11 13  1  0  0  0  0
 11 14  1  0  0  0  0
  9 10  1  0  0  0  0
  9 11  1  0  0  0  0
  9 22  1  0  0  0  0
  7  8  1  0  0  0  0
  7  9  1  0  0  0  0
 26 27  1  0  0  0  0
 26 28  1  0  0  0  0
 26 29  1  0  0  0  0
 24 25  1  0  0  0  0
 24 26  1  0  0  0  0
M  END
$$$$
default_name
  -OEChem-02102213163D

 29 29  0     1  0  0  0  0  0999 V2000
   -3.6042   -3.5728    1.4576 H   0  0  0  0  0  0  0  0  0  0  0  0
   -3.5202   -2.6488    0.8866 C   0  0  0  0  0  0  0  0  0  0  0  0
   -4.2052   -1.9048    1.2896 H   0  0  0  0  0  0  0  0  0  0  0  0
   -3.7552   -2.8428   -0.1584 H   0  0  0  0  0  0  0  0  0  0  0  0
   -2.1052   -2.1358    0.9946 C   0  0  0  0  0  0  0  0  0  0  0  0
   -1.2852   -2.7288    1.6826 O   0  0  0  0  0  0  0  0  0  0  0  0
   -1.8202   -1.0288    0.3146 N   0  0  0  0  0  0  0  0  0  0  0  0
   -2.5542   -0.5788   -0.2104 H   0  0  0  0  0  0  0  0  0  0  0  0
   -0.5102   -0.3728    0.3086 C   0  0  1  0  0  0  0  0  0  0  0  0
    0.0719   -0.7468    1.1521 H   0  0  0  0  0  0  0  0  0  0  0  0
    0.2338   -0.7427   -0.9878 C   0  0  0  0  0  0  0  0  0  0  0  0
   -0.4055   -1.3852   -1.5958 H   0  0  0  0  0  0  0  0  0  0  0  0
    0.4322    0.1678   -1.5563 H   0  0  0  0  0  0  0  0  0  0  0  0
    1.5413   -1.4532   -0.7516 C   0  0  0  0  0  0  0  0  0  0  0  0
    2.8010   -0.9095   -0.8850 N   0  0  0  0  0  0  0  0  0  0  0  0
    3.0171    0.0129   -1.2322 H   0  0  0  0  0  0  0  0  0  0  0  0
    3.6946   -1.8259   -0.4763 C   0  0  0  0  0  0  0  0  0  0  0  0
    4.7694   -1.6923   -0.4689 H   0  0  0  0  0  0  0  0  0  0  0  0
    3.0660   -2.9390   -0.0709 N   0  0  0  0  0  0  0  0  0  0  0  0
    1.6976   -2.7159   -0.2451 C   0  0  0  0  0  0  0  0  0  0  0  0
    0.9008   -3.4028    0.0089 H   0  0  0  0  0  0  0  0  0  0  0  0
   -0.6600    1.1486    0.4782 C   0  0  0  0  0  0  0  0  0  0  0  0
   -1.5001    1.7648   -0.1771 O   0  0  0  0  0  0  0  0  0  0  0  0
    0.1634    1.7559    1.3418 N   0  0  0  0  0  0  0  0  0  0  0  0
    0.8618    1.1897    1.8008 H   0  0  0  0  0  0  0  0  0  0  0  0
    0.1509    3.1886    1.6256 C   0  0  0  0  0  0  0  0  0  0  0  0
   -0.8272    3.4794    2.0152 H   0  0  0  0  0  0  0  0  0  0  0  0
    0.9172    3.4314    2.3624 H   0  0  0  0  0  0  0  0  0  0  0  0
    0.3414    3.7499    0.7095 H   0  0  0  0  0  0  0  0  0  0  0  0
  5  6  2  0  0  0  0
  5  7  1  0  0  0  0
  2  3  1  0  0  0  0
  2  4  1  0  0  0  0
  2  5  1  0  0  0  0
  1  2  1  0  0  0  0
 22 23  2  0  0  0  0
 22 24  1  0  0  0  0
 20 21  1  0  0  0  0
 19 20  1  0  0  0  0
 17 18  1  0  0  0  0
 17 19  2  0  0  0  0
 15 16  1  0  0  0  0
 15 17  1  0  0  0  0
 14 15  1  0  0  0  0
 14 20  2  0  0  0  0
 11 12  1  0  0  0  0
 11 13  1  0  0  0  0
 11 14  1  0  0  0  0
  9 10  1  0  0  0  0
  9 11  1  0  0  0  0
  9 22  1  0  0  0  0
  7  8  1  0  0  0  0
  7  9  1  0  0  0  0
 26 27  1  0  0  0  0
 26 28  1  0  0  0  0
 26 29  1  0  0  0  0
 24 25  1  0  0  0  0
 24 26  1  0  0  0  0
M  END
$$$$
default_name
  -OEChem-02102213163D

 29 29  0     1  0  0  0  0  0999 V2000
   -3.6042   -3.5728    1.4576 H   0  0  0  0  0  0  0  0  0  0  0  0
   -3.5202   -2.6488    0.8866 C   0  0  0  0  0  0  0  0  0  0  0  0
   -4.2052   -1.9048    1.2896 H   0  0  0  0  0  0  0  0  0  0  0  0
   -3.7552   -2.8428   -0.1584 H   0  0  0  0  0  0  0  0  0  0  0  0
   -2.1052   -2.1358    0.9946 C   0  0  0  0  0  0  0  0  0  0  0  0
   -1.2852   -2.7288    1.6826 O   0  0  0  0  0  0  0  0  0  0  0  0
   -1.8202   -1.0288    0.3146 N   0  0  0  0  0  0  0  0  0  0  0  0
   -2.5542   -0.5788   -0.2104 H   0  0  0  0  0  0  0  0  0  0  0  0
   -0.5102   -0.3728    0.3086 C   0  0  1  0  0  0  0  0  0  0  0  0
    0.0719   -0.7468    1.1521 H   0  0  0  0  0  0  0  0  0  0  0  0
    0.2338   -0.7427   -0.9878 C   0  0  0  0  0  0  0  0  0  0  0  0
   -0.4055   -1.3852   -1.5958 H   0  0  0  0  0  0  0  0  0  0  0  0
    0.4322    0.1678   -1.5563 H   0  0  0  0  0  0  0  0  0  0  0  0
    1.5413   -1.4532   -0.7516 C   0  0  0  0  0  0  0  0  0  0  0  0
    2.7764   -0.8600   -0.6002 N   0  0  0  0  0  0  0  0  0  0  0  0
    2.9811    0.1226   -0.7037 H   0  0  0  0  0  0  0  0  0  0  0  0
    3.6644   -1.8212   -0.2954 C   0  0  0  0  0  0  0  0  0  0  0  0
    4.7221   -1.6642   -0.1224 H   0  0  0  0  0  0  0  0  0  0  0  0
    3.0543   -3.0136   -0.2304 N   0  0  0  0  0  0  0  0  0  0  0  0
    1.7057   -2.7933   -0.5225 C   0  0  0  0  0  0  0  0  0  0  0  0
    0.9232   -3.5410   -0.5305 H   0  0  0  0  0  0  0  0  0  0  0  0
   -0.6600    1.1486    0.4782 C   0  0  0  0  0  0  0  0  0  0  0  0
   -1.5001    1.7648   -0.1771 O   0  0  0  0  0  0  0  0  0  0  0  0
    0.1634    1.7559    1.3418 N   0  0  0  0  0  0  0  0  0  0  0  0
    0.8618    1.1897    1.8008 H   0  0  0  0  0  0  0  0  0  0  0  0
    0.1509    3.1886    1.6256 C   0  0  0  0  0  0  0  0  0  0  0  0
   -0.8272    3.4794    2.0152 H   0  0  0  0  0  0  0  0  0  0  0  0
    0.9172    3.4314    2.3624 H   0  0  0  0  0  0  0  0  0  0  0  0
    0.3414    3.7499    0.7095 H   0  0  0  0  0  0  0  0  0  0  0  0
  5  6  2  0  0  0  0
  5  7  1  0  0  0  0
  2  3  1  0  0  0  0
  2  4  1  0  0  0  0
  2  5  1  0  0  0  0
  1  2  1  0  0  0  0
 22 23  2  0  0  0  0
 22 24  1  0  0  0  0
 20 21  1  0  0  0  0
 19 20  1  0  0  0  0
 17 18  1  0  0  0  0
 17 19  2  0  0  0  0
 15 16  1  0  0  0  0
 15 17  1  0  0  0  0
 14 15  1  0  0  0  0
 14 20  2  0  0  0  0
 11 12  1  0  0  0  0
 11 13  1  0  0  0  0
 11 14  1  0  0  0  0
  9 10  1  0  0  0  0
  9 11  1  0  0  0  0
  9 22  1  0  0  0  0
  7  8  1  0  0  0  0
  7  9  1  0  0  0  0
 26 27  1  0  0  0  0
 26 28  1  0  0  0  0
 26 29  1  0  0  0  0
 24 25  1  0  0  0  0
 24 26  1  0  0  0  0
M  END
$$$$
default_name
  -OEChem-02102213163D

 29 29  0     1  0  0  0  0  0999 V2000
   -3.6042   -3.5728    1.4576 H   0  0  0  0  0  0  0  0  0  0  0  0
   -3.5202   -2.6488    0.8866 C   0  0  0  0  0  0  0  0  0  0  0  0
   -4.2052   -1.9048    1.2896 H   0  0  0  0  0  0  0  0  0  0  0  0
   -3.7552   -2.8428   -0.1584 H   0  0  0  0  0  0  0  0  0  0  0  0
   -2.1052   -2.1358    0.9946 C   0  0  0  0  0  0  0  0  0  0  0  0
   -1.2852   -2.7288    1.6826 O   0  0  0  0  0  0  0  0  0  0  0  0
   -1.8202   -1.0288    0.3146 N   0  0  0  0  0  0  0  0  0  0  0  0
   -2.5542   -0.5788   -0.2104 H   0  0  0  0  0  0  0  0  0  0  0  0
   -0.5102   -0.3728    0.3086 C   0  0  1  0  0  0  0  0  0  0  0  0
    0.0719   -0.7468    1.1521 H   0  0  0  0  0  0  0  0  0  0  0  0
    0.2338   -0.7427   -0.9878 C   0  0  0  0  0  0  0  0  0  0  0  0
   -0.4055   -1.3852   -1.5958 H   0  0  0  0  0  0  0  0  0  0  0  0
    0.4322    0.1678   -1.5563 H   0  0  0  0  0  0  0  0  0  0  0  0
    1.5413   -1.4532   -0.7516 C   0  0  0  0  0  0  0  0  0  0  0  0
    2.7159   -0.8772   -0.3171 N   0  0  0  0  0  0  0  0  0  0  0  0
    2.8775    0.1083   -0.1730 H   0  0  0  0  0  0  0  0  0  0  0  0
    3.6131   -1.8585   -0.1233 C   0  0  0  0  0  0  0  0  0  0  0  0
    4.6330   -1.7168    0.2127 H   0  0  0  0  0  0  0  0  0  0  0  0
    3.0654   -3.0503   -0.4026 N   0  0  0  0  0  0  0  0  0  0  0  0
    1.7505   -2.8054   -0.8069 C   0  0  0  0  0  0  0  0  0  0  0  0
    1.0162   -3.5523   -1.0798 H   0  0  0  0  0  0  0  0  0  0  0  0
   -0.6600    1.1486    0.4782 C   0  0  0  0  0  0  0  0  0  0  0  0
   -1.5001    1.7648   -0.1771 O   0  0  0  0  0  0  0  0  0  0  0  0
    0.1634    1.7559    1.3418 N   0  0  0  0  0  0  0  0  0  0  0  0
    0.8618    1.1897    1.8008 H   0  0  0  0  0  0  0  0  0  0  0  0
    0.1509    3.1886    1.6256 C   0  0  0  0  0  0  0  0  0  0  0  0
   -0.8272    3.4794    2.0152 H   0  0  0  0  0  0  0  0  0  0  0  0
    0.9172    3.4314    2.3624 H   0  0  0  0  0  0  0  0  0  0  0  0
    0.3414    3.7499    0.7095 H   0  0  0  0  0  0  0  0  0  0  0  0
  5  6  2  0  0  0  0
  5  7  1  0  0  0  0
  2  3  1  0  0  0  0
  2  4  1  0  0  0  0
  2  5  1  0  0  0  0
  1  2  1  0  0  0  0
 22 23  2  0  0  0  0
 22 24  1  0  0  0  0
 20 21  1  0  0  0  0
 19 20  1  0  0  0  0
 17 18  1  0  0  0  0
 17 19  2  0  0  0  0
 15 16  1  0  0  0  0
 15 17  1  0  0  0  0
 14 15  1  0  0  0  0
 14 20  2  0  0  0  0
 11 12  1  0  0  0  0
 11 13  1  0  0  0  0
 11 14  1  0  0  0  0
  9 10  1  0  0  0  0
  9 11  1  0  0  0  0
  9 22  1  0  0  0  0
  7  8  1  0  0  0  0
  7  9  1  0  0  0  0
 26 27  1  0  0  0  0
 26 28  1  0  0  0  0
 26 29  1  0  0  0  0
 24 25  1  0  0  0  0
 24 26  1  0  0  0  0
M  END
$$$$
default_name
  -OEChem-02102213163D

 29 29  0     1  0  0  0  0  0999 V2000
   -3.6042   -3.5728    1.4576 H   0  0  0  0  0  0  0  0  0  0  0  0
   -3.5202   -2.6488    0.8866 C   0  0  0  0  0  0  0  0  0  0  0  0
   -4.2052   -1.9048    1.2896 H   0  0  0  0  0  0  0  0  0  0  0  0
   -3.7552   -2.8428   -0.1584 H   0  0  0  0  0  0  0  0  0  0  0  0
   -2.1052   -2.1358    0.9946 C   0  0  0  0  0  0  0  0  0  0  0  0
   -1.2852   -2.7288    1.6826 O   0  0  0  0  0  0  0  0  0  0  0  0
   -1.8202   -1.0288    0.3146 N   0  0  0  0  0  0  0  0  0  0  0  0
   -2.5542   -0.5788   -0.2104 H   0  0  0  0  0  0  0  0  0  0  0  0
   -0.5102   -0.3728    0.3086 C   0  0  1  0  0  0  0  0  0  0  0  0
    0.0719   -0.7468    1.1521 H   0  0  0  0  0  0  0  0  0  0  0  0
    0.2338   -0.7427   -0.9878 C   0  0  0  0  0  0  0  0  0  0  0  0
   -0.4055   -1.3852   -1.5958 H   0  0  0  0  0  0  0  0  0  0  0  0
    0.4322    0.1678   -1.5563 H   0  0  0  0  0  0  0  0  0  0  0  0
    1.5413   -1.4532   -0.7516 C   0  0  0  0  0  0  0  0  0  0  0  0
    2.6236   -0.9599   -0.0548 N   0  0  0  0  0  0  0  0  0  0  0  0
    2.7132   -0.0289    0.3238 H   0  0  0  0  0  0  0  0  0  0  0  0
    3.5440   -1.9353    0.0282 C   0  0  0  0  0  0  0  0  0  0  0  0
    4.5081   -1.8465    0.5138 H   0  0  0  0  0  0  0  0  0  0  0  0
    3.0987   -3.0467   -0.5758 N   0  0  0  0  0  0  0  0  0  0  0  0
    1.8289   -2.7515   -1.0789 C   0  0  0  0  0  0  0  0  0  0  0  0
    1.1736   -3.4362   -1.6016 H   0  0  0  0  0  0  0  0  0  0  0  0
   -0.6600    1.1486    0.4782 C   0  0  0  0  0  0  0  0  0  0  0  0
   -1.5001    1.7648   -0.1771 O   0  0  0  0  0  0  0  0  0  0  0  0
    0.1634    1.7559    1.3418 N   0  0  0  0  0  0  0  0  0  0  0  0
    0.8618    1.1897    1.8008 H   0  0  0  0  0  0  0  0  0  0  0  0
    0.1509    3.1886    1.6256 C   0  0  0  0  0  0  0  0  0  0  0  0
   -0.8272    3.4794    2.0152 H   0  0  0  0  0  0  0  0  0  0  0  0
    0.9172    3.4314    2.3624 H   0  0  0  0  0  0  0  0  0  0  0  0
    0.3414    3.7499    0.7095 H   0  0  0  0  0  0  0  0  0  0  0  0
  5  6  2  0  0  0  0
  5  7  1  0  0  0  0
  2  3  1  0  0  0  0
  2  4  1  0  0  0  0
  2  5  1  0  0  0  0
  1  2  1  0  0  0  0
 22 23  2  0  0  0  0
 22 24  1  0  0  0  0
 20 21  1  0  0  0  0
 19 20  1  0  0  0  0
 17 18  1  0  0  0  0
 17 19  2  0  0  0  0
 15 16  1  0  0  0  0
 15 17  1  0  0  0  0
 14 15  1  0  0  0  0
 14 20  2  0  0  0  0
 11 12  1  0  0  0  0
 11 13  1  0  0  0  0
 11 14  1  0  0  0  0
  9 10  1  0  0  0  0
  9 11  1  0  0  0  0
  9 22  1  0  0  0  0
  7  8  1  0  0  0  0
  7  9  1  0  0  0  0
 26 27  1  0  0  0  0
 26 28  1  0  0  0  0
 26 29  1  0  0  0  0
 24 25  1  0  0  0  0
 24 26  1  0  0  0  0
M  END
$$$$
default_name
  -OEChem-02102213163D

 29 29  0     1  0  0  0  0  0999 V2000
   -3.6042   -3.5728    1.4576 H   0  0  0  0  0  0  0  0  0  0  0  0
   -3.5202   -2.6488    0.8866 C   0  0  0  0  0  0  0  0  0  0  0  0
   -4.2052   -1.9048    1.2896 H   0  0  0  0  0  0  0  0  0  0  0  0
   -3.7552   -2.8428   -0.1584 H   0  0  0  0  0  0  0  0  0  0  0  0
   -2.1052   -2.1358    0.9946 C   0  0  0  0  0  0  0  0  0  0  0  0
   -1.2852   -2.7288    1.6826 O   0  0  0  0  0  0  0  0  0  0  0  0
   -1.8202   -1.0288    0.3146 N   0  0  0  0  0  0  0  0  0  0  0  0
   -2.5542   -0.5788   -0.2104 H   0  0  0  0  0  0  0  0  0  0  0  0
   -0.5102   -0.3728    0.3086 C   0  0  1  0  0  0  0  0  0  0  0  0
    0.0719   -0.7468    1.1521 H   0  0  0  0  0  0  0  0  0  0  0  0
    0.2338   -0.7427   -0.9878 C   0  0  0  0  0  0  0  0  0  0  0  0
   -0.4055   -1.3852   -1.5958 H   0  0  0  0  0  0  0  0  0  0  0  0
    0.4322    0.1678   -1.5563 H   0  0  0  0  0  0  0  0  0  0  0  0
    1.5413   -1.4532   -0.7516 C   0  0  0  0  0  0  0  0  0  0  0  0
    2.5058   -1.1024    0.1687 N   0  0  0  0  0  0  0  0  0  0  0  0
    2.4994   -0.2797    0.7529 H   0  0  0  0  0  0  0  0  0  0  0  0
    3.4618   -2.0463    0.1489 C   0  0  0  0  0  0  0  0  0  0  0  0
    4.3560   -2.0445    0.7602 H   0  0  0  0  0  0  0  0  0  0  0  0
    3.1518   -3.0029   -0.7383 N   0  0  0  0  0  0  0  0  0  0  0  0
    1.9357   -2.6351   -1.3199 C   0  0  0  0  0  0  0  0  0  0  0  0
    1.3846   -3.2004   -2.0603 H   0  0  0  0  0  0  0  0  0  0  0  0
   -0.6600    1.1486    0.4782 C   0  0  0  0  0  0  0  0  0  0  0  0
   -1.5001    1.7648   -0.1771 O   0  0  0  0  0  0  0  0  0  0  0  0
    0.1634    1.7559    1.3418 N   0  0  0  0  0  0  0  0  0  0  0  0
    0.8618    1.1897    1.8008 H   0  0  0  0  0  0  0  0  0  0  0  0
    0.1509    3.1886    1.6256 C   0  0  0  0  0  0  0  0  0  0  0  0
   -0.8272    3.4794    2.0152 H   0  0  0  0  0  0  0  0  0  0  0  0
    0.9172    3.4314    2.3624 H   0  0  0  0  0  0  0  0  0  0  0  0
    0.3414    3.7499    0.7095 H   0  0  0  0  0  0  0  0  0  0  0  0
  5  6  2  0  0  0  0
  5  7  1  0  0  0  0
  2  3  1  0  0  0  0
  2  4  1  0  0  0  0
  2  5  1  0  0  0  0
  1  2  1  0  0  0  0
 22 23  2  0  0  0  0
 22 24  1  0  0  0  0
 20 21  1  0  0  0  0
 19 20  1  0  0  0  0
 17 18  1  0  0  0  0
 17 19  2  0  0  0  0
 15 16  1  0  0  0  0
 15 17  1  0  0  0  0
 14 15  1  0  0  0  0
 14 20  2  0  0  0  0
 11 12  1  0  0  0  0
 11 13  1  0  0  0  0
 11 14  1  0  0  0  0
  9 10  1  0  0  0  0
  9 11  1  0  0  0  0
  9 22  1  0  0  0  0
  7  8  1  0  0  0  0
  7  9  1  0  0  0  0
 26 27  1  0  0  0  0
 26 28  1  0  0  0  0
 26 29  1  0  0  0  0
 24 25  1  0  0  0  0
 24 26  1  0  0  0  0
M  END
$$$$
default_name
  -OEChem-02102213163D

 29 29  0     1  0  0  0  0  0999 V2000
   -3.6042   -3.5728    1.4576 H   0  0  0  0  0  0  0  0  0  0  0  0
   -3.5202   -2.6488    0.8866 C   0  0  0  0  0  0  0  0  0  0  0  0
   -4.2052   -1.9048    1.2896 H   0  0  0  0  0  0  0  0  0  0  0  0
   -3.7552   -2.8428   -0.1584 H   0  0  0  0  0  0  0  0  0  0  0  0
   -2.1052   -2.1358    0.9946 C   0  0  0  0  0  0  0  0  0  0  0  0
   -1.2852   -2.7288    1.6826 O   0  0  0  0  0  0  0  0  0  0  0  0
   -1.8202   -1.0288    0.3146 N   0  0  0  0  0  0  0  0  0  0  0  0
   -2.5542   -0.5788   -0.2104 H   0  0  0  0  0  0  0  0  0  0  0  0
   -0.5102   -0.3728    0.3086 C   0  0  1  0  0  0  0  0  0  0  0  0
    0.0719   -0.7468    1.1521 H   0  0  0  0  0  0  0  0  0  0  0  0
    0.2338   -0.7427   -0.9878 C   0  0  0  0  0  0  0  0  0  0  0  0
   -0.4055   -1.3852   -1.5958 H   0  0  0  0  0  0  0  0  0  0  0  0
    0.4322    0.1678   -1.5563 H   0  0  0  0  0  0  0  0  0  0  0  0
    1.5413   -1.4532   -0.7516 C   0  0  0  0  0  0  0  0  0  0  0  0
    2.3705   -1.2950    0.3381 N   0  0  0  0  0  0  0  0  0  0  0  0
    2.2507   -0.6270    1.0848 H   0  0  0  0  0  0  0  0  0  0  0  0
    3.3723   -2.1839    0.2306 C   0  0  0  0  0  0  0  0  0  0  0  0
    4.1871   -2.2972    0.9352 H   0  0  0  0  0  0  0  0  0  0  0  0
    3.2212   -2.9220   -0.8789 N   0  0  0  0  0  0  0  0  0  0  0  0
    2.0636   -2.4642   -1.5135 C   0  0  0  0  0  0  0  0  0  0  0  0
    1.6348   -2.8610   -2.4247 H   0  0  0  0  0  0  0  0  0  0  0  0
   -0.6600    1.1486    0.4782 C   0  0  0  0  0  0  0  0  0  0  0  0
   -1.5001    1.7648   -0.1771 O   0  0  0  0  0  0  0  0  0  0  0  0
    0.1634    1.7559    1.3418 N   0  0  0  0  0  0  0  0  0  0  0  0
    0.8618    1.1897    1.8008 H   0  0  0  0  0  0  0  0  0  0  0  0
    0.1509    3.1886    1.6256 C   0  0  0  0  0  0  0  0  0  0  0  0
   -0.8272    3.4794    2.0152 H   0  0  0  0  0  0  0  0  0  0  0  0
    0.9172    3.4314    2.3624 H   0  0  0  0  0  0  0  0  0  0  0  0
    0.3414    3.7499    0.7095 H   0  0  0  0  0  0  0  0  0  0  0  0
  5  6  2  0  0  0  0
  5  7  1  0  0  0  0
  2  3  1  0  0  0  0
  2  4  1  0  0  0  0
  2  5  1  0  0  0  0
  1  2  1  0  0  0  0
 22 23  2  0  0  0  0
 22 24  1  0  0  0  0
 20 21  1  0  0  0  0
 19 20  1  0  0  0  0
 17 18  1  0  0  0  0
 17 19  2  0  0  0  0
 15 16  1  0  0  0  0
 15 17  1  0  0  0  0
 14 15  1  0  0  0  0
 14 20  2  0  0  0  0
 11 12  1  0  0  0  0
 11 13  1  0  0  0  0
 11 14  1  0  0  0  0
  9 10  1  0  0  0  0
  9 11  1  0  0  0  0
  9 22  1  0  0  0  0
  7  8  1  0  0  0  0
  7  9  1  0  0  0  0
 26 27  1  0  0  0  0
 26 28  1  0  0  0  0
 26 29  1  0  0  0  0
 24 25  1  0  0  0  0
 24 26  1  0  0  0  0
M  END
$$$$
default_name
  -OEChem-02102213163D

 29 29  0     1  0  0  0  0  0999 V2000
   -3.6042   -3.5728    1.4576 H   0  0  0  0  0  0  0  0  0  0  0  0
   -3.5202   -2.6488    0.8866 C   0  0  0  0  0  0  0  0  0  0  0  0
   -4.2052   -1.9048    1.2896 H   0  0  0  0  0  0  0  0  0  0  0  0
   -3.7552   -2.8428   -0.1584 H   0  0  0  0  0  0  0  0  0  0  0  0
   -2.1052   -2.1358    0.9946 C   0  0  0  0  0  0  0  0  0  0  0  0
   -1.2852   -2.7288    1.6826 O   0  0  0  0  0  0  0  0  0  0  0  0
   -1.8202   -1.0288    0.3146 N   0  0  0  0  0  0  0  0  0  0  0  0
   -2.5542   -0.5788   -0.2104 H   0  0  0  0  0  0  0  0  0  0  0  0
   -0.5102   -0.3728    0.3086 C   0  0  1  0  0  0  0  0  0  0  0  0
    0.0719   -0.7468    1.1521 H   0  0  0  0  0  0  0  0  0  0  0  0
    0.2338   -0.7427   -0.9878 C   0  0  0  0  0  0  0  0  0  0  0  0
   -0.4055   -1.3852   -1.5958 H   0  0  0  0  0  0  0  0  0  0  0  0
    0.4322    0.1678   -1.5563 H   0  0  0  0  0  0  0  0  0  0  0  0
    1.5413   -1.4532   -0.7516 C   0  0  0  0  0  0  0  0  0  0  0  0
    2.2269   -1.5246    0.4421 N   0  0  0  0  0  0  0  0  0  0  0  0
    1.9841   -1.0471    1.2971 H   0  0  0  0  0  0  0  0  0  0  0  0
    3.2814   -2.3389    0.2676 C   0  0  0  0  0  0  0  0  0  0  0  0
    4.0128   -2.5875    1.0269 H   0  0  0  0  0  0  0  0  0  0  0  0
    3.3021   -2.8094   -0.9880 N   0  0  0  0  0  0  0  0  0  0  0  0
    2.2038   -2.2504   -1.6466 C   0  0  0  0  0  0  0  0  0  0  0  0
    1.9072   -2.4412   -2.6699 H   0  0  0  0  0  0  0  0  0  0  0  0
   -0.6600    1.1486    0.4782 C   0  0  0  0  0  0  0  0  0  0  0  0
   -1.5001    1.7648   -0.1771 O   0  0  0  0  0  0  0  0  0  0  0  0
    0.1634    1.7559    1.3418 N   0  0  0  0  0  0  0  0  0  0  0  0
    0.8618    1.1897    1.8008 H   0  0  0  0  0  0  0  0  0  0  0  0
    0.1509    3.1886    1.6256 C   0  0  0  0  0  0  0  0  0  0  0  0
   -0.8272    3.4794    2.0152 H   0  0  0  0  0  0  0  0  0  0  0  0
    0.9172    3.4314    2.3624 H   0  0  0  0  0  0  0  0  0  0  0  0
    0.3414    3.7499    0.7095 H   0  0  0  0  0  0  0  0  0  0  0  0
  5  6  2  0  0  0  0
  5  7  1  0  0  0  0
  2  3  1  0  0  0  0
  2  4  1  0  0  0  0
  2  5  1  0  0  0  0
  1  2  1  0  0  0  0
 22 23  2  0  0  0  0
 22 24  1  0  0  0  0
 20 21  1  0  0  0  0
 19 20  1  0  0  0  0
 17 18  1  0  0  0  0
 17 19  2  0  0  0  0
 15 16  1  0  0  0  0
 15 17  1  0  0  0  0
 14 15  1  0  0  0  0
 14 20  2  0  0  0  0
 11 12  1  0  0  0  0
 11 13  1  0  0  0  0
 11 14  1  0  0  0  0
  9 10  1  0  0  0  0
  9 11  1  0  0  0  0
  9 22  1  0  0  0  0
  7  8  1  0  0  0  0
  7  9  1  0  0  0  0
 26 27  1  0  0  0  0
 26 28  1  0  0  0  0
 26 29  1  0  0  0  0
 24 25  1  0  0  0  0
 24 26  1  0  0  0  0
M  END
$$$$
default_name
  -OEChem-02102213163D

 29 29  0     1  0  0  0  0  0999 V2000
   -3.6042   -3.5728    1.4576 H   0  0  0  0  0  0  0  0  0  0  0  0
   -3.5202   -2.6488    0.8866 C   0  0  0  0  0  0  0  0  0  0  0  0
   -4.2052   -1.9048    1.2896 H   0  0  0  0  0  0  0  0  0  0  0  0
   -3.7552   -2.8428   -0.1584 H   0  0  0  0  0  0  0  0  0  0  0  0
   -2.1052   -2.1358    0.9946 C   0  0  0  0  0  0  0  0  0  0  0  0
   -1.2852   -2.7288    1.6826 O   0  0  0  0  0  0  0  0  0  0  0  0
   -1.8202   -1.0288    0.3146 N   0  0  0  0  0  0  0  0  0  0  0  0
   -2.5542   -0.5788   -0.2104 H   0  0  0  0  0  0  0  0  0  0  0  0
   -0.5102   -0.3728    0.3086 C   0  0  1  0  0  0  0  0  0  0  0  0
    0.0719   -0.7468    1.1521 H   0  0  0  0  0  0  0  0  0  0  0  0
    0.2338   -0.7427   -0.9878 C   0  0  0  0  0  0  0  0  0  0  0  0
   -0.4055   -1.3852   -1.5958 H   0  0  0  0  0  0  0  0  0  0  0  0
    0.4322    0.1678   -1.5563 H   0  0  0  0  0  0  0  0  0  0  0  0
    1.5413   -1.4532   -0.7516 C   0  0  0  0  0  0  0  0  0  0  0  0
    2.0849   -1.7756    0.4734 N   0  0  0  0  0  0  0  0  0  0  0  0
    1.7177   -1.5114    1.3753 H   0  0  0  0  0  0  0  0  0  0  0  0
    3.1954   -2.5005    0.2574 C   0  0  0  0  0  0  0  0  0  0  0  0
    3.8450   -2.8955    1.0289 H   0  0  0  0  0  0  0  0  0  0  0  0
    3.3890   -2.6729   -1.0583 N   0  0  0  0  0  0  0  0  0  0  0  0
    2.3467   -2.0084   -1.7100 C   0  0  0  0  0  0  0  0  0  0  0  0
    2.1832   -1.9696   -2.7792 H   0  0  0  0  0  0  0  0  0  0  0  0
   -0.6600    1.1486    0.4782 C   0  0  0  0  0  0  0  0  0  0  0  0
   -1.5001    1.7648   -0.1771 O   0  0  0  0  0  0  0  0  0  0  0  0
    0.1634    1.7559    1.3418 N   0  0  0  0  0  0  0  0  0  0  0  0
    0.8618    1.1897    1.8008 H   0  0  0  0  0  0  0  0  0  0  0  0
    0.1509    3.1886    1.6256 C   0  0  0  0  0  0  0  0  0  0  0  0
   -0.8272    3.4794    2.0152 H   0  0  0  0  0  0  0  0  0  0  0  0
    0.9172    3.4314    2.3624 H   0  0  0  0  0  0  0  0  0  0  0  0
    0.3414    3.7499    0.7095 H   0  0  0  0  0  0  0  0  0  0  0  0
  5  6  2  0  0  0  0
  5  7  1  0  0  0  0
  2  3  1  0  0  0  0
  2  4  1  0  0  0  0
  2  5  1  0  0  0  0
  1  2  1  0  0  0  0
 22 23  2  0  0  0  0
 22 24  1  0  0  0  0
 20 21  1  0  0  0  0
 19 20  1  0  0  0  0
 17 18  1  0  0  0  0
 17 19  2  0  0  0  0
 15 16  1  0  0  0  0
 15 17  1  0  0  0  0
 14 15  1  0  0  0  0
 14 20  2  0  0  0  0
 11 12  1  0  0  0  0
 11 13  1  0  0  0  0
 11 14  1  0  0  0  0
  9 10  1  0  0  0  0
  9 11  1  0  0  0  0
  9 22  1  0  0  0  0
  7  8  1  0  0  0  0
  7  9  1  0  0  0  0
 26 27  1  0  0  0  0
 26 28  1  0  0  0  0
 26 29  1  0  0  0  0
 24 25  1  0  0  0  0
 24 26  1  0  0  0  0
M  END
$$$$
default_name
  -OEChem-02102213163D

 29 29  0     1  0  0  0  0  0999 V2000
   -3.6042   -3.5728    1.4576 H   0  0  0  0  0  0  0  0  0  0  0  0
   -3.5202   -2.6488    0.8866 C   0  0  0  0  0  0  0  0  0  0  0  0
   -4.2052   -1.9048    1.2896 H   0  0  0  0  0  0  0  0  0  0  0  0
   -3.7552   -2.8428   -0.1584 H   0  0  0  0  0  0  0  0  0  0  0  0
   -2.1052   -2.1358    0.9946 C   0  0  0  0  0  0  0  0  0  0  0  0
   -1.2852   -2.7288    1.6826 O   0  0  0  0  0  0  0  0  0  0  0  0
   -1.8202   -1.0288    0.3146 N   0  0  0  0  0  0  0  0  0  0  0  0
   -2.5542   -0.5788   -0.2104 H   0  0  0  0  0  0  0  0  0  0  0  0
   -0.5102   -0.3728    0.3086 C   0  0  1  0  0  0  0  0  0  0  0  0
    0.0719   -0.7468    1.1521 H   0  0  0  0  0  0  0  0  0  0  0  0
    0.2338   -0.7427   -0.9878 C   0  0  0  0  0  0  0  0  0  0  0  0
   -0.4055   -1.3852   -1.5958 H   0  0  0  0  0  0  0  0  0  0  0  0
    0.4322    0.1678   -1.5563 H   0  0  0  0  0  0  0  0  0  0  0  0
    1.5413   -1.4532   -0.7516 C   0  0  0  0  0  0  0  0  0  0  0  0
    1.9541   -2.0308    0.4299 N   0  0  0  0  0  0  0  0  0  0  0  0
    1.4697   -1.9882    1.3141 H   0  0  0  0  0  0  0  0  0  0  0  0
    3.1201   -2.6579    0.2008 C   0  0  0  0  0  0  0  0  0  0  0  0
    3.6952   -3.2003    0.9413 H   0  0  0  0  0  0  0  0  0  0  0  0
    3.4759   -2.5217   -1.0849 N   0  0  0  0  0  0  0  0  0  0  0  0
    2.4827   -1.7546   -1.6994 C   0  0  0  0  0  0  0  0  0  0  0  0
    2.4440   -1.4783   -2.7452 H   0  0  0  0  0  0  0  0  0  0  0  0
   -0.6600    1.1486    0.4782 C   0  0  0  0  0  0  0  0  0  0  0  0
   -1.5001    1.7648   -0.1771 O   0  0  0  0  0  0  0  0  0  0  0  0
    0.1634    1.7559    1.3418 N   0  0  0  0  0  0  0  0  0  0  0  0
    0.8618    1.1897    1.8008 H   0  0  0  0  0  0  0  0  0  0  0  0
    0.1509    3.1886    1.6256 C   0  0  0  0  0  0  0  0  0  0  0  0
   -0.8272    3.4794    2.0152 H   0  0  0  0  0  0  0  0  0  0  0  0
    0.9172    3.4314    2.3624 H   0  0  0  0  0  0  0  0  0  0  0  0
    0.3414    3.7499    0.7095 H   0  0  0  0  0  0  0  0  0  0  0  0
  5  6  2  0  0  0  0
  5  7  1  0  0  0  0
  2  3  1  0  0  0  0
  2  4  1  0  0  0  0
  2  5  1  0  0  0  0
  1  2  1  0  0  0  0
 22 23  2  0  0  0  0
 22 24  1  0  0  0  0
 20 21  1  0  0  0  0
 19 20  1  0  0  0  0
 17 18  1  0  0  0  0
 17 19  2  0  0  0  0
 15 16  1  0  0  0  0
 15 17  1  0  0  0  0
 14 15  1  0  0  0  0
 14 20  2  0  0  0  0
 11 12  1  0  0  0  0
 11 13  1  0  0  0  0
 11 14  1  0  0  0  0
  9 10  1  0  0  0  0
  9 11  1  0  0  0  0
  9 22  1  0  0  0  0
  7  8  1  0  0  0  0
  7  9  1  0  0  0  0
 26 27  1  0  0  0  0
 26 28  1  0  0  0  0
 26 29  1  0  0  0  0
 24 25  1  0  0  0  0
 24 26  1  0  0  0  0
M  END
$$$$
default_name
  -OEChem-02102213163D

 29 29  0     1  0  0  0  0  0999 V2000
   -3.6042   -3.5728    1.4576 H   0  0  0  0  0  0  0  0  0  0  0  0
   -3.5202   -2.6488    0.8866 C   0  0  0  0  0  0  0  0  0  0  0  0
   -4.2052   -1.9048    1.2896 H   0  0  0  0  0  0  0  0  0  0  0  0
   -3.7552   -2.8428   -0.1584 H   0  0  0  0  0  0  0  0  0  0  0  0
   -2.1052   -2.1358    0.9946 C   0  0  0  0  0  0  0  0  0  0  0  0
   -1.2852   -2.7288    1.6826 O   0  0  0  0  0  0  0  0  0  0  0  0
   -1.8202   -1.0288    0.3146 N   0  0  0  0  0  0  0  0  0  0  0  0
   -2.5542   -0.5788   -0.2104 H   0  0  0  0  0  0  0  0  0  0  0  0
   -0.5102   -0.3728    0.3086 C   0  0  1  0  0  0  0  0  0  0  0  0
    0.0719   -0.7468    1.1521 H   0  0  0  0  0  0  0  0  0  0  0  0
    0.2338   -0.7427   -0.9878 C   0  0  0  0  0  0  0  0  0  0  0  0
   -0.4055   -1.3852   -1.5958 H   0  0  0  0  0  0  0  0  0  0  0  0
    0.4322    0.1678   -1.5563 H   0  0  0  0  0  0  0  0  0  0  0  0
    1.5413   -1.4532   -0.7516 C   0  0  0  0  0  0  0  0  0  0  0  0
    1.8434   -2.2729    0.3147 N   0  0  0  0  0  0  0  0  0  0  0  0
    1.2569   -2.4451    1.1175 H   0  0  0  0  0  0  0  0  0  0  0  0
    3.0607   -2.8003    0.1016 C   0  0  0  0  0  0  0  0  0  0  0  0
    3.5736   -3.4812    0.7698 H   0  0  0  0  0  0  0  0  0  0  0  0
    3.5570   -2.3662   -1.0661 N   0  0  0  0  0  0  0  0  0  0  0  0
    2.6025   -1.5062   -1.6156 C   0  0  0  0  0  0  0  0  0  0  0  0
    2.6719   -1.0009   -2.5701 H   0  0  0  0  0  0  0  0  0  0  0  0
   -0.6600    1.1486    0.4782 C   0  0  0  0  0  0  0  0  0  0  0  0
   -1.5001    1.7648   -0.1771 O   0  0  0  0  0  0  0  0  0  0  0  0
    0.1634    1.7559    1.3418 N   0  0  0  0  0  0  0  0  0  0  0  0
    0.8618    1.1897    1.8008 H   0  0  0  0  0  0  0  0  0  0  0  0
    0.1509    3.1886    1.6256 C   0  0  0  0  0  0  0  0  0  0  0  0
   -0.8272    3.4794    2.0152 H   0  0  0  0  0  0  0  0  0  0  0  0
    0.9172    3.4314    2.3624 H   0  0  0  0  0  0  0  0  0  0  0  0
    0.3414    3.7499    0.7095 H   0  0  0  0  0  0  0  0  0  0  0  0
  5  6  2  0  0  0  0
  5  7  1  0  0  0  0
  2  3  1  0  0  0  0
  2  4  1  0  0  0  0
  2  5  1  0  0  0  0
  1  2  1  0  0  0  0
 22 23  2  0  0  0  0
 22 24  1  0  0  0  0
 20 21  1  0  0  0  0
 19 20  1  0  0  0  0
 17 18  1  0  0  0  0
 17 19  2  0  0  0  0
 15 16  1  0  0  0  0
 15 17  1  0  0  0  0
 14 15  1  0  0  0  0
 14 20  2  0  0  0  0
 11 12  1  0  0  0  0
 11 13  1  0  0  0  0
 11 14  1  0  0  0  0
  9 10  1  0  0  0  0
  9 11  1  0  0  0  0
  9 22  1  0  0  0  0
  7  8  1  0  0  0  0
  7  9  1  0  0  0  0
 26 27  1  0  0  0  0
 26 28  1  0  0  0  0
 26 29  1  0  0  0  0
 24 25  1  0  0  0  0
 24 26  1  0  0  0  0
M  END
$$$$
default_name
  -OEChem-02102213163D

 29 29  0     1  0  0  0  0  0999 V2000
   -3.6042   -3.5728    1.4576 H   0  0  0  0  0  0  0  0  0  0  0  0
   -3.5202   -2.6488    0.8866 C   0  0  0  0  0  0  0  0  0  0  0  0
   -4.2052   -1.9048    1.2896 H   0  0  0  0  0  0  0  0  0  0  0  0
   -3.7552   -2.8428   -0.1584 H   0  0  0  0  0  0  0  0  0  0  0  0
   -2.1052   -2.1358    0.9946 C   0  0  0  0  0  0  0  0  0  0  0  0
   -1.2852   -2.7288    1.6826 O   0  0  0  0  0  0  0  0  0  0  0  0
   -1.8202   -1.0288    0.3146 N   0  0  0  0  0  0  0  0  0  0  0  0
   -2.5542   -0.5788   -0.2104 H   0  0  0  0  0  0  0  0  0  0  0  0
   -0.5102   -0.3728    0.3086 C   0  0  1  0  0  0  0  0  0  0  0  0
    0.0719   -0.7468    1.1521 H   0  0  0  0  0  0  0  0  0  0  0  0
    0.2338   -0.7427   -0.9878 C   0  0  0  0  0  0  0  0  0  0  0  0
   -0.4055   -1.3852   -1.5958 H   0  0  0  0  0  0  0  0  0  0  0  0
    0.4322    0.1678   -1.5563 H   0  0  0  0  0  0  0  0  0  0  0  0
    1.5413   -1.4532   -0.7516 C   0  0  0  0  0  0  0  0  0  0  0  0
    1.7603   -2.4853    0.1355 N   0  0  0  0  0  0  0  0  0  0  0  0
    1.0939   -2.8509    0.7991 H   0  0  0  0  0  0  0  0  0  0  0  0
    3.0212   -2.9179   -0.0334 C   0  0  0  0  0  0  0  0  0  0  0  0
    3.4885   -3.7189    0.5263 H   0  0  0  0  0  0  0  0  0  0  0  0
    3.6268   -2.2169   -1.0030 N   0  0  0  0  0  0  0  0  0  0  0  0
    2.6979   -1.2804   -1.4642 C   0  0  0  0  0  0  0  0  0  0  0  0
    2.8512   -0.5697   -2.2660 H   0  0  0  0  0  0  0  0  0  0  0  0
   -0.6600    1.1486    0.4782 C   0  0  0  0  0  0  0  0  0  0  0  0
   -1.5001    1.7648   -0.1771 O   0  0  0  0  0  0  0  0  0  0  0  0
    0.1634    1.7559    1.3418 N   0  0  0  0  0  0  0  0  0  0  0  0
    0.8618    1.1897    1.8008 H   0  0  0  0  0  0  0  0  0  0  0  0
    0.1509    3.1886    1.6256 C   0  0  0  0  0  0  0  0  0  0  0  0
   -0.8272    3.4794    2.0152 H   0  0  0  0  0  0  0  0  0  0  0  0
    0.9172    3.4314    2.3624 H   0  0  0  0  0  0  0  0  0  0  0  0
    0.3414    3.7499    0.7095 H   0  0  0  0  0  0  0  0  0  0  0  0
  5  6  2  0  0  0  0
  5  7  1  0  0  0  0
  2  3  1  0  0  0  0
  2  4  1  0  0  0  0
  2  5  1  0  0  0  0
  1  2  1  0  0  0  0
 22 23  2  0  0  0  0
 22 24  1  0  0  0  0
 20 21  1  0  0  0  0
 19 20  1  0  0  0  0
 17 18  1  0  0  0  0
 17 19  2  0  0  0  0
 15 16  1  0  0  0  0
 15 17  1  0  0  0  0
 14 15  1  0  0  0  0
 14 20  2  0  0  0  0
 11 12  1  0  0  0  0
 11 13  1  0  0  0  0
 11 14  1  0  0  0  0
  9 10  1  0  0  0  0
  9 11  1  0  0  0  0
  9 22  1  0  0  0  0
  7  8  1  0  0  0  0
  7  9  1  0  0  0  0
 26 27  1  0  0  0  0
 26 28  1  0  0  0  0
 26 29  1  0  0  0  0
 24 25  1  0  0  0  0
 24 26  1  0  0  0  0
M  END
$$$$
default_name
  -OEChem-02102213163D

 29 29  0     1  0  0  0  0  0999 V2000
   -3.6042   -3.5728    1.4576 H   0  0  0  0  0  0  0  0  0  0  0  0
   -3.5202   -2.6488    0.8866 C   0  0  0  0  0  0  0  0  0  0  0  0
   -4.2052   -1.9048    1.2896 H   0  0  0  0  0  0  0  0  0  0  0  0
   -3.7552   -2.8428   -0.1584 H   0  0  0  0  0  0  0  0  0  0  0  0
   -2.1052   -2.1358    0.9946 C   0  0  0  0  0  0  0  0  0  0  0  0
   -1.2852   -2.7288    1.6826 O   0  0  0  0  0  0  0  0  0  0  0  0
   -1.8202   -1.0288    0.3146 N   0  0  0  0  0  0  0  0  0  0  0  0
   -2.5542   -0.5788   -0.2104 H   0  0  0  0  0  0  0  0  0  0  0  0
   -0.5102   -0.3728    0.3086 C   0  0  1  0  0  0  0  0  0  0  0  0
    0.0719   -0.7468    1.1521 H   0  0  0  0  0  0  0  0  0  0  0  0
    0.2338   -0.7427   -0.9878 C   0  0  0  0  0  0  0  0  0  0  0  0
   -0.4055   -1.3852   -1.5958 H   0  0  0  0  0  0  0  0  0  0  0  0
    0.4322    0.1678   -1.5563 H   0  0  0  0  0  0  0  0  0  0  0  0
    1.5413   -1.4532   -0.7516 C   0  0  0  0  0  0  0  0  0  0  0  0
    1.7106   -2.6536   -0.0955 N   0  0  0  0  0  0  0  0  0  0  0  0
    0.9918   -3.1780    0.3804 H   0  0  0  0  0  0  0  0  0  0  0  0
    3.0043   -3.0028   -0.1951 C   0  0  0  0  0  0  0  0  0  0  0  0
    3.4456   -3.8972    0.2274 H   0  0  0  0  0  0  0  0  0  0  0  0
    3.6804   -2.0840   -0.9001 N   0  0  0  0  0  0  0  0  0  0  0  0
    2.7624   -1.0923   -1.2556 C   0  0  0  0  0  0  0  0  0  0  0  0
    2.9698   -0.2143   -1.8535 H   0  0  0  0  0  0  0  0  0  0  0  0
   -0.6600    1.1486    0.4782 C   0  0  0  0  0  0  0  0  0  0  0  0
   -1.5001    1.7648   -0.1771 O   0  0  0  0  0  0  0  0  0  0  0  0
    0.1634    1.7559    1.3418 N   0  0  0  0  0  0  0  0  0  0  0  0
    0.8618    1.1897    1.8008 H   0  0  0  0  0  0  0  0  0  0  0  0
    0.1509    3.1886    1.6256 C   0  0  0  0  0  0  0  0  0  0  0  0
   -0.8272    3.4794    2.0152 H   0  0  0  0  0  0  0  0  0  0  0  0
    0.9172    3.4314    2.3624 H   0  0  0  0  0  0  0  0  0  0  0  0
    0.3414    3.7499    0.7095 H   0  0  0  0  0  0  0  0  0  0  0  0
  5  6  2  0  0  0  0
  5  7  1  0  0  0  0
  2  3  1  0  0  0  0
  2  4  1  0  0  0  0
  2  5  1  0  0  0  0
  1  2  1  0  0  0  0
 22 23  2  0  0  0  0
 22 24  1  0  0  0  0
 20 21  1  0  0  0  0
 19 20  1  0  0  0  0
 17 18  1  0  0  0  0
 17 19  2  0  0  0  0
 15 16  1  0  0  0  0
 15 17  1  0  0  0  0
 14 15  1  0  0  0  0
 14 20  2  0  0  0  0
 11 12  1  0  0  0  0
 11 13  1  0  0  0  0
 11 14  1  0  0  0  0
  9 10  1  0  0  0  0
  9 11  1  0  0  0  0
  9 22  1  0  0  0  0
  7  8  1  0  0  0  0
  7  9  1  0  0  0  0
 26 27  1  0  0  0  0
 26 28  1  0  0  0  0
 26 29  1  0  0  0  0
 24 25  1  0  0  0  0
 24 26  1  0  0  0  0
M  END
$$$$
default_name
  -OEChem-02102213163D

 29 29  0     1  0  0  0  0  0999 V2000
   -3.6042   -3.5728    1.4576 H   0  0  0  0  0  0  0  0  0  0  0  0
   -3.5202   -2.6488    0.8866 C   0  0  0  0  0  0  0  0  0  0  0  0
   -4.2052   -1.9048    1.2896 H   0  0  0  0  0  0  0  0  0  0  0  0
   -3.7552   -2.8428   -0.1584 H   0  0  0  0  0  0  0  0  0  0  0  0
   -2.1052   -2.1358    0.9946 C   0  0  0  0  0  0  0  0  0  0  0  0
   -1.2852   -2.7288    1.6826 O   0  0  0  0  0  0  0  0  0  0  0  0
   -1.8202   -1.0288    0.3146 N   0  0  0  0  0  0  0  0  0  0  0  0
   -2.5542   -0.5788   -0.2104 H   0  0  0  0  0  0  0  0  0  0  0  0
   -0.5102   -0.3728    0.3086 C   0  0  1  0  0  0  0  0  0  0  0  0
    0.0719   -0.7468    1.1521 H   0  0  0  0  0  0  0  0  0  0  0  0
    0.2338   -0.7427   -0.9878 C   0  0  0  0  0  0  0  0  0  0  0  0
   -0.4055   -1.3852   -1.5958 H   0  0  0  0  0  0  0  0  0  0  0  0
    0.4322    0.1678   -1.5563 H   0  0  0  0  0  0  0  0  0  0  0  0
    1.5413   -1.4532   -0.7516 C   0  0  0  0  0  0  0  0  0  0  0  0
    1.6976   -2.7663   -0.3624 N   0  0  0  0  0  0  0  0  0  0  0  0
    0.9576   -3.4040   -0.1098 H   0  0  0  0  0  0  0  0  0  0  0  0
    3.0111   -3.0491   -0.3724 C   0  0  0  0  0  0  0  0  0  0  0  0
    3.4479   -4.0041   -0.1067 H   0  0  0  0  0  0  0  0  0  0  0  0
    3.7142   -1.9766   -0.7643 N   0  0  0  0  0  0  0  0  0  0  0  0
    2.7916   -0.9549   -1.0040 C   0  0  0  0  0  0  0  0  0  0  0  0
    3.0196    0.0412   -1.3608 H   0  0  0  0  0  0  0  0  0  0  0  0
   -0.6600    1.1486    0.4782 C   0  0  0  0  0  0  0  0  0  0  0  0
   -1.5001    1.7648   -0.1771 O   0  0  0  0  0  0  0  0  0  0  0  0
    0.1634    1.7559    1.3418 N   0  0  0  0  0  0  0  0  0  0  0  0
    0.8618    1.1897    1.8008 H   0  0  0  0  0  0  0  0  0  0  0  0
    0.1509    3.1886    1.6256 C   0  0  0  0  0  0  0  0  0  0  0  0
   -0.8272    3.4794    2.0152 H   0  0  0  0  0  0  0  0  0  0  0  0
    0.9172    3.4314    2.3624 H   0  0  0  0  0  0  0  0  0  0  0  0
    0.3414    3.7499    0.7095 H   0  0  0  0  0  0  0  0  0  0  0  0
  5  6  2  0  0  0  0
  5  7  1  0  0  0  0
  2  3  1  0  0  0  0
  2  4  1  0  0  0  0
  2  5  1  0  0  0  0
  1  2  1  0  0  0  0
 22 23  2  0  0  0  0
 22 24  1  0  0  0  0
 20 21  1  0  0  0  0
 19 20  1  0  0  0  0
 17 18  1  0  0  0  0
 17 19  2  0  0  0  0
 15 16  1  0  0  0  0
 15 17  1  0  0  0  0
 14 15  1  0  0  0  0
 14 20  2  0  0  0  0
 11 12  1  0  0  0  0
 11 13  1  0  0  0  0
 11 14  1  0  0  0  0
  9 10  1  0  0  0  0
  9 11  1  0  0  0  0
  9 22  1  0  0  0  0
  7  8  1  0  0  0  0
  7  9  1  0  0  0  0
 26 27  1  0  0  0  0
 26 28  1  0  0  0  0
 26 29  1  0  0  0  0
 24 25  1  0  0  0  0
 24 26  1  0  0  0  0
M  END
$$$$
default_name
  -OEChem-02102213163D

 29 29  0     1  0  0  0  0  0999 V2000
   -3.6042   -3.5728    1.4576 H   0  0  0  0  0  0  0  0  0  0  0  0
   -3.5202   -2.6488    0.8866 C   0  0  0  0  0  0  0  0  0  0  0  0
   -4.2052   -1.9048    1.2896 H   0  0  0  0  0  0  0  0  0  0  0  0
   -3.7552   -2.8428   -0.1584 H   0  0  0  0  0  0  0  0  0  0  0  0
   -2.1052   -2.1358    0.9946 C   0  0  0  0  0  0  0  0  0  0  0  0
   -1.2852   -2.7288    1.6826 O   0  0  0  0  0  0  0  0  0  0  0  0
   -1.8202   -1.0288    0.3146 N   0  0  0  0  0  0  0  0  0  0  0  0
   -2.5542   -0.5788   -0.2104 H   0  0  0  0  0  0  0  0  0  0  0  0
   -0.5102   -0.3728    0.3086 C   0  0  1  0  0  0  0  0  0  0  0  0
    0.0719   -0.7468    1.1521 H   0  0  0  0  0  0  0  0  0  0  0  0
    0.2338   -0.7427   -0.9878 C   0  0  0  0  0  0  0  0  0  0  0  0
   -0.4055   -1.3852   -1.5958 H   0  0  0  0  0  0  0  0  0  0  0  0
    0.4322    0.1678   -1.5563 H   0  0  0  0  0  0  0  0  0  0  0  0
    1.5413   -1.4532   -0.7516 C   0  0  0  0  0  0  0  0  0  0  0  0
    1.7222   -2.8157   -0.6472 N   0  0  0  0  0  0  0  0  0  0  0  0
    0.9935   -3.5136   -0.6384 H   0  0  0  0  0  0  0  0  0  0  0  0
    3.0412   -3.0538   -0.5533 C   0  0  0  0  0  0  0  0  0  0  0  0
    3.4952   -4.0322   -0.4531 H   0  0  0  0  0  0  0  0  0  0  0  0
    3.7259   -1.9020   -0.6048 N   0  0  0  0  0  0  0  0  0  0  0  0
    2.7836   -0.8774   -0.7266 C   0  0  0  0  0  0  0  0  0  0  0  0
    2.9972    0.1794   -0.8214 H   0  0  0  0  0  0  0  0  0  0  0  0
   -0.6600    1.1486    0.4782 C   0  0  0  0  0  0  0  0  0  0  0  0
   -1.5001    1.7648   -0.1771 O   0  0  0  0  0  0  0  0  0  0  0  0
    0.1634    1.7559    1.3418 N   0  0  0  0  0  0  0  0  0  0  0  0
    0.8618    1.1897    1.8008 H   0  0  0  0  0  0  0  0  0  0  0  0
    0.1509    3.1886    1.6256 C   0  0  0  0  0  0  0  0  0  0  0  0
   -0.8272    3.4794    2.0152 H   0  0  0  0  0  0  0  0  0  0  0  0
    0.9172    3.4314    2.3624 H   0  0  0  0  0  0  0  0  0  0  0  0
    0.3414    3.7499    0.7095 H   0  0  0  0  0  0  0  0  0  0  0  0
  5  6  2  0  0  0  0
  5  7  1  0  0  0  0
  2  3  1  0  0  0  0
  2  4  1  0  0  0  0
  2  5  1  0  0  0  0
  1  2  1  0  0  0  0
 22 23  2  0  0  0  0
 22 24  1  0  0  0  0
 20 21  1  0  0  0  0
 19 20  1  0  0  0  0
 17 18  1  0  0  0  0
 17 19  2  0  0  0  0
 15 16  1  0  0  0  0
 15 17  1  0  0  0  0
 14 15  1  0  0  0  0
 14 20  2  0  0  0  0
 11 12  1  0  0  0  0
 11 13  1  0  0  0  0
 11 14  1  0  0  0  0
  9 10  1  0  0  0  0
  9 11  1  0  0  0  0
  9 22  1  0  0  0  0
  7  8  1  0  0  0  0
  7  9  1  0  0  0  0
 26 27  1  0  0  0  0
 26 28  1  0  0  0  0
 26 29  1  0  0  0  0
 24 25  1  0  0  0  0
 24 26  1  0  0  0  0
M  END
$$$$
default_name
  -OEChem-02102213163D

 29 29  0     1  0  0  0  0  0999 V2000
   -3.6042   -3.5728    1.4576 H   0  0  0  0  0  0  0  0  0  0  0  0
   -3.5202   -2.6488    0.8866 C   0  0  0  0  0  0  0  0  0  0  0  0
   -4.2052   -1.9048    1.2896 H   0  0  0  0  0  0  0  0  0  0  0  0
   -3.7552   -2.8428   -0.1584 H   0  0  0  0  0  0  0  0  0  0  0  0
   -2.1052   -2.1358    0.9946 C   0  0  0  0  0  0  0  0  0  0  0  0
   -1.2852   -2.7288    1.6826 O   0  0  0  0  0  0  0  0  0  0  0  0
   -1.8202   -1.0288    0.3146 N   0  0  0  0  0  0  0  0  0  0  0  0
   -2.5542   -0.5788   -0.2104 H   0  0  0  0  0  0  0  0  0  0  0  0
   -0.5102   -0.3728    0.3086 C   0  0  1  0  0  0  0  0  0  0  0  0
    0.0719   -0.7468    1.1521 H   0  0  0  0  0  0  0  0  0  0  0  0
    0.2338   -0.7427   -0.9878 C   0  0  0  0  0  0  0  0  0  0  0  0
   -0.4055   -1.3852   -1.5958 H   0  0  0  0  0  0  0  0  0  0  0  0
    0.4322    0.1678   -1.5563 H   0  0  0  0  0  0  0  0  0  0  0  0
    1.5413   -1.4532   -0.7516 C   0  0  0  0  0  0  0  0  0  0  0  0
    1.7827   -2.7985   -0.9303 N   0  0  0  0  0  0  0  0  0  0  0  0
    1.0972   -3.4993   -1.1691 H   0  0  0  0  0  0  0  0  0  0  0  0
    3.0926   -3.0165   -0.7253 C   0  0  0  0  0  0  0  0  0  0  0  0
    3.5843   -3.9796   -0.7883 H   0  0  0  0  0  0  0  0  0  0  0  0
    3.7148   -1.8652   -0.4326 N   0  0  0  0  0  0  0  0  0  0  0  0
    2.7388   -0.8653   -0.4422 C   0  0  0  0  0  0  0  0  0  0  0  0
    2.9042    0.1907   -0.2721 H   0  0  0  0  0  0  0  0  0  0  0  0
   -0.6600    1.1486    0.4782 C   0  0  0  0  0  0  0  0  0  0  0  0
   -1.5001    1.7648   -0.1771 O   0  0  0  0  0  0  0  0  0  0  0  0
    0.1634    1.7559    1.3418 N   0  0  0  0  0  0  0  0  0  0  0  0
    0.8618    1.1897    1.8008 H   0  0  0  0  0  0  0  0  0  0  0  0
    0.1509    3.1886    1.6256 C   0  0  0  0  0  0  0  0  0  0  0  0
   -0.8272    3.4794    2.0152 H   0  0  0  0  0  0  0  0  0  0  0  0
    0.9172    3.4314    2.3624 H   0  0  0  0  0  0  0  0  0  0  0  0
    0.3414    3.7499    0.7095 H   0  0  0  0  0  0  0  0  0  0  0  0
  5  6  2  0  0  0  0
  5  7  1  0  0  0  0
  2  3  1  0  0  0  0
  2  4  1  0  0  0  0
  2  5  1  0  0  0  0
  1  2  1  0  0  0  0
 22 23  2  0  0  0  0
 22 24  1  0  0  0  0
 20 21  1  0  0  0  0
 19 20  1  0  0  0  0
 17 18  1  0  0  0  0
 17 19  2  0  0  0  0
 15 16  1  0  0  0  0
 15 17  1  0  0  0  0
 14 15  1  0  0  0  0
 14 20  2  0  0  0  0
 11 12  1  0  0  0  0
 11 13  1  0  0  0  0
 11 14  1  0  0  0  0
  9 10  1  0  0  0  0
  9 11  1  0  0  0  0
  9 22  1  0  0  0  0
  7  8  1  0  0  0  0
  7  9  1  0  0  0  0
 26 27  1  0  0  0  0
 26 28  1  0  0  0  0
 26 29  1  0  0  0  0
 24 25  1  0  0  0  0
 24 26  1  0  0  0  0
M  END
$$$$
default_name
  -OEChem-02102213163D

 29 29  0     1  0  0  0  0  0999 V2000
   -3.6042   -3.5728    1.4576 H   0  0  0  0  0  0  0  0  0  0  0  0
   -3.5202   -2.6488    0.8866 C   0  0  0  0  0  0  0  0  0  0  0  0
   -4.2052   -1.9048    1.2896 H   0  0  0  0  0  0  0  0  0  0  0  0
   -3.7552   -2.8428   -0.1584 H   0  0  0  0  0  0  0  0  0  0  0  0
   -2.1052   -2.1358    0.9946 C   0  0  0  0  0  0  0  0  0  0  0  0
   -1.2852   -2.7288    1.6826 O   0  0  0  0  0  0  0  0  0  0  0  0
   -1.8202   -1.0288    0.3146 N   0  0  0  0  0  0  0  0  0  0  0  0
   -2.5542   -0.5788   -0.2104 H   0  0  0  0  0  0  0  0  0  0  0  0
   -0.5102   -0.3728    0.3086 C   0  0  1  0  0  0  0  0  0  0  0  0
    0.0719   -0.7468    1.1521 H   0  0  0  0  0  0  0  0  0  0  0  0
    0.2338   -0.7427   -0.9878 C   0  0  0  0  0  0  0  0  0  0  0  0
   -0.4055   -1.3852   -1.5958 H   0  0  0  0  0  0  0  0  0  0  0  0
    0.4322    0.1678   -1.5563 H   0  0  0  0  0  0  0  0  0  0  0  0
    1.5413   -1.4532   -0.7516 C   0  0  0  0  0  0  0  0  0  0  0  0
    1.8750   -2.7158   -1.1926 N   0  0  0  0  0  0  0  0  0  0  0  0
    1.2615   -3.3621   -1.6659 H   0  0  0  0  0  0  0  0  0  0  0  0
    3.1617   -2.9398   -0.8769 C   0  0  0  0  0  0  0  0  0  0  0  0
    3.7092   -3.8499   -1.0893 H   0  0  0  0  0  0  0  0  0  0  0  0
    3.6815   -1.8689   -0.2594 N   0  0  0  0  0  0  0  0  0  0  0  0
    2.6604   -0.9192   -0.1702 C   0  0  0  0  0  0  0  0  0  0  0  0
    2.7468    0.0746    0.2497 H   0  0  0  0  0  0  0  0  0  0  0  0
   -0.6600    1.1486    0.4782 C   0  0  0  0  0  0  0  0  0  0  0  0
   -1.5001    1.7648   -0.1771 O   0  0  0  0  0  0  0  0  0  0  0  0
    0.1634    1.7559    1.3418 N   0  0  0  0  0  0  0  0  0  0  0  0
    0.8618    1.1897    1.8008 H   0  0  0  0  0  0  0  0  0  0  0  0
    0.1509    3.1886    1.6256 C   0  0  0  0  0  0  0  0  0  0  0  0
   -0.8272    3.4794    2.0152 H   0  0  0  0  0  0  0  0  0  0  0  0
    0.9172    3.4314    2.3624 H   0  0  0  0  0  0  0  0  0  0  0  0
    0.3414    3.7499    0.7095 H   0  0  0  0  0  0  0  0  0  0  0  0
  5  6  2  0  0  0  0
  5  7  1  0  0  0  0
  2  3  1  0  0  0  0
  2  4  1  0  0  0  0
  2  5  1  0  0  0  0
  1  2  1  0  0  0  0
 22 23  2  0  0  0  0
 22 24  1  0  0  0  0
 20 21  1  0  0  0  0
 19 20  1  0  0  0  0
 17 18  1  0  0  0  0
 17 19  2  0  0  0  0
 15 16  1  0  0  0  0
 15 17  1  0  0  0  0
 14 15  1  0  0  0  0
 14 20  2  0  0  0  0
 11 12  1  0  0  0  0
 11 13  1  0  0  0  0
 11 14  1  0  0  0  0
  9 10  1  0  0  0  0
  9 11  1  0  0  0  0
  9 22  1  0  0  0  0
  7  8  1  0  0  0  0
  7  9  1  0  0  0  0
 26 27  1  0  0  0  0
 26 28  1  0  0  0  0
 26 29  1  0  0  0  0
 24 25  1  0  0  0  0
 24 26  1  0  0  0  0
M  END
$$$$
default_name
  -OEChem-02102213163D

 29 29  0     1  0  0  0  0  0999 V2000
   -3.6042   -3.5728    1.4576 H   0  0  0  0  0  0  0  0  0  0  0  0
   -3.5202   -2.6488    0.8866 C   0  0  0  0  0  0  0  0  0  0  0  0
   -4.2052   -1.9048    1.2896 H   0  0  0  0  0  0  0  0  0  0  0  0
   -3.7552   -2.8428   -0.1584 H   0  0  0  0  0  0  0  0  0  0  0  0
   -2.1052   -2.1358    0.9946 C   0  0  0  0  0  0  0  0  0  0  0  0
   -1.2852   -2.7288    1.6826 O   0  0  0  0  0  0  0  0  0  0  0  0
   -1.8202   -1.0288    0.3146 N   0  0  0  0  0  0  0  0  0  0  0  0
   -2.5542   -0.5788   -0.2104 H   0  0  0  0  0  0  0  0  0  0  0  0
   -0.5102   -0.3728    0.3086 C   0  0  1  0  0  0  0  0  0  0  0  0
    0.0719   -0.7468    1.1521 H   0  0  0  0  0  0  0  0  0  0  0  0
    0.2338   -0.7427   -0.9878 C   0  0  0  0  0  0  0  0  0  0  0  0
   -0.4055   -1.3852   -1.5958 H   0  0  0  0  0  0  0  0  0  0  0  0
    0.4322    0.1678   -1.5563 H   0  0  0  0  0  0  0  0  0  0  0  0
    1.5413   -1.4532   -0.7516 C   0  0  0  0  0  0  0  0  0  0  0  0
    1.9928   -2.5733   -1.4161 N   0  0  0  0  0  0  0  0  0  0  0  0
    1.4752   -3.1113   -2.0949 H   0  0  0  0  0  0  0  0  0  0  0  0
    3.2438   -2.8288   -0.9976 C   0  0  0  0  0  0  0  0  0  0  0  0
    3.8612   -3.6519   -1.3358 H   0  0  0  0  0  0  0  0  0  0  0  0
    3.6284   -1.9126   -0.0969 N   0  0  0  0  0  0  0  0  0  0  0  0
    2.5536   -1.0356    0.0708 C   0  0  0  0  0  0  0  0  0  0  0  0
    2.5358   -0.1612    0.7084 H   0  0  0  0  0  0  0  0  0  0  0  0
   -0.6600    1.1486    0.4782 C   0  0  0  0  0  0  0  0  0  0  0  0
   -1.5001    1.7648   -0.1771 O   0  0  0  0  0  0  0  0  0  0  0  0
    0.1634    1.7559    1.3418 N   0  0  0  0  0  0  0  0  0  0  0  0
    0.8618    1.1897    1.8008 H   0  0  0  0  0  0  0  0  0  0  0  0
    0.1509    3.1886    1.6256 C   0  0  0  0  0  0  0  0  0  0  0  0
   -0.8272    3.4794    2.0152 H   0  0  0  0  0  0  0  0  0  0  0  0
    0.9172    3.4314    2.3624 H   0  0  0  0  0  0  0  0  0  0  0  0
    0.3414    3.7499    0.7095 H   0  0  0  0  0  0  0  0  0  0  0  0
  5  6  2  0  0  0  0
  5  7  1  0  0  0  0
  2  3  1  0  0  0  0
  2  4  1  0  0  0  0
  2  5  1  0  0  0  0
  1  2  1  0  0  0  0
 22 23  2  0  0  0  0
 22 24  1  0  0  0  0
 20 21  1  0  0  0  0
 19 20  1  0  0  0  0
 17 18  1  0  0  0  0
 17 19  2  0  0  0  0
 15 16  1  0  0  0  0
 15 17  1  0  0  0  0
 14 15  1  0  0  0  0
 14 20  2  0  0  0  0
 11 12  1  0  0  0  0
 11 13  1  0  0  0  0
 11 14  1  0  0  0  0
  9 10  1  0  0  0  0
  9 11  1  0  0  0  0
  9 22  1  0  0  0  0
  7  8  1  0  0  0  0
  7  9  1  0  0  0  0
 26 27  1  0  0  0  0
 26 28  1  0  0  0  0
 26 29  1  0  0  0  0
 24 25  1  0  0  0  0
 24 26  1  0  0  0  0
M  END
$$$$
default_name
  -OEChem-02102213163D

 29 29  0     1  0  0  0  0  0999 V2000
   -3.6042   -3.5728    1.4576 H   0  0  0  0  0  0  0  0  0  0  0  0
   -3.5202   -2.6488    0.8866 C   0  0  0  0  0  0  0  0  0  0  0  0
   -4.2052   -1.9048    1.2896 H   0  0  0  0  0  0  0  0  0  0  0  0
   -3.7552   -2.8428   -0.1584 H   0  0  0  0  0  0  0  0  0  0  0  0
   -2.1052   -2.1358    0.9946 C   0  0  0  0  0  0  0  0  0  0  0  0
   -1.2852   -2.7288    1.6826 O   0  0  0  0  0  0  0  0  0  0  0  0
   -1.8202   -1.0288    0.3146 N   0  0  0  0  0  0  0  0  0  0  0  0
   -2.5542   -0.5788   -0.2104 H   0  0  0  0  0  0  0  0  0  0  0  0
   -0.5102   -0.3728    0.3086 C   0  0  1  0  0  0  0  0  0  0  0  0
    0.0719   -0.7468    1.1521 H   0  0  0  0  0  0  0  0  0  0  0  0
    0.2338   -0.7427   -0.9878 C   0  0  0  0  0  0  0  0  0  0  0  0
   -0.4055   -1.3852   -1.5958 H   0  0  0  0  0  0  0  0  0  0  0  0
    0.4322    0.1678   -1.5563 H   0  0  0  0  0  0  0  0  0  0  0  0
    1.5413   -1.4532   -0.7516 C   0  0  0  0  0  0  0  0  0  0  0  0
    2.1281   -2.3807   -1.5856 N   0  0  0  0  0  0  0  0  0  0  0  0
    1.7239   -2.7641   -2.4269 H   0  0  0  0  0  0  0  0  0  0  0  0
    3.3334   -2.6911   -1.0792 C   0  0  0  0  0  0  0  0  0  0  0  0
    4.0302   -3.3992   -1.5108 H   0  0  0  0  0  0  0  0  0  0  0  0
    3.5590   -1.9936    0.0437 N   0  0  0  0  0  0  0  0  0  0  0  0
    2.4257   -1.2065    0.2644 C   0  0  0  0  0  0  0  0  0  0  0  0
    2.2856   -0.5006    1.0728 H   0  0  0  0  0  0  0  0  0  0  0  0
   -0.6600    1.1486    0.4782 C   0  0  0  0  0  0  0  0  0  0  0  0
   -1.5001    1.7648   -0.1771 O   0  0  0  0  0  0  0  0  0  0  0  0
    0.1634    1.7559    1.3418 N   0  0  0  0  0  0  0  0  0  0  0  0
    0.8618    1.1897    1.8008 H   0  0  0  0  0  0  0  0  0  0  0  0
    0.1509    3.1886    1.6256 C   0  0  0  0  0  0  0  0  0  0  0  0
   -0.8272    3.4794    2.0152 H   0  0  0  0  0  0  0  0  0  0  0  0
    0.9172    3.4314    2.3624 H   0  0  0  0  0  0  0  0  0  0  0  0
    0.3414    3.7499    0.7095 H   0  0  0  0  0  0  0  0  0  0  0  0
  5  6  2  0  0  0  0
  5  7  1  0  0  0  0
  2  3  1  0  0  0  0
  2  4  1  0  0  0  0
  2  5  1  0  0  0  0
  1  2  1  0  0  0  0
 22 23  2  0  0  0  0
 22 24  1  0  0  0  0
 20 21  1  0  0  0  0
 19 20  1  0  0  0  0
 17 18  1  0  0  0  0
 17 19  2  0  0  0  0
 15 16  1  0  0  0  0
 15 17  1  0  0  0  0
 14 15  1  0  0  0  0
 14 20  2  0  0  0  0
 11 12  1  0  0  0  0
 11 13  1  0  0  0  0
 11 14  1  0  0  0  0
  9 10  1  0  0  0  0
  9 11  1  0  0  0  0
  9 22  1  0  0  0  0
  7  8  1  0  0  0  0
  7  9  1  0  0  0  0
 26 27  1  0  0  0  0
 26 28  1  0  0  0  0
 26 29  1  0  0  0  0
 24 25  1  0  0  0  0
 24 26  1  0  0  0  0
M  END
$$$$
default_name
  -OEChem-02102213163D

 29 29  0     1  0  0  0  0  0999 V2000
   -3.6042   -3.5728    1.4576 H   0  0  0  0  0  0  0  0  0  0  0  0
   -3.5202   -2.6488    0.8866 C   0  0  0  0  0  0  0  0  0  0  0  0
   -4.2052   -1.9048    1.2896 H   0  0  0  0  0  0  0  0  0  0  0  0
   -3.7552   -2.8428   -0.1584 H   0  0  0  0  0  0  0  0  0  0  0  0
   -2.1052   -2.1358    0.9946 C   0  0  0  0  0  0  0  0  0  0  0  0
   -1.2852   -2.7288    1.6826 O   0  0  0  0  0  0  0  0  0  0  0  0
   -1.8202   -1.0288    0.3146 N   0  0  0  0  0  0  0  0  0  0  0  0
   -2.5542   -0.5788   -0.2104 H   0  0  0  0  0  0  0  0  0  0  0  0
   -0.5102   -0.3728    0.3086 C   0  0  1  0  0  0  0  0  0  0  0  0
    0.0719   -0.7468    1.1521 H   0  0  0  0  0  0  0  0  0  0  0  0
    0.2338   -0.7427   -0.9878 C   0  0  0  0  0  0  0  0  0  0  0  0
   -0.4055   -1.3852   -1.5958 H   0  0  0  0  0  0  0  0  0  0  0  0
    0.4322    0.1678   -1.5563 H   0  0  0  0  0  0  0  0  0  0  0  0
    1.5413   -1.4532   -0.7516 C   0  0  0  0  0  0  0  0  0  0  0  0
    2.2716   -2.1511   -1.6895 N   0  0  0  0  0  0  0  0  0  0  0  0
    1.9906   -2.3440   -2.6392 H   0  0  0  0  0  0  0  0  0  0  0  0
    3.4242   -2.5362   -1.1162 C   0  0  0  0  0  0  0  0  0  0  0  0
    4.2045   -3.1089   -1.6024 H   0  0  0  0  0  0  0  0  0  0  0  0
    3.4781   -2.1061    0.1528 N   0  0  0  0  0  0  0  0  0  0  0  0
    2.2855   -1.4203    0.3975 C   0  0  0  0  0  0  0  0  0  0  0  0
    2.0132   -0.9204    1.3180 H   0  0  0  0  0  0  0  0  0  0  0  0
   -0.6600    1.1486    0.4782 C   0  0  0  0  0  0  0  0  0  0  0  0
   -1.5001    1.7648   -0.1771 O   0  0  0  0  0  0  0  0  0  0  0  0
    0.1634    1.7559    1.3418 N   0  0  0  0  0  0  0  0  0  0  0  0
    0.8618    1.1897    1.8008 H   0  0  0  0  0  0  0  0  0  0  0  0
    0.1509    3.1886    1.6256 C   0  0  0  0  0  0  0  0  0  0  0  0
   -0.8272    3.4794    2.0152 H   0  0  0  0  0  0  0  0  0  0  0  0
    0.9172    3.4314    2.3624 H   0  0  0  0  0  0  0  0  0  0  0  0
    0.3414    3.7499    0.7095 H   0  0  0  0  0  0  0  0  0  0  0  0
  5  6  2  0  0  0  0
  5  7  1  0  0  0  0
  2  3  1  0  0  0  0
  2  4  1  0  0  0  0
  2  5  1  0  0  0  0
  1  2  1  0  0  0  0
 22 23  2  0  0  0  0
 22 24  1  0  0  0  0
 20 21  1  0  0  0  0
 19 20  1  0  0  0  0
 17 18  1  0  0  0  0
 17 19  2  0  0  0  0
 15 16  1  0  0  0  0
 15 17  1  0  0  0  0
 14 15  1  0  0  0  0
 14 20  2  0  0  0  0
 11 12  1  0  0  0  0
 11 13  1  0  0  0  0
 11 14  1  0  0  0  0
  9 10  1  0  0  0  0
  9 11  1  0  0  0  0
  9 22  1  0  0  0  0
  7  8  1  0  0  0  0
  7  9  1  0  0  0  0
 26 27  1  0  0  0  0
 26 28  1  0  0  0  0
 26 29  1  0  0  0  0
 24 25  1  0  0  0  0
 24 26  1  0  0  0  0
M  END
$$$$
default_name
  -OEChem-02102213163D

 29 29  0     1  0  0  0  0  0999 V2000
   -3.6042   -3.5728    1.4576 H   0  0  0  0  0  0  0  0  0  0  0  0
   -3.5202   -2.6488    0.8866 C   0  0  0  0  0  0  0  0  0  0  0  0
   -4.2052   -1.9048    1.2896 H   0  0  0  0  0  0  0  0  0  0  0  0
   -3.7552   -2.8428   -0.1584 H   0  0  0  0  0  0  0  0  0  0  0  0
   -2.1052   -2.1358    0.9946 C   0  0  0  0  0  0  0  0  0  0  0  0
   -1.2852   -2.7288    1.6826 O   0  0  0  0  0  0  0  0  0  0  0  0
   -1.8202   -1.0288    0.3146 N   0  0  0  0  0  0  0  0  0  0  0  0
   -2.5542   -0.5788   -0.2104 H   0  0  0  0  0  0  0  0  0  0  0  0
   -0.5102   -0.3728    0.3086 C   0  0  1  0  0  0  0  0  0  0  0  0
    0.0719   -0.7468    1.1521 H   0  0  0  0  0  0  0  0  0  0  0  0
    0.2338   -0.7427   -0.9878 C   0  0  0  0  0  0  0  0  0  0  0  0
   -0.4801   -1.1509   -1.7055 H   0  0  0  0  0  0  0  0  0  0  0  0
    0.6651    0.1617   -1.4209 H   0  0  0  0  0  0  0  0  0  0  0  0
    1.3372   -1.7484   -0.7845 C   0  0  0  0  0  0  0  0  0  0  0  0
    2.1648   -2.2600   -1.7609 N   0  0  0  0  0  0  0  0  0  0  0  0
    2.0924   -2.0877   -2.7525 H   0  0  0  0  0  0  0  0  0  0  0  0
    3.0846   -3.0350   -1.1619 C   0  0  0  0  0  0  0  0  0  0  0  0
    3.8707   -3.5801   -1.6700 H   0  0  0  0  0  0  0  0  0  0  0  0
    2.8958   -3.0381    0.1657 N   0  0  0  0  0  0  0  0  0  0  0  0
    1.7858   -2.2275    0.4174 C   0  0  0  0  0  0  0  0  0  0  0  0
    1.3753   -1.9900    1.3903 H   0  0  0  0  0  0  0  0  0  0  0  0
   -0.6600    1.1486    0.4782 C   0  0  0  0  0  0  0  0  0  0  0  0
   -1.5001    1.7648   -0.1771 O   0  0  0  0  0  0  0  0  0  0  0  0
    0.1634    1.7559    1.3418 N   0  0  0  0  0  0  0  0  0  0  0  0
    0.8618    1.1897    1.8008 H   0  0  0  0  0  0  0  0  0  0  0  0
    0.1509    3.1886    1.6256 C   0  0  0  0  0  0  0  0  0  0  0  0
   -0.8272    3.4794    2.0152 H   0  0  0  0  0  0  0  0  0  0  0  0
    0.9172    3.4314    2.3624 H   0  0  0  0  0  0  0  0  0  0  0  0
    0.3414    3.7499    0.7095 H   0  0  0  0  0  0  0  0  0  0  0  0
  5  6  2  0  0  0  0
  5  7  1  0  0  0  0
  2  3  1  0  0  0  0
  2  4  1  0  0  0  0
  2  5  1  0  0  0  0
  1  2  1  0  0  0  0
 22 23  2  0  0  0  0
 22 24  1  0  0  0  0
 20 21  1  0  0  0  0
 19 20  1  0  0  0  0
 17 18  1  0  0  0  0
 17 19  2  0  0  0  0
 15 16  1  0  0  0  0
 15 17  1  0  0  0  0
 14 15  1  0  0  0  0
 14 20  2  0  0  0  0
 11 12  1  0  0  0  0
 11 13  1  0  0  0  0
 11 14  1  0  0  0  0
  9 10  1  0  0  0  0
  9 11  1  0  0  0  0
  9 22  1  0  0  0  0
  7  8  1  0  0  0  0
  7  9  1  0  0  0  0
 26 27  1  0  0  0  0
 26 28  1  0  0  0  0
 26 29  1  0  0  0  0
 24 25  1  0  0  0  0
 24 26  1  0  0  0  0
M  END
$$$$
default_name
  -OEChem-02102213163D

 29 29  0     1  0  0  0  0  0999 V2000
   -3.6042   -3.5728    1.4576 H   0  0  0  0  0  0  0  0  0  0  0  0
   -3.5202   -2.6488    0.8866 C   0  0  0  0  0  0  0  0  0  0  0  0
   -4.2052   -1.9048    1.2896 H   0  0  0  0  0  0  0  0  0  0  0  0
   -3.7552   -2.8428   -0.1584 H   0  0  0  0  0  0  0  0  0  0  0  0
   -2.1052   -2.1358    0.9946 C   0  0  0  0  0  0  0  0  0  0  0  0
   -1.2852   -2.7288    1.6826 O   0  0  0  0  0  0  0  0  0  0  0  0
   -1.8202   -1.0288    0.3146 N   0  0  0  0  0  0  0  0  0  0  0  0
   -2.5542   -0.5788   -0.2104 H   0  0  0  0  0  0  0  0  0  0  0  0
   -0.5102   -0.3728    0.3086 C   0  0  1  0  0  0  0  0  0  0  0  0
    0.0719   -0.7468    1.1521 H   0  0  0  0  0  0  0  0  0  0  0  0
    0.2338   -0.7427   -0.9878 C   0  0  0  0  0  0  0  0  0  0  0  0
   -0.4801   -1.1509   -1.7055 H   0  0  0  0  0  0  0  0  0  0  0  0
    0.6651    0.1617   -1.4209 H   0  0  0  0  0  0  0  0  0  0  0  0
    1.3372   -1.7484   -0.7845 C   0  0  0  0  0  0  0  0  0  0  0  0
    2.3435   -2.0471   -1.6779 N   0  0  0  0  0  0  0  0  0  0  0  0
    2.4313   -1.6884   -2.6169 H   0  0  0  0  0  0  0  0  0  0  0  0
    3.1872   -2.9061   -1.0815 C   0  0  0  0  0  0  0  0  0  0  0  0
    4.0751   -3.3286   -1.5357 H   0  0  0  0  0  0  0  0  0  0  0  0
    2.7767   -3.1683    0.1679 N   0  0  0  0  0  0  0  0  0  0  0  0
    1.5998   -2.4417    0.3669 C   0  0  0  0  0  0  0  0  0  0  0  0
    1.0188   -2.4037    1.2792 H   0  0  0  0  0  0  0  0  0  0  0  0
   -0.6600    1.1486    0.4782 C   0  0  0  0  0  0  0  0  0  0  0  0
   -1.5001    1.7648   -0.1771 O   0  0  0  0  0  0  0  0  0  0  0  0
    0.1634    1.7559    1.3418 N   0  0  0  0  0  0  0  0  0  0  0  0
    0.8618    1.1897    1.8008 H   0  0  0  0  0  0  0  0  0  0  0  0
    0.1509    3.1886    1.6256 C   0  0  0  0  0  0  0  0  0  0  0  0
   -0.8272    3.4794    2.0152 H   0  0  0  0  0  0  0  0  0  0  0  0
    0.9172    3.4314    2.3624 H   0  0  0  0  0  0  0  0  0  0  0  0
    0.3414    3.7499    0.7095 H   0  0  0  0  0  0  0  0  0  0  0  0
  5  6  2  0  0  0  0
  5  7  1  0  0  0  0
  2  3  1  0  0  0  0
  2  4  1  0  0  0  0
  2  5  1  0  0  0  0
  1  2  1  0  0  0  0
 22 23  2  0  0  0  0
 22 24  1  0  0  0  0
 20 21  1  0  0  0  0
 19 20  1  0  0  0  0
 17 18  1  0  0  0  0
 17 19  2  0  0  0  0
 15 16  1  0  0  0  0
 15 17  1  0  0  0  0
 14 15  1  0  0  0  0
 14 20  2  0  0  0  0
 11 12  1  0  0  0  0
 11 13  1  0  0  0  0
 11 14  1  0  0  0  0
  9 10  1  0  0  0  0
  9 11  1  0  0  0  0
  9 22  1  0  0  0  0
  7  8  1  0  0  0  0
  7  9  1  0  0  0  0
 26 27  1  0  0  0  0
 26 28  1  0  0  0  0
 26 29  1  0  0  0  0
 24 25  1  0  0  0  0
 24 26  1  0  0  0  0
M  END
$$$$
default_name
  -OEChem-02102213163D

 29 29  0     1  0  0  0  0  0999 V2000
   -3.6042   -3.5728    1.4576 H   0  0  0  0  0  0  0  0  0  0  0  0
   -3.5202   -2.6488    0.8866 C   0  0  0  0  0  0  0  0  0  0  0  0
   -4.2052   -1.9048    1.2896 H   0  0  0  0  0  0  0  0  0  0  0  0
   -3.7552   -2.8428   -0.1584 H   0  0  0  0  0  0  0  0  0  0  0  0
   -2.1052   -2.1358    0.9946 C   0  0  0  0  0  0  0  0  0  0  0  0
   -1.2852   -2.7288    1.6826 O   0  0  0  0  0  0  0  0  0  0  0  0
   -1.8202   -1.0288    0.3146 N   0  0  0  0  0  0  0  0  0  0  0  0
   -2.5542   -0.5788   -0.2104 H   0  0  0  0  0  0  0  0  0  0  0  0
   -0.5102   -0.3728    0.3086 C   0  0  1  0  0  0  0  0  0  0  0  0
    0.0719   -0.7468    1.1521 H   0  0  0  0  0  0  0  0  0  0  0  0
    0.2338   -0.7427   -0.9878 C   0  0  0  0  0  0  0  0  0  0  0  0
   -0.4801   -1.1509   -1.7055 H   0  0  0  0  0  0  0  0  0  0  0  0
    0.6651    0.1617   -1.4209 H   0  0  0  0  0  0  0  0  0  0  0  0
    1.3372   -1.7484   -0.7845 C   0  0  0  0  0  0  0  0  0  0  0  0
    2.4944   -1.8510   -1.5265 N   0  0  0  0  0  0  0  0  0  0  0  0
    2.7213   -1.3166   -2.3518 H   0  0  0  0  0  0  0  0  0  0  0  0
    3.2680   -2.7932   -0.9616 C   0  0  0  0  0  0  0  0  0  0  0  0
    4.2406   -3.1041   -1.3231 H   0  0  0  0  0  0  0  0  0  0  0  0
    2.6659   -3.2986    0.1248 N   0  0  0  0  0  0  0  0  0  0  0  0
    1.4364   -2.6456    0.2453 C   0  0  0  0  0  0  0  0  0  0  0  0
    0.7081   -2.7946    1.0319 H   0  0  0  0  0  0  0  0  0  0  0  0
   -0.6600    1.1486    0.4782 C   0  0  0  0  0  0  0  0  0  0  0  0
   -1.5001    1.7648   -0.1771 O   0  0  0  0  0  0  0  0  0  0  0  0
    0.1634    1.7559    1.3418 N   0  0  0  0  0  0  0  0  0  0  0  0
    0.8618    1.1897    1.8008 H   0  0  0  0  0  0  0  0  0  0  0  0
    0.1509    3.1886    1.6256 C   0  0  0  0  0  0  0  0  0  0  0  0
   -0.8272    3.4794    2.0152 H   0  0  0  0  0  0  0  0  0  0  0  0
    0.9172    3.4314    2.3624 H   0  0  0  0  0  0  0  0  0  0  0  0
    0.3414    3.7499    0.7095 H   0  0  0  0  0  0  0  0  0  0  0  0
  5  6  2  0  0  0  0
  5  7  1  0  0  0  0
  2  3  1  0  0  0  0
  2  4  1  0  0  0  0
  2  5  1  0  0  0  0
  1  2  1  0  0  0  0
 22 23  2  0  0  0  0
 22 24  1  0  0  0  0
 20 21  1  0  0  0  0
 19 20  1  0  0  0  0
 17 18  1  0  0  0  0
 17 19  2  0  0  0  0
 15 16  1  0  0  0  0
 15 17  1  0  0  0  0
 14 15  1  0  0  0  0
 14 20  2  0  0  0  0
 11 12  1  0  0  0  0
 11 13  1  0  0  0  0
 11 14  1  0  0  0  0
  9 10  1  0  0  0  0
  9 11  1  0  0  0  0
  9 22  1  0  0  0  0
  7  8  1  0  0  0  0
  7  9  1  0  0  0  0
 26 27  1  0  0  0  0
 26 28  1  0  0  0  0
 26 29  1  0  0  0  0
 24 25  1  0  0  0  0
 24 26  1  0  0  0  0
M  END
$$$$
default_name
  -OEChem-02102213163D

 29 29  0     1  0  0  0  0  0999 V2000
   -3.6042   -3.5728    1.4576 H   0  0  0  0  0  0  0  0  0  0  0  0
   -3.5202   -2.6488    0.8866 C   0  0  0  0  0  0  0  0  0  0  0  0
   -4.2052   -1.9048    1.2896 H   0  0  0  0  0  0  0  0  0  0  0  0
   -3.7552   -2.8428   -0.1584 H   0  0  0  0  0  0  0  0  0  0  0  0
   -2.1052   -2.1358    0.9946 C   0  0  0  0  0  0  0  0  0  0  0  0
   -1.2852   -2.7288    1.6826 O   0  0  0  0  0  0  0  0  0  0  0  0
   -1.8202   -1.0288    0.3146 N   0  0  0  0  0  0  0  0  0  0  0  0
   -2.5542   -0.5788   -0.2104 H   0  0  0  0  0  0  0  0  0  0  0  0
   -0.5102   -0.3728    0.3086 C   0  0  1  0  0  0  0  0  0  0  0  0
    0.0719   -0.7468    1.1521 H   0  0  0  0  0  0  0  0  0  0  0  0
    0.2338   -0.7427   -0.9878 C   0  0  0  0  0  0  0  0  0  0  0  0
   -0.4801   -1.1509   -1.7055 H   0  0  0  0  0  0  0  0  0  0  0  0
    0.6651    0.1617   -1.4209 H   0  0  0  0  0  0  0  0  0  0  0  0
    1.3372   -1.7484   -0.7845 C   0  0  0  0  0  0  0  0  0  0  0  0
    2.6071   -1.6850   -1.3170 N   0  0  0  0  0  0  0  0  0  0  0  0
    2.9426   -0.9976   -1.9751 H   0  0  0  0  0  0  0  0  0  0  0  0
    3.3214   -2.7041   -0.8105 C   0  0  0  0  0  0  0  0  0  0  0  0
    4.3559   -2.9217   -1.0465 H   0  0  0  0  0  0  0  0  0  0  0  0
    2.5708   -3.4202    0.0393 N   0  0  0  0  0  0  0  0  0  0  0  0
    1.3067   -2.8252    0.0610 C   0  0  0  0  0  0  0  0  0  0  0  0
    0.4643   -3.1362    0.6653 H   0  0  0  0  0  0  0  0  0  0  0  0
   -0.6600    1.1486    0.4782 C   0  0  0  0  0  0  0  0  0  0  0  0
   -1.5001    1.7648   -0.1771 O   0  0  0  0  0  0  0  0  0  0  0  0
    0.1634    1.7559    1.3418 N   0  0  0  0  0  0  0  0  0  0  0  0
    0.8618    1.1897    1.8008 H   0  0  0  0  0  0  0  0  0  0  0  0
    0.1509    3.1886    1.6256 C   0  0  0  0  0  0  0  0  0  0  0  0
   -0.8272    3.4794    2.0152 H   0  0  0  0  0  0  0  0  0  0  0  0
    0.9172    3.4314    2.3624 H   0  0  0  0  0  0  0  0  0  0  0  0
    0.3414    3.7499    0.7095 H   0  0  0  0  0  0  0  0  0  0  0  0
  5  6  2  0  0  0  0
  5  7  1  0  0  0  0
  2  3  1  0  0  0  0
  2  4  1  0  0  0  0
  2  5  1  0  0  0  0
  1  2  1  0  0  0  0
 22 23  2  0  0  0  0
 22 24  1  0  0  0  0
 20 21  1  0  0  0  0
 19 20  1  0  0  0  0
 17 18  1  0  0  0  0
 17 19  2  0  0  0  0
 15 16  1  0  0  0  0
 15 17  1  0  0  0  0
 14 15  1  0  0  0  0
 14 20  2  0  0  0  0
 11 12  1  0  0  0  0
 11 13  1  0  0  0  0
 11 14  1  0  0  0  0
  9 10  1  0  0  0  0
  9 11  1  0  0  0  0
  9 22  1  0  0  0  0
  7  8  1  0  0  0  0
  7  9  1  0  0  0  0
 26 27  1  0  0  0  0
 26 28  1  0  0  0  0
 26 29  1  0  0  0  0
 24 25  1  0  0  0  0
 24 26  1  0  0  0  0
M  END
$$$$
default_name
  -OEChem-02102213163D

 29 29  0     1  0  0  0  0  0999 V2000
   -3.6042   -3.5728    1.4576 H   0  0  0  0  0  0  0  0  0  0  0  0
   -3.5202   -2.6488    0.8866 C   0  0  0  0  0  0  0  0  0  0  0  0
   -4.2052   -1.9048    1.2896 H   0  0  0  0  0  0  0  0  0  0  0  0
   -3.7552   -2.8428   -0.1584 H   0  0  0  0  0  0  0  0  0  0  0  0
   -2.1052   -2.1358    0.9946 C   0  0  0  0  0  0  0  0  0  0  0  0
   -1.2852   -2.7288    1.6826 O   0  0  0  0  0  0  0  0  0  0  0  0
   -1.8202   -1.0288    0.3146 N   0  0  0  0  0  0  0  0  0  0  0  0
   -2.5542   -0.5788   -0.2104 H   0  0  0  0  0  0  0  0  0  0  0  0
   -0.5102   -0.3728    0.3086 C   0  0  1  0  0  0  0  0  0  0  0  0
    0.0719   -0.7468    1.1521 H   0  0  0  0  0  0  0  0  0  0  0  0
    0.2338   -0.7427   -0.9878 C   0  0  0  0  0  0  0  0  0  0  0  0
   -0.4801   -1.1509   -1.7055 H   0  0  0  0  0  0  0  0  0  0  0  0
    0.6651    0.1617   -1.4209 H   0  0  0  0  0  0  0  0  0  0  0  0
    1.3372   -1.7484   -0.7845 C   0  0  0  0  0  0  0  0  0  0  0  0
    2.6739   -1.5605   -1.0638 N   0  0  0  0  0  0  0  0  0  0  0  0
    3.0802   -0.7532   -1.5125 H   0  0  0  0  0  0  0  0  0  0  0  0
    3.3437   -2.6448   -0.6384 C   0  0  0  0  0  0  0  0  0  0  0  0
    4.4131   -2.7939   -0.7249 H   0  0  0  0  0  0  0  0  0  0  0  0
    2.4980   -3.5247   -0.0827 N   0  0  0  0  0  0  0  0  0  0  0  0
    1.2195   -2.9682   -0.1734 C   0  0  0  0  0  0  0  0  0  0  0  0
    0.3041   -3.4051    0.2042 H   0  0  0  0  0  0  0  0  0  0  0  0
   -0.6600    1.1486    0.4782 C   0  0  0  0  0  0  0  0  0  0  0  0
   -1.5001    1.7648   -0.1771 O   0  0  0  0  0  0  0  0  0  0  0  0
    0.1634    1.7559    1.3418 N   0  0  0  0  0  0  0  0  0  0  0  0
    0.8618    1.1897    1.8008 H   0  0  0  0  0  0  0  0  0  0  0  0
    0.1509    3.1886    1.6256 C   0  0  0  0  0  0  0  0  0  0  0  0
   -0.8272    3.4794    2.0152 H   0  0  0  0  0  0  0  0  0  0  0  0
    0.9172    3.4314    2.3624 H   0  0  0  0  0  0  0  0  0  0  0  0
    0.3414    3.7499    0.7095 H   0  0  0  0  0  0  0  0  0  0  0  0
  5  6  2  0  0  0  0
  5  7  1  0  0  0  0
  2  3  1  0  0  0  0
  2  4  1  0  0  0  0
  2  5  1  0  0  0  0
  1  2  1  0  0  0  0
 22 23  2  0  0  0  0
 22 24  1  0  0  0  0
 20 21  1  0  0  0  0
 19 20  1  0  0  0  0
 17 18  1  0  0  0  0
 17 19  2  0  0  0  0
 15 16  1  0  0  0  0
 15 17  1  0  0  0  0
 14 15  1  0  0  0  0
 14 20  2  0  0  0  0
 11 12  1  0  0  0  0
 11 13  1  0  0  0  0
 11 14  1  0  0  0  0
  9 10  1  0  0  0  0
  9 11  1  0  0  0  0
  9 22  1  0  0  0  0
  7  8  1  0  0  0  0
  7  9  1  0  0  0  0
 26 27  1  0  0  0  0
 26 28  1  0  0  0  0
 26 29  1  0  0  0  0
 24 25  1  0  0  0  0
 24 26  1  0  0  0  0
M  END
$$$$
default_name
  -OEChem-02102213163D

 29 29  0     1  0  0  0  0  0999 V2000
   -3.6042   -3.5728    1.4576 H   0  0  0  0  0  0  0  0  0  0  0  0
   -3.5202   -2.6488    0.8866 C   0  0  0  0  0  0  0  0  0  0  0  0
   -4.2052   -1.9048    1.2896 H   0  0  0  0  0  0  0  0  0  0  0  0
   -3.7552   -2.8428   -0.1584 H   0  0  0  0  0  0  0  0  0  0  0  0
   -2.1052   -2.1358    0.9946 C   0  0  0  0  0  0  0  0  0  0  0  0
   -1.2852   -2.7288    1.6826 O   0  0  0  0  0  0  0  0  0  0  0  0
   -1.8202   -1.0288    0.3146 N   0  0  0  0  0  0  0  0  0  0  0  0
   -2.5542   -0.5788   -0.2104 H   0  0  0  0  0  0  0  0  0  0  0  0
   -0.5102   -0.3728    0.3086 C   0  0  1  0  0  0  0  0  0  0  0  0
    0.0719   -0.7468    1.1521 H   0  0  0  0  0  0  0  0  0  0  0  0
    0.2338   -0.7427   -0.9878 C   0  0  0  0  0  0  0  0  0  0  0  0
   -0.4801   -1.1509   -1.7055 H   0  0  0  0  0  0  0  0  0  0  0  0
    0.6651    0.1617   -1.4209 H   0  0  0  0  0  0  0  0  0  0  0  0
    1.3372   -1.7484   -0.7845 C   0  0  0  0  0  0  0  0  0  0  0  0
    2.6904   -1.4858   -0.7840 N   0  0  0  0  0  0  0  0  0  0  0  0
    3.1246   -0.5999   -0.9956 H   0  0  0  0  0  0  0  0  0  0  0  0
    3.3335   -2.6194   -0.4570 C   0  0  0  0  0  0  0  0  0  0  0  0
    4.4083   -2.7294   -0.3801 H   0  0  0  0  0  0  0  0  0  0  0  0
    2.4524   -3.6051   -0.2330 N   0  0  0  0  0  0  0  0  0  0  0  0
    1.1808   -3.0650   -0.4421 C   0  0  0  0  0  0  0  0  0  0  0  0
    0.2384   -3.5832   -0.3197 H   0  0  0  0  0  0  0  0  0  0  0  0
   -0.6600    1.1486    0.4782 C   0  0  0  0  0  0  0  0  0  0  0  0
   -1.5001    1.7648   -0.1771 O   0  0  0  0  0  0  0  0  0  0  0  0
    0.1634    1.7559    1.3418 N   0  0  0  0  0  0  0  0  0  0  0  0
    0.8618    1.1897    1.8008 H   0  0  0  0  0  0  0  0  0  0  0  0
    0.1509    3.1886    1.6256 C   0  0  0  0  0  0  0  0  0  0  0  0
   -0.8272    3.4794    2.0152 H   0  0  0  0  0  0  0  0  0  0  0  0
    0.9172    3.4314    2.3624 H   0  0  0  0  0  0  0  0  0  0  0  0
    0.3414    3.7499    0.7095 H   0  0  0  0  0  0  0  0  0  0  0  0
  5  6  2  0  0  0  0
  5  7  1  0  0  0  0
  2  3  1  0  0  0  0
  2  4  1  0  0  0  0
  2  5  1  0  0  0  0
  1  2  1  0  0  0  0
 22 23  2  0  0  0  0
 22 24  1  0  0  0  0
 20 21  1  0  0  0  0
 19 20  1  0  0  0  0
 17 18  1  0  0  0  0
 17 19  2  0  0  0  0
 15 16  1  0  0  0  0
 15 17  1  0  0  0  0
 14 15  1  0  0  0  0
 14 20  2  0  0  0  0
 11 12  1  0  0  0  0
 11 13  1  0  0  0  0
 11 14  1  0  0  0  0
  9 10  1  0  0  0  0
  9 11  1  0  0  0  0
  9 22  1  0  0  0  0
  7  8  1  0  0  0  0
  7  9  1  0  0  0  0
 26 27  1  0  0  0  0
 26 28  1  0  0  0  0
 26 29  1  0  0  0  0
 24 25  1  0  0  0  0
 24 26  1  0  0  0  0
M  END
$$$$
default_name
  -OEChem-02102213163D

 29 29  0     1  0  0  0  0  0999 V2000
   -3.6042   -3.5728    1.4576 H   0  0  0  0  0  0  0  0  0  0  0  0
   -3.5202   -2.6488    0.8866 C   0  0  0  0  0  0  0  0  0  0  0  0
   -4.2052   -1.9048    1.2896 H   0  0  0  0  0  0  0  0  0  0  0  0
   -3.7552   -2.8428   -0.1584 H   0  0  0  0  0  0  0  0  0  0  0  0
   -2.1052   -2.1358    0.9946 C   0  0  0  0  0  0  0  0  0  0  0  0
   -1.2852   -2.7288    1.6826 O   0  0  0  0  0  0  0  0  0  0  0  0
   -1.8202   -1.0288    0.3146 N   0  0  0  0  0  0  0  0  0  0  0  0
   -2.5542   -0.5788   -0.2104 H   0  0  0  0  0  0  0  0  0  0  0  0
   -0.5102   -0.3728    0.3086 C   0  0  1  0  0  0  0  0  0  0  0  0
    0.0719   -0.7468    1.1521 H   0  0  0  0  0  0  0  0  0  0  0  0
    0.2338   -0.7427   -0.9878 C   0  0  0  0  0  0  0  0  0  0  0  0
   -0.4801   -1.1509   -1.7055 H   0  0  0  0  0  0  0  0  0  0  0  0
    0.6651    0.1617   -1.4209 H   0  0  0  0  0  0  0  0  0  0  0  0
    1.3372   -1.7484   -0.7845 C   0  0  0  0  0  0  0  0  0  0  0  0
    2.6554   -1.4662   -0.4967 N   0  0  0  0  0  0  0  0  0  0  0  0
    3.0729   -0.5483   -0.4596 H   0  0  0  0  0  0  0  0  0  0  0  0
    3.2914   -2.6295   -0.2788 C   0  0  0  0  0  0  0  0  0  0  0  0
    4.3419   -2.7327   -0.0357 H   0  0  0  0  0  0  0  0  0  0  0  0
    2.4371   -3.6559   -0.4013 N   0  0  0  0  0  0  0  0  0  0  0  0
    1.1932   -3.1090   -0.7266 C   0  0  0  0  0  0  0  0  0  0  0  0
    0.2717   -3.6581   -0.8709 H   0  0  0  0  0  0  0  0  0  0  0  0
   -0.6600    1.1486    0.4782 C   0  0  0  0  0  0  0  0  0  0  0  0
   -1.5001    1.7648   -0.1771 O   0  0  0  0  0  0  0  0  0  0  0  0
    0.1634    1.7559    1.3418 N   0  0  0  0  0  0  0  0  0  0  0  0
    0.8618    1.1897    1.8008 H   0  0  0  0  0  0  0  0  0  0  0  0
    0.1509    3.1886    1.6256 C   0  0  0  0  0  0  0  0  0  0  0  0
   -0.8272    3.4794    2.0152 H   0  0  0  0  0  0  0  0  0  0  0  0
    0.9172    3.4314    2.3624 H   0  0  0  0  0  0  0  0  0  0  0  0
    0.3414    3.7499    0.7095 H   0  0  0  0  0  0  0  0  0  0  0  0
  5  6  2  0  0  0  0
  5  7  1  0  0  0  0
  2  3  1  0  0  0  0
  2  4  1  0  0  0  0
  2  5  1  0  0  0  0
  1  2  1  0  0  0  0
 22 23  2  0  0  0  0
 22 24  1  0  0  0  0
 20 21  1  0  0  0  0
 19 20  1  0  0  0  0
 17 18  1  0  0  0  0
 17 19  2  0  0  0  0
 15 16  1  0  0  0  0
 15 17  1  0  0  0  0
 14 15  1  0  0  0  0
 14 20  2  0  0  0  0
 11 12  1  0  0  0  0
 11 13  1  0  0  0  0
 11 14  1  0  0  0  0
  9 10  1  0  0  0  0
  9 11  1  0  0  0  0
  9 22  1  0  0  0  0
  7  8  1  0  0  0  0
  7  9  1  0  0  0  0
 26 27  1  0  0  0  0
 26 28  1  0  0  0  0
 26 29  1  0  0  0  0
 24 25  1  0  0  0  0
 24 26  1  0  0  0  0
M  END
$$$$
default_name
  -OEChem-02102213163D

 29 29  0     1  0  0  0  0  0999 V2000
   -3.6042   -3.5728    1.4576 H   0  0  0  0  0  0  0  0  0  0  0  0
   -3.5202   -2.6488    0.8866 C   0  0  0  0  0  0  0  0  0  0  0  0
   -4.2052   -1.9048    1.2896 H   0  0  0  0  0  0  0  0  0  0  0  0
   -3.7552   -2.8428   -0.1584 H   0  0  0  0  0  0  0  0  0  0  0  0
   -2.1052   -2.1358    0.9946 C   0  0  0  0  0  0  0  0  0  0  0  0
   -1.2852   -2.7288    1.6826 O   0  0  0  0  0  0  0  0  0  0  0  0
   -1.8202   -1.0288    0.3146 N   0  0  0  0  0  0  0  0  0  0  0  0
   -2.5542   -0.5788   -0.2104 H   0  0  0  0  0  0  0  0  0  0  0  0
   -0.5102   -0.3728    0.3086 C   0  0  1  0  0  0  0  0  0  0  0  0
    0.0719   -0.7468    1.1521 H   0  0  0  0  0  0  0  0  0  0  0  0
    0.2338   -0.7427   -0.9878 C   0  0  0  0  0  0  0  0  0  0  0  0
   -0.4801   -1.1509   -1.7055 H   0  0  0  0  0  0  0  0  0  0  0  0
    0.6651    0.1617   -1.4209 H   0  0  0  0  0  0  0  0  0  0  0  0
    1.3372   -1.7484   -0.7845 C   0  0  0  0  0  0  0  0  0  0  0  0
    2.5713   -1.5028   -0.2216 N   0  0  0  0  0  0  0  0  0  0  0  0
    2.9285   -0.6019    0.0590 H   0  0  0  0  0  0  0  0  0  0  0  0
    3.2203   -2.6746   -0.1159 C   0  0  0  0  0  0  0  0  0  0  0  0
    4.2184   -2.8034    0.2848 H   0  0  0  0  0  0  0  0  0  0  0  0
    2.4532   -3.6736   -0.5761 N   0  0  0  0  0  0  0  0  0  0  0  0
    1.2558   -3.0971   -1.0076 C   0  0  0  0  0  0  0  0  0  0  0  0
    0.4017   -3.6248   -1.4118 H   0  0  0  0  0  0  0  0  0  0  0  0
   -0.6600    1.1486    0.4782 C   0  0  0  0  0  0  0  0  0  0  0  0
   -1.5001    1.7648   -0.1771 O   0  0  0  0  0  0  0  0  0  0  0  0
    0.1634    1.7559    1.3418 N   0  0  0  0  0  0  0  0  0  0  0  0
    0.8618    1.1897    1.8008 H   0  0  0  0  0  0  0  0  0  0  0  0
    0.1509    3.1886    1.6256 C   0  0  0  0  0  0  0  0  0  0  0  0
   -0.8272    3.4794    2.0152 H   0  0  0  0  0  0  0  0  0  0  0  0
    0.9172    3.4314    2.3624 H   0  0  0  0  0  0  0  0  0  0  0  0
    0.3414    3.7499    0.7095 H   0  0  0  0  0  0  0  0  0  0  0  0
  5  6  2  0  0  0  0
  5  7  1  0  0  0  0
  2  3  1  0  0  0  0
  2  4  1  0  0  0  0
  2  5  1  0  0  0  0
  1  2  1  0  0  0  0
 22 23  2  0  0  0  0
 22 24  1  0  0  0  0
 20 21  1  0  0  0  0
 19 20  1  0  0  0  0
 17 18  1  0  0  0  0
 17 19  2  0  0  0  0
 15 16  1  0  0  0  0
 15 17  1  0  0  0  0
 14 15  1  0  0  0  0
 14 20  2  0  0  0  0
 11 12  1  0  0  0  0
 11 13  1  0  0  0  0
 11 14  1  0  0  0  0
  9 10  1  0  0  0  0
  9 11  1  0  0  0  0
  9 22  1  0  0  0  0
  7  8  1  0  0  0  0
  7  9  1  0  0  0  0
 26 27  1  0  0  0  0
 26 28  1  0  0  0  0
 26 29  1  0  0  0  0
 24 25  1  0  0  0  0
 24 26  1  0  0  0  0
M  END
$$$$
default_name
  -OEChem-02102213163D

 29 29  0     1  0  0  0  0  0999 V2000
   -3.6042   -3.5728    1.4576 H   0  0  0  0  0  0  0  0  0  0  0  0
   -3.5202   -2.6488    0.8866 C   0  0  0  0  0  0  0  0  0  0  0  0
   -4.2052   -1.9048    1.2896 H   0  0  0  0  0  0  0  0  0  0  0  0
   -3.7552   -2.8428   -0.1584 H   0  0  0  0  0  0  0  0  0  0  0  0
   -2.1052   -2.1358    0.9946 C   0  0  0  0  0  0  0  0  0  0  0  0
   -1.2852   -2.7288    1.6826 O   0  0  0  0  0  0  0  0  0  0  0  0
   -1.8202   -1.0288    0.3146 N   0  0  0  0  0  0  0  0  0  0  0  0
   -2.5542   -0.5788   -0.2104 H   0  0  0  0  0  0  0  0  0  0  0  0
   -0.5102   -0.3728    0.3086 C   0  0  1  0  0  0  0  0  0  0  0  0
    0.0719   -0.7468    1.1521 H   0  0  0  0  0  0  0  0  0  0  0  0
    0.2338   -0.7427   -0.9878 C   0  0  0  0  0  0  0  0  0  0  0  0
   -0.4801   -1.1509   -1.7055 H   0  0  0  0  0  0  0  0  0  0  0  0
    0.6651    0.1617   -1.4209 H   0  0  0  0  0  0  0  0  0  0  0  0
    1.3372   -1.7484   -0.7845 C   0  0  0  0  0  0  0  0  0  0  0  0
    2.4437   -1.5934    0.0227 N   0  0  0  0  0  0  0  0  0  0  0  0
    2.7014   -0.7569    0.5248 H   0  0  0  0  0  0  0  0  0  0  0  0
    3.1251   -2.7514    0.0207 C   0  0  0  0  0  0  0  0  0  0  0  0
    4.0461   -2.9368    0.5598 H   0  0  0  0  0  0  0  0  0  0  0  0
    2.4996   -3.6570   -0.7455 N   0  0  0  0  0  0  0  0  0  0  0  0
    1.3644   -3.0301   -1.2660 C   0  0  0  0  0  0  0  0  0  0  0  0
    0.6195   -3.4857   -1.9055 H   0  0  0  0  0  0  0  0  0  0  0  0
   -0.6600    1.1486    0.4782 C   0  0  0  0  0  0  0  0  0  0  0  0
   -1.5001    1.7648   -0.1771 O   0  0  0  0  0  0  0  0  0  0  0  0
    0.1634    1.7559    1.3418 N   0  0  0  0  0  0  0  0  0  0  0  0
    0.8618    1.1897    1.8008 H   0  0  0  0  0  0  0  0  0  0  0  0
    0.1509    3.1886    1.6256 C   0  0  0  0  0  0  0  0  0  0  0  0
   -0.8272    3.4794    2.0152 H   0  0  0  0  0  0  0  0  0  0  0  0
    0.9172    3.4314    2.3624 H   0  0  0  0  0  0  0  0  0  0  0  0
    0.3414    3.7499    0.7095 H   0  0  0  0  0  0  0  0  0  0  0  0
  5  6  2  0  0  0  0
  5  7  1  0  0  0  0
  2  3  1  0  0  0  0
  2  4  1  0  0  0  0
  2  5  1  0  0  0  0
  1  2  1  0  0  0  0
 22 23  2  0  0  0  0
 22 24  1  0  0  0  0
 20 21  1  0  0  0  0
 19 20  1  0  0  0  0
 17 18  1  0  0  0  0
 17 19  2  0  0  0  0
 15 16  1  0  0  0  0
 15 17  1  0  0  0  0
 14 15  1  0  0  0  0
 14 20  2  0  0  0  0
 11 12  1  0  0  0  0
 11 13  1  0  0  0  0
 11 14  1  0  0  0  0
  9 10  1  0  0  0  0
  9 11  1  0  0  0  0
  9 22  1  0  0  0  0
  7  8  1  0  0  0  0
  7  9  1  0  0  0  0
 26 27  1  0  0  0  0
 26 28  1  0  0  0  0
 26 29  1  0  0  0  0
 24 25  1  0  0  0  0
 24 26  1  0  0  0  0
M  END
$$$$
default_name
  -OEChem-02102213163D

 29 29  0     1  0  0  0  0  0999 V2000
   -3.6042   -3.5728    1.4576 H   0  0  0  0  0  0  0  0  0  0  0  0
   -3.5202   -2.6488    0.8866 C   0  0  0  0  0  0  0  0  0  0  0  0
   -4.2052   -1.9048    1.2896 H   0  0  0  0  0  0  0  0  0  0  0  0
   -3.7552   -2.8428   -0.1584 H   0  0  0  0  0  0  0  0  0  0  0  0
   -2.1052   -2.1358    0.9946 C   0  0  0  0  0  0  0  0  0  0  0  0
   -1.2852   -2.7288    1.6826 O   0  0  0  0  0  0  0  0  0  0  0  0
   -1.8202   -1.0288    0.3146 N   0  0  0  0  0  0  0  0  0  0  0  0
   -2.5542   -0.5788   -0.2104 H   0  0  0  0  0  0  0  0  0  0  0  0
   -0.5102   -0.3728    0.3086 C   0  0  1  0  0  0  0  0  0  0  0  0
    0.0719   -0.7468    1.1521 H   0  0  0  0  0  0  0  0  0  0  0  0
    0.2338   -0.7427   -0.9878 C   0  0  0  0  0  0  0  0  0  0  0  0
   -0.4801   -1.1509   -1.7055 H   0  0  0  0  0  0  0  0  0  0  0  0
    0.6651    0.1617   -1.4209 H   0  0  0  0  0  0  0  0  0  0  0  0
    1.3372   -1.7484   -0.7845 C   0  0  0  0  0  0  0  0  0  0  0  0
    2.2815   -1.7316    0.2195 N   0  0  0  0  0  0  0  0  0  0  0  0
    2.4069   -1.0029    0.9062 H   0  0  0  0  0  0  0  0  0  0  0  0
    3.0122   -2.8549    0.1216 C   0  0  0  0  0  0  0  0  0  0  0  0
    3.8369   -3.1238    0.7703 H   0  0  0  0  0  0  0  0  0  0  0  0
    2.5731   -3.6072   -0.8980 N   0  0  0  0  0  0  0  0  0  0  0  0
    1.5117   -2.9127   -1.4841 C   0  0  0  0  0  0  0  0  0  0  0  0
    0.9103   -3.2500   -2.3183 H   0  0  0  0  0  0  0  0  0  0  0  0
   -0.6600    1.1486    0.4782 C   0  0  0  0  0  0  0  0  0  0  0  0
   -1.5001    1.7648   -0.1771 O   0  0  0  0  0  0  0  0  0  0  0  0
    0.1634    1.7559    1.3418 N   0  0  0  0  0  0  0  0  0  0  0  0
    0.8618    1.1897    1.8008 H   0  0  0  0  0  0  0  0  0  0  0  0
    0.1509    3.1886    1.6256 C   0  0  0  0  0  0  0  0  0  0  0  0
   -0.8272    3.4794    2.0152 H   0  0  0  0  0  0  0  0  0  0  0  0
    0.9172    3.4314    2.3624 H   0  0  0  0  0  0  0  0  0  0  0  0
    0.3414    3.7499    0.7095 H   0  0  0  0  0  0  0  0  0  0  0  0
  5  6  2  0  0  0  0
  5  7  1  0  0  0  0
  2  3  1  0  0  0  0
  2  4  1  0  0  0  0
  2  5  1  0  0  0  0
  1  2  1  0  0  0  0
 22 23  2  0  0  0  0
 22 24  1  0  0  0  0
 20 21  1  0  0  0  0
 19 20  1  0  0  0  0
 17 18  1  0  0  0  0
 17 19  2  0  0  0  0
 15 16  1  0  0  0  0
 15 17  1  0  0  0  0
 14 15  1  0  0  0  0
 14 20  2  0  0  0  0
 11 12  1  0  0  0  0
 11 13  1  0  0  0  0
 11 14  1  0  0  0  0
  9 10  1  0  0  0  0
  9 11  1  0  0  0  0
  9 22  1  0  0  0  0
  7  8  1  0  0  0  0
  7  9  1  0  0  0  0
 26 27  1  0  0  0  0
 26 28  1  0  0  0  0
 26 29  1  0  0  0  0
 24 25  1  0  0  0  0
 24 26  1  0  0  0  0
M  END
$$$$
default_name
  -OEChem-02102213163D

 29 29  0     1  0  0  0  0  0999 V2000
   -3.6042   -3.5728    1.4576 H   0  0  0  0  0  0  0  0  0  0  0  0
   -3.5202   -2.6488    0.8866 C   0  0  0  0  0  0  0  0  0  0  0  0
   -4.2052   -1.9048    1.2896 H   0  0  0  0  0  0  0  0  0  0  0  0
   -3.7552   -2.8428   -0.1584 H   0  0  0  0  0  0  0  0  0  0  0  0
   -2.1052   -2.1358    0.9946 C   0  0  0  0  0  0  0  0  0  0  0  0
   -1.2852   -2.7288    1.6826 O   0  0  0  0  0  0  0  0  0  0  0  0
   -1.8202   -1.0288    0.3146 N   0  0  0  0  0  0  0  0  0  0  0  0
   -2.5542   -0.5788   -0.2104 H   0  0  0  0  0  0  0  0  0  0  0  0
   -0.5102   -0.3728    0.3086 C   0  0  1  0  0  0  0  0  0  0  0  0
    0.0719   -0.7468    1.1521 H   0  0  0  0  0  0  0  0  0  0  0  0
    0.2338   -0.7427   -0.9878 C   0  0  0  0  0  0  0  0  0  0  0  0
   -0.4801   -1.1509   -1.7055 H   0  0  0  0  0  0  0  0  0  0  0  0
    0.6651    0.1617   -1.4209 H   0  0  0  0  0  0  0  0  0  0  0  0
    1.3372   -1.7484   -0.7845 C   0  0  0  0  0  0  0  0  0  0  0  0
    2.0957   -1.9080    0.3554 N   0  0  0  0  0  0  0  0  0  0  0  0
    2.0652   -1.3231    1.1770 H   0  0  0  0  0  0  0  0  0  0  0  0
    2.8893   -2.9779    0.1799 C   0  0  0  0  0  0  0  0  0  0  0  0
    3.6050   -3.3516    0.9020 H   0  0  0  0  0  0  0  0  0  0  0  0
    2.6686   -3.5277   -1.0231 N   0  0  0  0  0  0  0  0  0  0  0  0
    1.6875   -2.7527   -1.6471 C   0  0  0  0  0  0  0  0  0  0  0  0
    1.2543   -2.9340   -2.6222 H   0  0  0  0  0  0  0  0  0  0  0  0
   -0.6600    1.1486    0.4782 C   0  0  0  0  0  0  0  0  0  0  0  0
   -1.5001    1.7648   -0.1771 O   0  0  0  0  0  0  0  0  0  0  0  0
    0.1634    1.7559    1.3418 N   0  0  0  0  0  0  0  0  0  0  0  0
    0.8618    1.1897    1.8008 H   0  0  0  0  0  0  0  0  0  0  0  0
    0.1509    3.1886    1.6256 C   0  0  0  0  0  0  0  0  0  0  0  0
   -0.8272    3.4794    2.0152 H   0  0  0  0  0  0  0  0  0  0  0  0
    0.9172    3.4314    2.3624 H   0  0  0  0  0  0  0  0  0  0  0  0
    0.3414    3.7499    0.7095 H   0  0  0  0  0  0  0  0  0  0  0  0
  5  6  2  0  0  0  0
  5  7  1  0  0  0  0
  2  3  1  0  0  0  0
  2  4  1  0  0  0  0
  2  5  1  0  0  0  0
  1  2  1  0  0  0  0
 22 23  2  0  0  0  0
 22 24  1  0  0  0  0
 20 21  1  0  0  0  0
 19 20  1  0  0  0  0
 17 18  1  0  0  0  0
 17 19  2  0  0  0  0
 15 16  1  0  0  0  0
 15 17  1  0  0  0  0
 14 15  1  0  0  0  0
 14 20  2  0  0  0  0
 11 12  1  0  0  0  0
 11 13  1  0  0  0  0
 11 14  1  0  0  0  0
  9 10  1  0  0  0  0
  9 11  1  0  0  0  0
  9 22  1  0  0  0  0
  7  8  1  0  0  0  0
  7  9  1  0  0  0  0
 26 27  1  0  0  0  0
 26 28  1  0  0  0  0
 26 29  1  0  0  0  0
 24 25  1  0  0  0  0
 24 26  1  0  0  0  0
M  END
$$$$
default_name
  -OEChem-02102213163D

 29 29  0     1  0  0  0  0  0999 V2000
   -3.6042   -3.5728    1.4576 H   0  0  0  0  0  0  0  0  0  0  0  0
   -3.5202   -2.6488    0.8866 C   0  0  0  0  0  0  0  0  0  0  0  0
   -4.2052   -1.9048    1.2896 H   0  0  0  0  0  0  0  0  0  0  0  0
   -3.7552   -2.8428   -0.1584 H   0  0  0  0  0  0  0  0  0  0  0  0
   -2.1052   -2.1358    0.9946 C   0  0  0  0  0  0  0  0  0  0  0  0
   -1.2852   -2.7288    1.6826 O   0  0  0  0  0  0  0  0  0  0  0  0
   -1.8202   -1.0288    0.3146 N   0  0  0  0  0  0  0  0  0  0  0  0
   -2.5542   -0.5788   -0.2104 H   0  0  0  0  0  0  0  0  0  0  0  0
   -0.5102   -0.3728    0.3086 C   0  0  1  0  0  0  0  0  0  0  0  0
    0.0719   -0.7468    1.1521 H   0  0  0  0  0  0  0  0  0  0  0  0
    0.2338   -0.7427   -0.9878 C   0  0  0  0  0  0  0  0  0  0  0  0
   -0.4801   -1.1509   -1.7055 H   0  0  0  0  0  0  0  0  0  0  0  0
    0.6651    0.1617   -1.4209 H   0  0  0  0  0  0  0  0  0  0  0  0
    1.3372   -1.7484   -0.7845 C   0  0  0  0  0  0  0  0  0  0  0  0
    1.8988   -2.1107    0.4210 N   0  0  0  0  0  0  0  0  0  0  0  0
    1.6995   -1.6956    1.3189 H   0  0  0  0  0  0  0  0  0  0  0  0
    2.7649   -3.1121    0.1918 C   0  0  0  0  0  0  0  0  0  0  0  0
    3.3662   -3.6047    0.9460 H   0  0  0  0  0  0  0  0  0  0  0  0
    2.7798   -3.4238   -1.1125 N   0  0  0  0  0  0  0  0  0  0  0  0
    1.8798   -2.5612   -1.7438 C   0  0  0  0  0  0  0  0  0  0  0  0
    1.6280   -2.5592   -2.7964 H   0  0  0  0  0  0  0  0  0  0  0  0
   -0.6600    1.1486    0.4782 C   0  0  0  0  0  0  0  0  0  0  0  0
   -1.5001    1.7648   -0.1771 O   0  0  0  0  0  0  0  0  0  0  0  0
    0.1634    1.7559    1.3418 N   0  0  0  0  0  0  0  0  0  0  0  0
    0.8618    1.1897    1.8008 H   0  0  0  0  0  0  0  0  0  0  0  0
    0.1509    3.1886    1.6256 C   0  0  0  0  0  0  0  0  0  0  0  0
   -0.8272    3.4794    2.0152 H   0  0  0  0  0  0  0  0  0  0  0  0
    0.9172    3.4314    2.3624 H   0  0  0  0  0  0  0  0  0  0  0  0
    0.3414    3.7499    0.7095 H   0  0  0  0  0  0  0  0  0  0  0  0
  5  6  2  0  0  0  0
  5  7  1  0  0  0  0
  2  3  1  0  0  0  0
  2  4  1  0  0  0  0
  2  5  1  0  0  0  0
  1  2  1  0  0  0  0
 22 23  2  0  0  0  0
 22 24  1  0  0  0  0
 20 21  1  0  0  0  0
 19 20  1  0  0  0  0
 17 18  1  0  0  0  0
 17 19  2  0  0  0  0
 15 16  1  0  0  0  0
 15 17  1  0  0  0  0
 14 15  1  0  0  0  0
 14 20  2  0  0  0  0
 11 12  1  0  0  0  0
 11 13  1  0  0  0  0
 11 14  1  0  0  0  0
  9 10  1  0  0  0  0
  9 11  1  0  0  0  0
  9 22  1  0  0  0  0
  7  8  1  0  0  0  0
  7  9  1  0  0  0  0
 26 27  1  0  0  0  0
 26 28  1  0  0  0  0
 26 29  1  0  0  0  0
 24 25  1  0  0  0  0
 24 26  1  0  0  0  0
M  END
$$$$
default_name
  -OEChem-02102213163D

 29 29  0     1  0  0  0  0  0999 V2000
   -3.6042   -3.5728    1.4576 H   0  0  0  0  0  0  0  0  0  0  0  0
   -3.5202   -2.6488    0.8866 C   0  0  0  0  0  0  0  0  0  0  0  0
   -4.2052   -1.9048    1.2896 H   0  0  0  0  0  0  0  0  0  0  0  0
   -3.7552   -2.8428   -0.1584 H   0  0  0  0  0  0  0  0  0  0  0  0
   -2.1052   -2.1358    0.9946 C   0  0  0  0  0  0  0  0  0  0  0  0
   -1.2852   -2.7288    1.6826 O   0  0  0  0  0  0  0  0  0  0  0  0
   -1.8202   -1.0288    0.3146 N   0  0  0  0  0  0  0  0  0  0  0  0
   -2.5542   -0.5788   -0.2104 H   0  0  0  0  0  0  0  0  0  0  0  0
   -0.5102   -0.3728    0.3086 C   0  0  1  0  0  0  0  0  0  0  0  0
    0.0719   -0.7468    1.1521 H   0  0  0  0  0  0  0  0  0  0  0  0
    0.2338   -0.7427   -0.9878 C   0  0  0  0  0  0  0  0  0  0  0  0
   -0.4801   -1.1509   -1.7055 H   0  0  0  0  0  0  0  0  0  0  0  0
    0.6651    0.1617   -1.4209 H   0  0  0  0  0  0  0  0  0  0  0  0
    1.3372   -1.7484   -0.7845 C   0  0  0  0  0  0  0  0  0  0  0  0
    1.7045   -2.3258    0.4121 N   0  0  0  0  0  0  0  0  0  0  0  0
    1.3348   -2.0951    1.3222 H   0  0  0  0  0  0  0  0  0  0  0  0
    2.6473   -3.2483    0.1562 C   0  0  0  0  0  0  0  0  0  0  0  0
    3.1368   -3.8659    0.8993 H   0  0  0  0  0  0  0  0  0  0  0  0
    2.8990   -3.3026   -1.1598 N   0  0  0  0  0  0  0  0  0  0  0  0
    2.0757   -2.3512   -1.7677 C   0  0  0  0  0  0  0  0  0  0  0  0
    2.0060   -2.1511   -2.8291 H   0  0  0  0  0  0  0  0  0  0  0  0
   -0.6600    1.1486    0.4782 C   0  0  0  0  0  0  0  0  0  0  0  0
   -1.5001    1.7648   -0.1771 O   0  0  0  0  0  0  0  0  0  0  0  0
    0.1634    1.7559    1.3418 N   0  0  0  0  0  0  0  0  0  0  0  0
    0.8618    1.1897    1.8008 H   0  0  0  0  0  0  0  0  0  0  0  0
    0.1509    3.1886    1.6256 C   0  0  0  0  0  0  0  0  0  0  0  0
   -0.8272    3.4794    2.0152 H   0  0  0  0  0  0  0  0  0  0  0  0
    0.9172    3.4314    2.3624 H   0  0  0  0  0  0  0  0  0  0  0  0
    0.3414    3.7499    0.7095 H   0  0  0  0  0  0  0  0  0  0  0  0
  5  6  2  0  0  0  0
  5  7  1  0  0  0  0
  2  3  1  0  0  0  0
  2  4  1  0  0  0  0
  2  5  1  0  0  0  0
  1  2  1  0  0  0  0
 22 23  2  0  0  0  0
 22 24  1  0  0  0  0
 20 21  1  0  0  0  0
 19 20  1  0  0  0  0
 17 18  1  0  0  0  0
 17 19  2  0  0  0  0
 15 16  1  0  0  0  0
 15 17  1  0  0  0  0
 14 15  1  0  0  0  0
 14 20  2  0  0  0  0
 11 12  1  0  0  0  0
 11 13  1  0  0  0  0
 11 14  1  0  0  0  0
  9 10  1  0  0  0  0
  9 11  1  0  0  0  0
  9 22  1  0  0  0  0
  7  8  1  0  0  0  0
  7  9  1  0  0  0  0
 26 27  1  0  0  0  0
 26 28  1  0  0  0  0
 26 29  1  0  0  0  0
 24 25  1  0  0  0  0
 24 26  1  0  0  0  0
M  END
$$$$
default_name
  -OEChem-02102213163D

 29 29  0     1  0  0  0  0  0999 V2000
   -3.6042   -3.5728    1.4576 H   0  0  0  0  0  0  0  0  0  0  0  0
   -3.5202   -2.6488    0.8866 C   0  0  0  0  0  0  0  0  0  0  0  0
   -4.2052   -1.9048    1.2896 H   0  0  0  0  0  0  0  0  0  0  0  0
   -3.7552   -2.8428   -0.1584 H   0  0  0  0  0  0  0  0  0  0  0  0
   -2.1052   -2.1358    0.9946 C   0  0  0  0  0  0  0  0  0  0  0  0
   -1.2852   -2.7288    1.6826 O   0  0  0  0  0  0  0  0  0  0  0  0
   -1.8202   -1.0288    0.3146 N   0  0  0  0  0  0  0  0  0  0  0  0
   -2.5542   -0.5788   -0.2104 H   0  0  0  0  0  0  0  0  0  0  0  0
   -0.5102   -0.3728    0.3086 C   0  0  1  0  0  0  0  0  0  0  0  0
    0.0719   -0.7468    1.1521 H   0  0  0  0  0  0  0  0  0  0  0  0
    0.2338   -0.7427   -0.9878 C   0  0  0  0  0  0  0  0  0  0  0  0
   -0.4801   -1.1509   -1.7055 H   0  0  0  0  0  0  0  0  0  0  0  0
    0.6651    0.1617   -1.4209 H   0  0  0  0  0  0  0  0  0  0  0  0
    1.3372   -1.7484   -0.7845 C   0  0  0  0  0  0  0  0  0  0  0  0
    1.5258   -2.5386    0.3290 N   0  0  0  0  0  0  0  0  0  0  0  0
    0.9959   -2.4944    1.1866 H   0  0  0  0  0  0  0  0  0  0  0  0
    2.5446   -3.3772    0.0758 C   0  0  0  0  0  0  0  0  0  0  0  0
    2.9323   -4.1173    0.7651 H   0  0  0  0  0  0  0  0  0  0  0  0
    3.0180   -3.1724   -1.1620 N   0  0  0  0  0  0  0  0  0  0  0  0
    2.2616   -2.1369   -1.7172 C   0  0  0  0  0  0  0  0  0  0  0  0
    2.3626   -1.7374   -2.7180 H   0  0  0  0  0  0  0  0  0  0  0  0
   -0.6600    1.1486    0.4782 C   0  0  0  0  0  0  0  0  0  0  0  0
   -1.5001    1.7648   -0.1771 O   0  0  0  0  0  0  0  0  0  0  0  0
    0.1634    1.7559    1.3418 N   0  0  0  0  0  0  0  0  0  0  0  0
    0.8618    1.1897    1.8008 H   0  0  0  0  0  0  0  0  0  0  0  0
    0.1509    3.1886    1.6256 C   0  0  0  0  0  0  0  0  0  0  0  0
   -0.8272    3.4794    2.0152 H   0  0  0  0  0  0  0  0  0  0  0  0
    0.9172    3.4314    2.3624 H   0  0  0  0  0  0  0  0  0  0  0  0
    0.3414    3.7499    0.7095 H   0  0  0  0  0  0  0  0  0  0  0  0
  5  6  2  0  0  0  0
  5  7  1  0  0  0  0
  2  3  1  0  0  0  0
  2  4  1  0  0  0  0
  2  5  1  0  0  0  0
  1  2  1  0  0  0  0
 22 23  2  0  0  0  0
 22 24  1  0  0  0  0
 20 21  1  0  0  0  0
 19 20  1  0  0  0  0
 17 18  1  0  0  0  0
 17 19  2  0  0  0  0
 15 16  1  0  0  0  0
 15 17  1  0  0  0  0
 14 15  1  0  0  0  0
 14 20  2  0  0  0  0
 11 12  1  0  0  0  0
 11 13  1  0  0  0  0
 11 14  1  0  0  0  0
  9 10  1  0  0  0  0
  9 11  1  0  0  0  0
  9 22  1  0  0  0  0
  7  8  1  0  0  0  0
  7  9  1  0  0  0  0
 26 27  1  0  0  0  0
 26 28  1  0  0  0  0
 26 29  1  0  0  0  0
 24 25  1  0  0  0  0
 24 26  1  0  0  0  0
M  END
$$$$
default_name
  -OEChem-02102213163D

 29 29  0     1  0  0  0  0  0999 V2000
   -3.6042   -3.5728    1.4576 H   0  0  0  0  0  0  0  0  0  0  0  0
   -3.5202   -2.6488    0.8866 C   0  0  0  0  0  0  0  0  0  0  0  0
   -4.2052   -1.9048    1.2896 H   0  0  0  0  0  0  0  0  0  0  0  0
   -3.7552   -2.8428   -0.1584 H   0  0  0  0  0  0  0  0  0  0  0  0
   -2.1052   -2.1358    0.9946 C   0  0  0  0  0  0  0  0  0  0  0  0
   -1.2852   -2.7288    1.6826 O   0  0  0  0  0  0  0  0  0  0  0  0
   -1.8202   -1.0288    0.3146 N   0  0  0  0  0  0  0  0  0  0  0  0
   -2.5542   -0.5788   -0.2104 H   0  0  0  0  0  0  0  0  0  0  0  0
   -0.5102   -0.3728    0.3086 C   0  0  1  0  0  0  0  0  0  0  0  0
    0.0719   -0.7468    1.1521 H   0  0  0  0  0  0  0  0  0  0  0  0
    0.2338   -0.7427   -0.9878 C   0  0  0  0  0  0  0  0  0  0  0  0
   -0.4801   -1.1509   -1.7055 H   0  0  0  0  0  0  0  0  0  0  0  0
    0.6651    0.1617   -1.4209 H   0  0  0  0  0  0  0  0  0  0  0  0
    1.3372   -1.7484   -0.7845 C   0  0  0  0  0  0  0  0  0  0  0  0
    1.3749   -2.7347    0.1776 N   0  0  0  0  0  0  0  0  0  0  0  0
    0.7059   -2.8662    0.9214 H   0  0  0  0  0  0  0  0  0  0  0  0
    2.4638   -3.4901   -0.0441 C   0  0  0  0  0  0  0  0  0  0  0  0
    2.7669   -4.3419    0.5524 H   0  0  0  0  0  0  0  0  0  0  0  0
    3.1289   -3.0421   -1.1189 N   0  0  0  0  0  0  0  0  0  0  0  0
    2.4250   -1.9331   -1.5956 C   0  0  0  0  0  0  0  0  0  0  0  0
    2.6733   -1.3465   -2.4707 H   0  0  0  0  0  0  0  0  0  0  0  0
   -0.6600    1.1486    0.4782 C   0  0  0  0  0  0  0  0  0  0  0  0
   -1.5001    1.7648   -0.1771 O   0  0  0  0  0  0  0  0  0  0  0  0
    0.1634    1.7559    1.3418 N   0  0  0  0  0  0  0  0  0  0  0  0
    0.8618    1.1897    1.8008 H   0  0  0  0  0  0  0  0  0  0  0  0
    0.1509    3.1886    1.6256 C   0  0  0  0  0  0  0  0  0  0  0  0
   -0.8272    3.4794    2.0152 H   0  0  0  0  0  0  0  0  0  0  0  0
    0.9172    3.4314    2.3624 H   0  0  0  0  0  0  0  0  0  0  0  0
    0.3414    3.7499    0.7095 H   0  0  0  0  0  0  0  0  0  0  0  0
  5  6  2  0  0  0  0
  5  7  1  0  0  0  0
  2  3  1  0  0  0  0
  2  4  1  0  0  0  0
  2  5  1  0  0  0  0
  1  2  1  0  0  0  0
 22 23  2  0  0  0  0
 22 24  1  0  0  0  0
 20 21  1  0  0  0  0
 19 20  1  0  0  0  0
 17 18  1  0  0  0  0
 17 19  2  0  0  0  0
 15 16  1  0  0  0  0
 15 17  1  0  0  0  0
 14 15  1  0  0  0  0
 14 20  2  0  0  0  0
 11 12  1  0  0  0  0
 11 13  1  0  0  0  0
 11 14  1  0  0  0  0
  9 10  1  0  0  0  0
  9 11  1  0  0  0  0
  9 22  1  0  0  0  0
  7  8  1  0  0  0  0
  7  9  1  0  0  0  0
 26 27  1  0  0  0  0
 26 28  1  0  0  0  0
 26 29  1  0  0  0  0
 24 25  1  0  0  0  0
 24 26  1  0  0  0  0
M  END
$$$$
default_name
  -OEChem-02102213163D

 29 29  0     1  0  0  0  0  0999 V2000
   -3.6042   -3.5728    1.4576 H   0  0  0  0  0  0  0  0  0  0  0  0
   -3.5202   -2.6488    0.8866 C   0  0  0  0  0  0  0  0  0  0  0  0
   -4.2052   -1.9048    1.2896 H   0  0  0  0  0  0  0  0  0  0  0  0
   -3.7552   -2.8428   -0.1584 H   0  0  0  0  0  0  0  0  0  0  0  0
   -2.1052   -2.1358    0.9946 C   0  0  0  0  0  0  0  0  0  0  0  0
   -1.2852   -2.7288    1.6826 O   0  0  0  0  0  0  0  0  0  0  0  0
   -1.8202   -1.0288    0.3146 N   0  0  0  0  0  0  0  0  0  0  0  0
   -2.5542   -0.5788   -0.2104 H   0  0  0  0  0  0  0  0  0  0  0  0
   -0.5102   -0.3728    0.3086 C   0  0  1  0  0  0  0  0  0  0  0  0
    0.0719   -0.7468    1.1521 H   0  0  0  0  0  0  0  0  0  0  0  0
    0.2338   -0.7427   -0.9878 C   0  0  0  0  0  0  0  0  0  0  0  0
   -0.4801   -1.1509   -1.7055 H   0  0  0  0  0  0  0  0  0  0  0  0
    0.6651    0.1617   -1.4209 H   0  0  0  0  0  0  0  0  0  0  0  0
    1.3372   -1.7484   -0.7845 C   0  0  0  0  0  0  0  0  0  0  0  0
    1.2622   -2.9007   -0.0319 N   0  0  0  0  0  0  0  0  0  0  0  0
    0.4845   -3.1852    0.5447 H   0  0  0  0  0  0  0  0  0  0  0  0
    2.4104   -3.5792   -0.1952 C   0  0  0  0  0  0  0  0  0  0  0  0
    2.6516   -4.5243    0.2759 H   0  0  0  0  0  0  0  0  0  0  0  0
    3.2239   -2.9205   -1.0334 N   0  0  0  0  0  0  0  0  0  0  0  0
    2.5548   -1.7535   -1.4113 C   0  0  0  0  0  0  0  0  0  0  0  0
    2.9171   -1.0049   -2.1040 H   0  0  0  0  0  0  0  0  0  0  0  0
   -0.6600    1.1486    0.4782 C   0  0  0  0  0  0  0  0  0  0  0  0
   -1.5001    1.7648   -0.1771 O   0  0  0  0  0  0  0  0  0  0  0  0
    0.1634    1.7559    1.3418 N   0  0  0  0  0  0  0  0  0  0  0  0
    0.8618    1.1897    1.8008 H   0  0  0  0  0  0  0  0  0  0  0  0
    0.1509    3.1886    1.6256 C   0  0  0  0  0  0  0  0  0  0  0  0
   -0.8272    3.4794    2.0152 H   0  0  0  0  0  0  0  0  0  0  0  0
    0.9172    3.4314    2.3624 H   0  0  0  0  0  0  0  0  0  0  0  0
    0.3414    3.7499    0.7095 H   0  0  0  0  0  0  0  0  0  0  0  0
  5  6  2  0  0  0  0
  5  7  1  0  0  0  0
  2  3  1  0  0  0  0
  2  4  1  0  0  0  0
  2  5  1  0  0  0  0
  1  2  1  0  0  0  0
 22 23  2  0  0  0  0
 22 24  1  0  0  0  0
 20 21  1  0  0  0  0
 19 20  1  0  0  0  0
 17 18  1  0  0  0  0
 17 19  2  0  0  0  0
 15 16  1  0  0  0  0
 15 17  1  0  0  0  0
 14 15  1  0  0  0  0
 14 20  2  0  0  0  0
 11 12  1  0  0  0  0
 11 13  1  0  0  0  0
 11 14  1  0  0  0  0
  9 10  1  0  0  0  0
  9 11  1  0  0  0  0
  9 22  1  0  0  0  0
  7  8  1  0  0  0  0
  7  9  1  0  0  0  0
 26 27  1  0  0  0  0
 26 28  1  0  0  0  0
 26 29  1  0  0  0  0
 24 25  1  0  0  0  0
 24 26  1  0  0  0  0
M  END
$$$$
default_name
  -OEChem-02102213163D

 29 29  0     1  0  0  0  0  0999 V2000
   -3.6042   -3.5728    1.4576 H   0  0  0  0  0  0  0  0  0  0  0  0
   -3.5202   -2.6488    0.8866 C   0  0  0  0  0  0  0  0  0  0  0  0
   -4.2052   -1.9048    1.2896 H   0  0  0  0  0  0  0  0  0  0  0  0
   -3.7552   -2.8428   -0.1584 H   0  0  0  0  0  0  0  0  0  0  0  0
   -2.1052   -2.1358    0.9946 C   0  0  0  0  0  0  0  0  0  0  0  0
   -1.2852   -2.7288    1.6826 O   0  0  0  0  0  0  0  0  0  0  0  0
   -1.8202   -1.0288    0.3146 N   0  0  0  0  0  0  0  0  0  0  0  0
   -2.5542   -0.5788   -0.2104 H   0  0  0  0  0  0  0  0  0  0  0  0
   -0.5102   -0.3728    0.3086 C   0  0  1  0  0  0  0  0  0  0  0  0
    0.0719   -0.7468    1.1521 H   0  0  0  0  0  0  0  0  0  0  0  0
    0.2338   -0.7427   -0.9878 C   0  0  0  0  0  0  0  0  0  0  0  0
   -0.4801   -1.1509   -1.7055 H   0  0  0  0  0  0  0  0  0  0  0  0
    0.6651    0.1617   -1.4209 H   0  0  0  0  0  0  0  0  0  0  0  0
    1.3372   -1.7484   -0.7845 C   0  0  0  0  0  0  0  0  0  0  0  0
    1.1954   -3.0253   -0.2851 N   0  0  0  0  0  0  0  0  0  0  0  0
    0.3470   -3.4296    0.0822 H   0  0  0  0  0  0  0  0  0  0  0  0
    2.3881   -3.6385   -0.3673 C   0  0  0  0  0  0  0  0  0  0  0  0
    2.5944   -4.6521   -0.0457 H   0  0  0  0  0  0  0  0  0  0  0  0
    3.2967   -2.8159   -0.9114 N   0  0  0  0  0  0  0  0  0  0  0  0
    2.6420   -1.6104   -1.1769 C   0  0  0  0  0  0  0  0  0  0  0  0
    3.0773   -0.7359   -1.6430 H   0  0  0  0  0  0  0  0  0  0  0  0
   -0.6600    1.1486    0.4782 C   0  0  0  0  0  0  0  0  0  0  0  0
   -1.5001    1.7648   -0.1771 O   0  0  0  0  0  0  0  0  0  0  0  0
    0.1634    1.7559    1.3418 N   0  0  0  0  0  0  0  0  0  0  0  0
    0.8618    1.1897    1.8008 H   0  0  0  0  0  0  0  0  0  0  0  0
    0.1509    3.1886    1.6256 C   0  0  0  0  0  0  0  0  0  0  0  0
   -0.8272    3.4794    2.0152 H   0  0  0  0  0  0  0  0  0  0  0  0
    0.9172    3.4314    2.3624 H   0  0  0  0  0  0  0  0  0  0  0  0
    0.3414    3.7499    0.7095 H   0  0  0  0  0  0  0  0  0  0  0  0
  5  6  2  0  0  0  0
  5  7  1  0  0  0  0
  2  3  1  0  0  0  0
  2  4  1  0  0  0  0
  2  5  1  0  0  0  0
  1  2  1  0  0  0  0
 22 23  2  0  0  0  0
 22 24  1  0  0  0  0
 20 21  1  0  0  0  0
 19 20  1  0  0  0  0
 17 18  1  0  0  0  0
 17 19  2  0  0  0  0
 15 16  1  0  0  0  0
 15 17  1  0  0  0  0
 14 15  1  0  0  0  0
 14 20  2  0  0  0  0
 11 12  1  0  0  0  0
 11 13  1  0  0  0  0
 11 14  1  0  0  0  0
  9 10  1  0  0  0  0
  9 11  1  0  0  0  0
  9 22  1  0  0  0  0
  7  8  1  0  0  0  0
  7  9  1  0  0  0  0
 26 27  1  0  0  0  0
 26 28  1  0  0  0  0
 26 29  1  0  0  0  0
 24 25  1  0  0  0  0
 24 26  1  0  0  0  0
M  END
$$$$
default_name
  -OEChem-02102213163D

 29 29  0     1  0  0  0  0  0999 V2000
   -3.6042   -3.5728    1.4576 H   0  0  0  0  0  0  0  0  0  0  0  0
   -3.5202   -2.6488    0.8866 C   0  0  0  0  0  0  0  0  0  0  0  0
   -4.2052   -1.9048    1.2896 H   0  0  0  0  0  0  0  0  0  0  0  0
   -3.7552   -2.8428   -0.1584 H   0  0  0  0  0  0  0  0  0  0  0  0
   -2.1052   -2.1358    0.9946 C   0  0  0  0  0  0  0  0  0  0  0  0
   -1.2852   -2.7288    1.6826 O   0  0  0  0  0  0  0  0  0  0  0  0
   -1.8202   -1.0288    0.3146 N   0  0  0  0  0  0  0  0  0  0  0  0
   -2.5542   -0.5788   -0.2104 H   0  0  0  0  0  0  0  0  0  0  0  0
   -0.5102   -0.3728    0.3086 C   0  0  1  0  0  0  0  0  0  0  0  0
    0.0719   -0.7468    1.1521 H   0  0  0  0  0  0  0  0  0  0  0  0
    0.2338   -0.7427   -0.9878 C   0  0  0  0  0  0  0  0  0  0  0  0
   -0.4801   -1.1509   -1.7055 H   0  0  0  0  0  0  0  0  0  0  0  0
    0.6651    0.1617   -1.4209 H   0  0  0  0  0  0  0  0  0  0  0  0
    1.3372   -1.7484   -0.7845 C   0  0  0  0  0  0  0  0  0  0  0  0
    1.1789   -3.1000   -0.5649 N   0  0  0  0  0  0  0  0  0  0  0  0
    0.3025   -3.5829   -0.4347 H   0  0  0  0  0  0  0  0  0  0  0  0
    2.3983   -3.6640   -0.5487 C   0  0  0  0  0  0  0  0  0  0  0  0
    2.5991   -4.7165   -0.3905 H   0  0  0  0  0  0  0  0  0  0  0  0
    3.3423   -2.7355   -0.7611 N   0  0  0  0  0  0  0  0  0  0  0  0
    2.6807   -1.5136   -0.9083 C   0  0  0  0  0  0  0  0  0  0  0  0
    3.1430   -0.5579   -1.1191 H   0  0  0  0  0  0  0  0  0  0  0  0
   -0.6600    1.1486    0.4782 C   0  0  0  0  0  0  0  0  0  0  0  0
   -1.5001    1.7648   -0.1771 O   0  0  0  0  0  0  0  0  0  0  0  0
    0.1634    1.7559    1.3418 N   0  0  0  0  0  0  0  0  0  0  0  0
    0.8618    1.1897    1.8008 H   0  0  0  0  0  0  0  0  0  0  0  0
    0.1509    3.1886    1.6256 C   0  0  0  0  0  0  0  0  0  0  0  0
   -0.8272    3.4794    2.0152 H   0  0  0  0  0  0  0  0  0  0  0  0
    0.9172    3.4314    2.3624 H   0  0  0  0  0  0  0  0  0  0  0  0
    0.3414    3.7499    0.7095 H   0  0  0  0  0  0  0  0  0  0  0  0
  5  6  2  0  0  0  0
  5  7  1  0  0  0  0
  2  3  1  0  0  0  0
  2  4  1  0  0  0  0
  2  5  1  0  0  0  0
  1  2  1  0  0  0  0
 22 23  2  0  0  0  0
 22 24  1  0  0  0  0
 20 21  1  0  0  0  0
 19 20  1  0  0  0  0
 17 18  1  0  0  0  0
 17 19  2  0  0  0  0
 15 16  1  0  0  0  0
 15 17  1  0  0  0  0
 14 15  1  0  0  0  0
 14 20  2  0  0  0  0
 11 12  1  0  0  0  0
 11 13  1  0  0  0  0
 11 14  1  0  0  0  0
  9 10  1  0  0  0  0
  9 11  1  0  0  0  0
  9 22  1  0  0  0  0
  7  8  1  0  0  0  0
  7  9  1  0  0  0  0
 26 27  1  0  0  0  0
 26 28  1  0  0  0  0
 26 29  1  0  0  0  0
 24 25  1  0  0  0  0
 24 26  1  0  0  0  0
M  END
$$$$
default_name
  -OEChem-02102213163D

 29 29  0     1  0  0  0  0  0999 V2000
   -3.6042   -3.5728    1.4576 H   0  0  0  0  0  0  0  0  0  0  0  0
   -3.5202   -2.6488    0.8866 C   0  0  0  0  0  0  0  0  0  0  0  0
   -4.2052   -1.9048    1.2896 H   0  0  0  0  0  0  0  0  0  0  0  0
   -3.7552   -2.8428   -0.1584 H   0  0  0  0  0  0  0  0  0  0  0  0
   -2.1052   -2.1358    0.9946 C   0  0  0  0  0  0  0  0  0  0  0  0
   -1.2852   -2.7288    1.6826 O   0  0  0  0  0  0  0  0  0  0  0  0
   -1.8202   -1.0288    0.3146 N   0  0  0  0  0  0  0  0  0  0  0  0
   -2.5542   -0.5788   -0.2104 H   0  0  0  0  0  0  0  0  0  0  0  0
   -0.5102   -0.3728    0.3086 C   0  0  1  0  0  0  0  0  0  0  0  0
    0.0719   -0.7468    1.1521 H   0  0  0  0  0  0  0  0  0  0  0  0
    0.2338   -0.7427   -0.9878 C   0  0  0  0  0  0  0  0  0  0  0  0
   -0.4801   -1.1509   -1.7055 H   0  0  0  0  0  0  0  0  0  0  0  0
    0.6651    0.1617   -1.4209 H   0  0  0  0  0  0  0  0  0  0  0  0
    1.3372   -1.7484   -0.7845 C   0  0  0  0  0  0  0  0  0  0  0  0
    1.2139   -3.1196   -0.8522 N   0  0  0  0  0  0  0  0  0  0  0  0
    0.3543   -3.6345   -0.9708 H   0  0  0  0  0  0  0  0  0  0  0  0
    2.4404   -3.6538   -0.7269 C   0  0  0  0  0  0  0  0  0  0  0  0
    2.6656   -4.7133   -0.7349 H   0  0  0  0  0  0  0  0  0  0  0  0
    3.3576   -2.6847   -0.5928 N   0  0  0  0  0  0  0  0  0  0  0  0
    2.6683   -1.4697   -0.6237 C   0  0  0  0  0  0  0  0  0  0  0  0
    3.1097   -0.4830   -0.5679 H   0  0  0  0  0  0  0  0  0  0  0  0
   -0.6600    1.1486    0.4782 C   0  0  0  0  0  0  0  0  0  0  0  0
   -1.5001    1.7648   -0.1771 O   0  0  0  0  0  0  0  0  0  0  0  0
    0.1634    1.7559    1.3418 N   0  0  0  0  0  0  0  0  0  0  0  0
    0.8618    1.1897    1.8008 H   0  0  0  0  0  0  0  0  0  0  0  0
    0.1509    3.1886    1.6256 C   0  0  0  0  0  0  0  0  0  0  0  0
   -0.8272    3.4794    2.0152 H   0  0  0  0  0  0  0  0  0  0  0  0
    0.9172    3.4314    2.3624 H   0  0  0  0  0  0  0  0  0  0  0  0
    0.3414    3.7499    0.7095 H   0  0  0  0  0  0  0  0  0  0  0  0
  5  6  2  0  0  0  0
  5  7  1  0  0  0  0
  2  3  1  0  0  0  0
  2  4  1  0  0  0  0
  2  5  1  0  0  0  0
  1  2  1  0  0  0  0
 22 23  2  0  0  0  0
 22 24  1  0  0  0  0
 20 21  1  0  0  0  0
 19 20  1  0  0  0  0
 17 18  1  0  0  0  0
 17 19  2  0  0  0  0
 15 16  1  0  0  0  0
 15 17  1  0  0  0  0
 14 15  1  0  0  0  0
 14 20  2  0  0  0  0
 11 12  1  0  0  0  0
 11 13  1  0  0  0  0
 11 14  1  0  0  0  0
  9 10  1  0  0  0  0
  9 11  1  0  0  0  0
  9 22  1  0  0  0  0
  7  8  1  0  0  0  0
  7  9  1  0  0  0  0
 26 27  1  0  0  0  0
 26 28  1  0  0  0  0
 26 29  1  0  0  0  0
 24 25  1  0  0  0  0
 24 26  1  0  0  0  0
M  END
$$$$
default_name
  -OEChem-02102213163D

 29 29  0     1  0  0  0  0  0999 V2000
   -3.6042   -3.5728    1.4576 H   0  0  0  0  0  0  0  0  0  0  0  0
   -3.5202   -2.6488    0.8866 C   0  0  0  0  0  0  0  0  0  0  0  0
   -4.2052   -1.9048    1.2896 H   0  0  0  0  0  0  0  0  0  0  0  0
   -3.7552   -2.8428   -0.1584 H   0  0  0  0  0  0  0  0  0  0  0  0
   -2.1052   -2.1358    0.9946 C   0  0  0  0  0  0  0  0  0  0  0  0
   -1.2852   -2.7288    1.6826 O   0  0  0  0  0  0  0  0  0  0  0  0
   -1.8202   -1.0288    0.3146 N   0  0  0  0  0  0  0  0  0  0  0  0
   -2.5542   -0.5788   -0.2104 H   0  0  0  0  0  0  0  0  0  0  0  0
   -0.5102   -0.3728    0.3086 C   0  0  1  0  0  0  0  0  0  0  0  0
    0.0719   -0.7468    1.1521 H   0  0  0  0  0  0  0  0  0  0  0  0
    0.2338   -0.7427   -0.9878 C   0  0  0  0  0  0  0  0  0  0  0  0
   -0.4801   -1.1509   -1.7055 H   0  0  0  0  0  0  0  0  0  0  0  0
    0.6651    0.1617   -1.4209 H   0  0  0  0  0  0  0  0  0  0  0  0
    1.3372   -1.7484   -0.7845 C   0  0  0  0  0  0  0  0  0  0  0  0
    1.2980   -3.0829   -1.1273 N   0  0  0  0  0  0  0  0  0  0  0  0
    0.4986   -3.5810   -1.4893 H   0  0  0  0  0  0  0  0  0  0  0  0
    2.5115   -3.6088   -0.8898 C   0  0  0  0  0  0  0  0  0  0  0  0
    2.7891   -4.6426   -1.0555 H   0  0  0  0  0  0  0  0  0  0  0  0
    3.3415   -2.6671   -0.4180 N   0  0  0  0  0  0  0  0  0  0  0  0
    2.6057   -1.4816   -0.3427 C   0  0  0  0  0  0  0  0  0  0  0  0
    2.9797   -0.5163   -0.0270 H   0  0  0  0  0  0  0  0  0  0  0  0
   -0.6600    1.1486    0.4782 C   0  0  0  0  0  0  0  0  0  0  0  0
   -1.5001    1.7648   -0.1771 O   0  0  0  0  0  0  0  0  0  0  0  0
    0.1634    1.7559    1.3418 N   0  0  0  0  0  0  0  0  0  0  0  0
    0.8618    1.1897    1.8008 H   0  0  0  0  0  0  0  0  0  0  0  0
    0.1509    3.1886    1.6256 C   0  0  0  0  0  0  0  0  0  0  0  0
   -0.8272    3.4794    2.0152 H   0  0  0  0  0  0  0  0  0  0  0  0
    0.9172    3.4314    2.3624 H   0  0  0  0  0  0  0  0  0  0  0  0
    0.3414    3.7499    0.7095 H   0  0  0  0  0  0  0  0  0  0  0  0
  5  6  2  0  0  0  0
  5  7  1  0  0  0  0
  2  3  1  0  0  0  0
  2  4  1  0  0  0  0
  2  5  1  0  0  0  0
  1  2  1  0  0  0  0
 22 23  2  0  0  0  0
 22 24  1  0  0  0  0
 20 21  1  0  0  0  0
 19 20  1  0  0  0  0
 17 18  1  0  0  0  0
 17 19  2  0  0  0  0
 15 16  1  0  0  0  0
 15 17  1  0  0  0  0
 14 15  1  0  0  0  0
 14 20  2  0  0  0  0
 11 12  1  0  0  0  0
 11 13  1  0  0  0  0
 11 14  1  0  0  0  0
  9 10  1  0  0  0  0
  9 11  1  0  0  0  0
  9 22  1  0  0  0  0
  7  8  1  0  0  0  0
  7  9  1  0  0  0  0
 26 27  1  0  0  0  0
 26 28  1  0  0  0  0
 26 29  1  0  0  0  0
 24 25  1  0  0  0  0
 24 26  1  0  0  0  0
M  END
$$$$
default_name
  -OEChem-02102213163D

 29 29  0     1  0  0  0  0  0999 V2000
   -3.6042   -3.5728    1.4576 H   0  0  0  0  0  0  0  0  0  0  0  0
   -3.5202   -2.6488    0.8866 C   0  0  0  0  0  0  0  0  0  0  0  0
   -4.2052   -1.9048    1.2896 H   0  0  0  0  0  0  0  0  0  0  0  0
   -3.7552   -2.8428   -0.1584 H   0  0  0  0  0  0  0  0  0  0  0  0
   -2.1052   -2.1358    0.9946 C   0  0  0  0  0  0  0  0  0  0  0  0
   -1.2852   -2.7288    1.6826 O   0  0  0  0  0  0  0  0  0  0  0  0
   -1.8202   -1.0288    0.3146 N   0  0  0  0  0  0  0  0  0  0  0  0
   -2.5542   -0.5788   -0.2104 H   0  0  0  0  0  0  0  0  0  0  0  0
   -0.5102   -0.3728    0.3086 C   0  0  1  0  0  0  0  0  0  0  0  0
    0.0719   -0.7468    1.1521 H   0  0  0  0  0  0  0  0  0  0  0  0
    0.2338   -0.7427   -0.9878 C   0  0  0  0  0  0  0  0  0  0  0  0
   -0.4801   -1.1509   -1.7055 H   0  0  0  0  0  0  0  0  0  0  0  0
    0.6651    0.1617   -1.4209 H   0  0  0  0  0  0  0  0  0  0  0  0
    1.3372   -1.7484   -0.7845 C   0  0  0  0  0  0  0  0  0  0  0  0
    1.4256   -2.9924   -1.3716 N   0  0  0  0  0  0  0  0  0  0  0  0
    0.7258   -3.4259   -1.9552 H   0  0  0  0  0  0  0  0  0  0  0  0
    2.6067   -3.5319   -1.0264 C   0  0  0  0  0  0  0  0  0  0  0  0
    2.9613   -4.5092   -1.3304 H   0  0  0  0  0  0  0  0  0  0  0  0
    3.2951   -2.6837   -0.2486 N   0  0  0  0  0  0  0  0  0  0  0  0
    2.4970   -1.5485   -0.0843 C   0  0  0  0  0  0  0  0  0  0  0  0
    2.7619   -0.6554    0.4667 H   0  0  0  0  0  0  0  0  0  0  0  0
   -0.6600    1.1486    0.4782 C   0  0  0  0  0  0  0  0  0  0  0  0
   -1.5001    1.7648   -0.1771 O   0  0  0  0  0  0  0  0  0  0  0  0
    0.1634    1.7559    1.3418 N   0  0  0  0  0  0  0  0  0  0  0  0
    0.8618    1.1897    1.8008 H   0  0  0  0  0  0  0  0  0  0  0  0
    0.1509    3.1886    1.6256 C   0  0  0  0  0  0  0  0  0  0  0  0
   -0.8272    3.4794    2.0152 H   0  0  0  0  0  0  0  0  0  0  0  0
    0.9172    3.4314    2.3624 H   0  0  0  0  0  0  0  0  0  0  0  0
    0.3414    3.7499    0.7095 H   0  0  0  0  0  0  0  0  0  0  0  0
  5  6  2  0  0  0  0
  5  7  1  0  0  0  0
  2  3  1  0  0  0  0
  2  4  1  0  0  0  0
  2  5  1  0  0  0  0
  1  2  1  0  0  0  0
 22 23  2  0  0  0  0
 22 24  1  0  0  0  0
 20 21  1  0  0  0  0
 19 20  1  0  0  0  0
 17 18  1  0  0  0  0
 17 19  2  0  0  0  0
 15 16  1  0  0  0  0
 15 17  1  0  0  0  0
 14 15  1  0  0  0  0
 14 20  2  0  0  0  0
 11 12  1  0  0  0  0
 11 13  1  0  0  0  0
 11 14  1  0  0  0  0
  9 10  1  0  0  0  0
  9 11  1  0  0  0  0
  9 22  1  0  0  0  0
  7  8  1  0  0  0  0
  7  9  1  0  0  0  0
 26 27  1  0  0  0  0
 26 28  1  0  0  0  0
 26 29  1  0  0  0  0
 24 25  1  0  0  0  0
 24 26  1  0  0  0  0
M  END
$$$$
default_name
  -OEChem-02102213163D

 29 29  0     1  0  0  0  0  0999 V2000
   -3.6042   -3.5728    1.4576 H   0  0  0  0  0  0  0  0  0  0  0  0
   -3.5202   -2.6488    0.8866 C   0  0  0  0  0  0  0  0  0  0  0  0
   -4.2052   -1.9048    1.2896 H   0  0  0  0  0  0  0  0  0  0  0  0
   -3.7552   -2.8428   -0.1584 H   0  0  0  0  0  0  0  0  0  0  0  0
   -2.1052   -2.1358    0.9946 C   0  0  0  0  0  0  0  0  0  0  0  0
   -1.2852   -2.7288    1.6826 O   0  0  0  0  0  0  0  0  0  0  0  0
   -1.8202   -1.0288    0.3146 N   0  0  0  0  0  0  0  0  0  0  0  0
   -2.5542   -0.5788   -0.2104 H   0  0  0  0  0  0  0  0  0  0  0  0
   -0.5102   -0.3728    0.3086 C   0  0  1  0  0  0  0  0  0  0  0  0
    0.0719   -0.7468    1.1521 H   0  0  0  0  0  0  0  0  0  0  0  0
    0.2338   -0.7427   -0.9878 C   0  0  0  0  0  0  0  0  0  0  0  0
   -0.4801   -1.1509   -1.7055 H   0  0  0  0  0  0  0  0  0  0  0  0
    0.6651    0.1617   -1.4209 H   0  0  0  0  0  0  0  0  0  0  0  0
    1.3372   -1.7484   -0.7845 C   0  0  0  0  0  0  0  0  0  0  0  0
    1.5878   -2.8542   -1.5684 N   0  0  0  0  0  0  0  0  0  0  0  0
    1.0203   -3.1799   -2.3365 H   0  0  0  0  0  0  0  0  0  0  0  0
    2.7196   -3.4284   -1.1273 C   0  0  0  0  0  0  0  0  0  0  0  0
    3.1705   -4.3222   -1.5409 H   0  0  0  0  0  0  0  0  0  0  0  0
    3.2217   -2.7335   -0.0961 N   0  0  0  0  0  0  0  0  0  0  0  0
    2.3498   -1.6660    0.1338 C   0  0  0  0  0  0  0  0  0  0  0  0
    2.4711   -0.8911    0.8795 H   0  0  0  0  0  0  0  0  0  0  0  0
   -0.6600    1.1486    0.4782 C   0  0  0  0  0  0  0  0  0  0  0  0
   -1.5001    1.7648   -0.1771 O   0  0  0  0  0  0  0  0  0  0  0  0
    0.1634    1.7559    1.3418 N   0  0  0  0  0  0  0  0  0  0  0  0
    0.8618    1.1897    1.8008 H   0  0  0  0  0  0  0  0  0  0  0  0
    0.1509    3.1886    1.6256 C   0  0  0  0  0  0  0  0  0  0  0  0
   -0.8272    3.4794    2.0152 H   0  0  0  0  0  0  0  0  0  0  0  0
    0.9172    3.4314    2.3624 H   0  0  0  0  0  0  0  0  0  0  0  0
    0.3414    3.7499    0.7095 H   0  0  0  0  0  0  0  0  0  0  0  0
  5  6  2  0  0  0  0
  5  7  1  0  0  0  0
  2  3  1  0  0  0  0
  2  4  1  0  0  0  0
  2  5  1  0  0  0  0
  1  2  1  0  0  0  0
 22 23  2  0  0  0  0
 22 24  1  0  0  0  0
 20 21  1  0  0  0  0
 19 20  1  0  0  0  0
 17 18  1  0  0  0  0
 17 19  2  0  0  0  0
 15 16  1  0  0  0  0
 15 17  1  0  0  0  0
 14 15  1  0  0  0  0
 14 20  2  0  0  0  0
 11 12  1  0  0  0  0
 11 13  1  0  0  0  0
 11 14  1  0  0  0  0
  9 10  1  0  0  0  0
  9 11  1  0  0  0  0
  9 22  1  0  0  0  0
  7  8  1  0  0  0  0
  7  9  1  0  0  0  0
 26 27  1  0  0  0  0
 26 28  1  0  0  0  0
 26 29  1  0  0  0  0
 24 25  1  0  0  0  0
 24 26  1  0  0  0  0
M  END
$$$$
default_name
  -OEChem-02102213163D

 29 29  0     1  0  0  0  0  0999 V2000
   -3.6042   -3.5728    1.4576 H   0  0  0  0  0  0  0  0  0  0  0  0
   -3.5202   -2.6488    0.8866 C   0  0  0  0  0  0  0  0  0  0  0  0
   -4.2052   -1.9048    1.2896 H   0  0  0  0  0  0  0  0  0  0  0  0
   -3.7552   -2.8428   -0.1584 H   0  0  0  0  0  0  0  0  0  0  0  0
   -2.1052   -2.1358    0.9946 C   0  0  0  0  0  0  0  0  0  0  0  0
   -1.2852   -2.7288    1.6826 O   0  0  0  0  0  0  0  0  0  0  0  0
   -1.8202   -1.0288    0.3146 N   0  0  0  0  0  0  0  0  0  0  0  0
   -2.5542   -0.5788   -0.2104 H   0  0  0  0  0  0  0  0  0  0  0  0
   -0.5102   -0.3728    0.3086 C   0  0  1  0  0  0  0  0  0  0  0  0
    0.0719   -0.7468    1.1521 H   0  0  0  0  0  0  0  0  0  0  0  0
    0.2338   -0.7427   -0.9878 C   0  0  0  0  0  0  0  0  0  0  0  0
   -0.4801   -1.1509   -1.7055 H   0  0  0  0  0  0  0  0  0  0  0  0
    0.6651    0.1617   -1.4209 H   0  0  0  0  0  0  0  0  0  0  0  0
    1.3372   -1.7484   -0.7845 C   0  0  0  0  0  0  0  0  0  0  0  0
    1.7736   -2.6778   -1.7042 N   0  0  0  0  0  0  0  0  0  0  0  0
    1.3620   -2.8597   -2.6073 H   0  0  0  0  0  0  0  0  0  0  0  0
    2.8425   -3.3054   -1.1856 C   0  0  0  0  0  0  0  0  0  0  0  0
    3.4024   -4.0944   -1.6727 H   0  0  0  0  0  0  0  0  0  0  0  0
    3.1261   -2.8130    0.0290 N   0  0  0  0  0  0  0  0  0  0  0  0
    2.1740   -1.8259    0.2967 C   0  0  0  0  0  0  0  0  0  0  0  0
    2.1271   -1.2071    1.1834 H   0  0  0  0  0  0  0  0  0  0  0  0
   -0.6600    1.1486    0.4782 C   0  0  0  0  0  0  0  0  0  0  0  0
   -1.5001    1.7648   -0.1771 O   0  0  0  0  0  0  0  0  0  0  0  0
    0.1634    1.7559    1.3418 N   0  0  0  0  0  0  0  0  0  0  0  0
    0.8618    1.1897    1.8008 H   0  0  0  0  0  0  0  0  0  0  0  0
    0.1509    3.1886    1.6256 C   0  0  0  0  0  0  0  0  0  0  0  0
   -0.8272    3.4794    2.0152 H   0  0  0  0  0  0  0  0  0  0  0  0
    0.9172    3.4314    2.3624 H   0  0  0  0  0  0  0  0  0  0  0  0
    0.3414    3.7499    0.7095 H   0  0  0  0  0  0  0  0  0  0  0  0
  5  6  2  0  0  0  0
  5  7  1  0  0  0  0
  2  3  1  0  0  0  0
  2  4  1  0  0  0  0
  2  5  1  0  0  0  0
  1  2  1  0  0  0  0
 22 23  2  0  0  0  0
 22 24  1  0  0  0  0
 20 21  1  0  0  0  0
 19 20  1  0  0  0  0
 17 18  1  0  0  0  0
 17 19  2  0  0  0  0
 15 16  1  0  0  0  0
 15 17  1  0  0  0  0
 14 15  1  0  0  0  0
 14 20  2  0  0  0  0
 11 12  1  0  0  0  0
 11 13  1  0  0  0  0
 11 14  1  0  0  0  0
  9 10  1  0  0  0  0
  9 11  1  0  0  0  0
  9 22  1  0  0  0  0
  7  8  1  0  0  0  0
  7  9  1  0  0  0  0
 26 27  1  0  0  0  0
 26 28  1  0  0  0  0
 26 29  1  0  0  0  0
 24 25  1  0  0  0  0
 24 26  1  0  0  0  0
M  END
$$$$
default_name
  -OEChem-02102213163D

 29 29  0     1  0  0  0  0  0999 V2000
   -3.6042   -3.5728    1.4576 H   0  0  0  0  0  0  0  0  0  0  0  0
   -3.5202   -2.6488    0.8866 C   0  0  0  0  0  0  0  0  0  0  0  0
   -4.2052   -1.9048    1.2896 H   0  0  0  0  0  0  0  0  0  0  0  0
   -3.7552   -2.8428   -0.1584 H   0  0  0  0  0  0  0  0  0  0  0  0
   -2.1052   -2.1358    0.9946 C   0  0  0  0  0  0  0  0  0  0  0  0
   -1.2852   -2.7288    1.6826 O   0  0  0  0  0  0  0  0  0  0  0  0
   -1.8202   -1.0288    0.3146 N   0  0  0  0  0  0  0  0  0  0  0  0
   -2.5542   -0.5788   -0.2104 H   0  0  0  0  0  0  0  0  0  0  0  0
   -0.5102   -0.3728    0.3086 C   0  0  1  0  0  0  0  0  0  0  0  0
    0.0719   -0.7468    1.1521 H   0  0  0  0  0  0  0  0  0  0  0  0
    0.2338   -0.7427   -0.9878 C   0  0  0  0  0  0  0  0  0  0  0  0
   -0.4801   -1.1509   -1.7055 H   0  0  0  0  0  0  0  0  0  0  0  0
    0.6651    0.1617   -1.4209 H   0  0  0  0  0  0  0  0  0  0  0  0
    1.3372   -1.7484   -0.7845 C   0  0  0  0  0  0  0  0  0  0  0  0
    1.9704   -2.4751   -1.7699 N   0  0  0  0  0  0  0  0  0  0  0  0
    1.7277   -2.4872   -2.7492 H   0  0  0  0  0  0  0  0  0  0  0  0
    2.9670   -3.1712   -1.1975 C   0  0  0  0  0  0  0  0  0  0  0  0
    3.6413   -3.8413   -1.7167 H   0  0  0  0  0  0  0  0  0  0  0  0
    3.0149   -2.9169    0.1184 N   0  0  0  0  0  0  0  0  0  0  0  0
    1.9816   -2.0174    0.3935 C   0  0  0  0  0  0  0  0  0  0  0  0
    1.7533   -1.5819    1.3576 H   0  0  0  0  0  0  0  0  0  0  0  0
   -0.6600    1.1486    0.4782 C   0  0  0  0  0  0  0  0  0  0  0  0
   -1.5001    1.7648   -0.1771 O   0  0  0  0  0  0  0  0  0  0  0  0
    0.1634    1.7559    1.3418 N   0  0  0  0  0  0  0  0  0  0  0  0
    0.8618    1.1897    1.8008 H   0  0  0  0  0  0  0  0  0  0  0  0
    0.1509    3.1886    1.6256 C   0  0  0  0  0  0  0  0  0  0  0  0
   -0.8272    3.4794    2.0152 H   0  0  0  0  0  0  0  0  0  0  0  0
    0.9172    3.4314    2.3624 H   0  0  0  0  0  0  0  0  0  0  0  0
    0.3414    3.7499    0.7095 H   0  0  0  0  0  0  0  0  0  0  0  0
  5  6  2  0  0  0  0
  5  7  1  0  0  0  0
  2  3  1  0  0  0  0
  2  4  1  0  0  0  0
  2  5  1  0  0  0  0
  1  2  1  0  0  0  0
 22 23  2  0  0  0  0
 22 24  1  0  0  0  0
 20 21  1  0  0  0  0
 19 20  1  0  0  0  0
 17 18  1  0  0  0  0
 17 19  2  0  0  0  0
 15 16  1  0  0  0  0
 15 17  1  0  0  0  0
 14 15  1  0  0  0  0
 14 20  2  0  0  0  0
 11 12  1  0  0  0  0
 11 13  1  0  0  0  0
 11 14  1  0  0  0  0
  9 10  1  0  0  0  0
  9 11  1  0  0  0  0
  9 22  1  0  0  0  0
  7  8  1  0  0  0  0
  7  9  1  0  0  0  0
 26 27  1  0  0  0  0
 26 28  1  0  0  0  0
 26 29  1  0  0  0  0
 24 25  1  0  0  0  0
 24 26  1  0  0  0  0
M  END
$$$$
default_name
  -OEChem-02102213163D

 29 29  0     1  0  0  0  0  0999 V2000
   -3.6042   -3.5728    1.4576 H   0  0  0  0  0  0  0  0  0  0  0  0
   -3.5202   -2.6488    0.8866 C   0  0  0  0  0  0  0  0  0  0  0  0
   -4.2052   -1.9048    1.2896 H   0  0  0  0  0  0  0  0  0  0  0  0
   -3.7552   -2.8428   -0.1584 H   0  0  0  0  0  0  0  0  0  0  0  0
   -2.1052   -2.1358    0.9946 C   0  0  0  0  0  0  0  0  0  0  0  0
   -1.2852   -2.7288    1.6826 O   0  0  0  0  0  0  0  0  0  0  0  0
   -1.8202   -1.0288    0.3146 N   0  0  0  0  0  0  0  0  0  0  0  0
   -2.5542   -0.5788   -0.2104 H   0  0  0  0  0  0  0  0  0  0  0  0
   -0.5102   -0.3728    0.3086 C   0  0  1  0  0  0  0  0  0  0  0  0
    0.0719   -0.7468    1.1521 H   0  0  0  0  0  0  0  0  0  0  0  0
    0.2338   -0.7427   -0.9878 C   0  0  0  0  0  0  0  0  0  0  0  0
   -0.4942   -0.8946   -1.7867 H   0  0  0  0  0  0  0  0  0  0  0  0
    0.8802    0.0881   -1.2764 H   0  0  0  0  0  0  0  0  0  0  0  0
    1.0778   -1.9849   -0.8659 C   0  0  0  0  0  0  0  0  0  0  0  0
    1.8486   -2.5483   -1.8602 N   0  0  0  0  0  0  0  0  0  0  0  0
    1.8903   -2.2483   -2.8227 H   0  0  0  0  0  0  0  0  0  0  0  0
    2.5329   -3.5733   -1.3249 C   0  0  0  0  0  0  0  0  0  0  0  0
    3.2205   -4.2152   -1.8619 H   0  0  0  0  0  0  0  0  0  0  0  0
    2.2474   -3.6913   -0.0200 N   0  0  0  0  0  0  0  0  0  0  0  0
    1.3208   -2.6902    0.2825 C   0  0  0  0  0  0  0  0  0  0  0  0
    0.8978   -2.4843    1.2573 H   0  0  0  0  0  0  0  0  0  0  0  0
   -0.6600    1.1486    0.4782 C   0  0  0  0  0  0  0  0  0  0  0  0
   -1.5001    1.7648   -0.1771 O   0  0  0  0  0  0  0  0  0  0  0  0
    0.1634    1.7559    1.3418 N   0  0  0  0  0  0  0  0  0  0  0  0
    0.8618    1.1897    1.8008 H   0  0  0  0  0  0  0  0  0  0  0  0
    0.1509    3.1886    1.6256 C   0  0  0  0  0  0  0  0  0  0  0  0
   -0.8272    3.4794    2.0152 H   0  0  0  0  0  0  0  0  0  0  0  0
    0.9172    3.4314    2.3624 H   0  0  0  0  0  0  0  0  0  0  0  0
    0.3414    3.7499    0.7095 H   0  0  0  0  0  0  0  0  0  0  0  0
  5  6  2  0  0  0  0
  5  7  1  0  0  0  0
  2  3  1  0  0  0  0
  2  4  1  0  0  0  0
  2  5  1  0  0  0  0
  1  2  1  0  0  0  0
 22 23  2  0  0  0  0
 22 24  1  0  0  0  0
 20 21  1  0  0  0  0
 19 20  1  0  0  0  0
 17 18  1  0  0  0  0
 17 19  2  0  0  0  0
 15 16  1  0  0  0  0
 15 17  1  0  0  0  0
 14 15  1  0  0  0  0
 14 20  2  0  0  0  0
 11 12  1  0  0  0  0
 11 13  1  0  0  0  0
 11 14  1  0  0  0  0
  9 10  1  0  0  0  0
  9 11  1  0  0  0  0
  9 22  1  0  0  0  0
  7  8  1  0  0  0  0
  7  9  1  0  0  0  0
 26 27  1  0  0  0  0
 26 28  1  0  0  0  0
 26 29  1  0  0  0  0
 24 25  1  0  0  0  0
 24 26  1  0  0  0  0
M  END
$$$$
default_name
  -OEChem-02102213163D

 29 29  0     1  0  0  0  0  0999 V2000
   -3.6042   -3.5728    1.4576 H   0  0  0  0  0  0  0  0  0  0  0  0
   -3.5202   -2.6488    0.8866 C   0  0  0  0  0  0  0  0  0  0  0  0
   -4.2052   -1.9048    1.2896 H   0  0  0  0  0  0  0  0  0  0  0  0
   -3.7552   -2.8428   -0.1584 H   0  0  0  0  0  0  0  0  0  0  0  0
   -2.1052   -2.1358    0.9946 C   0  0  0  0  0  0  0  0  0  0  0  0
   -1.2852   -2.7288    1.6826 O   0  0  0  0  0  0  0  0  0  0  0  0
   -1.8202   -1.0288    0.3146 N   0  0  0  0  0  0  0  0  0  0  0  0
   -2.5542   -0.5788   -0.2104 H   0  0  0  0  0  0  0  0  0  0  0  0
   -0.5102   -0.3728    0.3086 C   0  0  1  0  0  0  0  0  0  0  0  0
    0.0719   -0.7468    1.1521 H   0  0  0  0  0  0  0  0  0  0  0  0
    0.2338   -0.7427   -0.9878 C   0  0  0  0  0  0  0  0  0  0  0  0
   -0.4942   -0.8946   -1.7867 H   0  0  0  0  0  0  0  0  0  0  0  0
    0.8802    0.0881   -1.2764 H   0  0  0  0  0  0  0  0  0  0  0  0
    1.0778   -1.9849   -0.8659 C   0  0  0  0  0  0  0  0  0  0  0  0
    2.0618   -2.3918   -1.7412 N   0  0  0  0  0  0  0  0  0  0  0  0
    2.2955   -1.9531   -2.6194 H   0  0  0  0  0  0  0  0  0  0  0  0
    2.6544   -3.4808   -1.2233 C   0  0  0  0  0  0  0  0  0  0  0  0
    3.4632   -4.0331   -1.6859 H   0  0  0  0  0  0  0  0  0  0  0  0
    2.1035   -3.7911   -0.0407 N   0  0  0  0  0  0  0  0  0  0  0  0
    1.0977   -2.8503    0.1952 C   0  0  0  0  0  0  0  0  0  0  0  0
    0.4706   -2.7924    1.0755 H   0  0  0  0  0  0  0  0  0  0  0  0
   -0.6600    1.1486    0.4782 C   0  0  0  0  0  0  0  0  0  0  0  0
   -1.5001    1.7648   -0.1771 O   0  0  0  0  0  0  0  0  0  0  0  0
    0.1634    1.7559    1.3418 N   0  0  0  0  0  0  0  0  0  0  0  0
    0.8618    1.1897    1.8008 H   0  0  0  0  0  0  0  0  0  0  0  0
    0.1509    3.1886    1.6256 C   0  0  0  0  0  0  0  0  0  0  0  0
   -0.8272    3.4794    2.0152 H   0  0  0  0  0  0  0  0  0  0  0  0
    0.9172    3.4314    2.3624 H   0  0  0  0  0  0  0  0  0  0  0  0
    0.3414    3.7499    0.7095 H   0  0  0  0  0  0  0  0  0  0  0  0
  5  6  2  0  0  0  0
  5  7  1  0  0  0  0
  2  3  1  0  0  0  0
  2  4  1  0  0  0  0
  2  5  1  0  0  0  0
  1  2  1  0  0  0  0
 22 23  2  0  0  0  0
 22 24  1  0  0  0  0
 20 21  1  0  0  0  0
 19 20  1  0  0  0  0
 17 18  1  0  0  0  0
 17 19  2  0  0  0  0
 15 16  1  0  0  0  0
 15 17  1  0  0  0  0
 14 15  1  0  0  0  0
 14 20  2  0  0  0  0
 11 12  1  0  0  0  0
 11 13  1  0  0  0  0
 11 14  1  0  0  0  0
  9 10  1  0  0  0  0
  9 11  1  0  0  0  0
  9 22  1  0  0  0  0
  7  8  1  0  0  0  0
  7  9  1  0  0  0  0
 26 27  1  0  0  0  0
 26 28  1  0  0  0  0
 26 29  1  0  0  0  0
 24 25  1  0  0  0  0
 24 26  1  0  0  0  0
M  END
$$$$
default_name
  -OEChem-02102213163D

 29 29  0     1  0  0  0  0  0999 V2000
   -3.6042   -3.5728    1.4576 H   0  0  0  0  0  0  0  0  0  0  0  0
   -3.5202   -2.6488    0.8866 C   0  0  0  0  0  0  0  0  0  0  0  0
   -4.2052   -1.9048    1.2896 H   0  0  0  0  0  0  0  0  0  0  0  0
   -3.7552   -2.8428   -0.1584 H   0  0  0  0  0  0  0  0  0  0  0  0
   -2.1052   -2.1358    0.9946 C   0  0  0  0  0  0  0  0  0  0  0  0
   -1.2852   -2.7288    1.6826 O   0  0  0  0  0  0  0  0  0  0  0  0
   -1.8202   -1.0288    0.3146 N   0  0  0  0  0  0  0  0  0  0  0  0
   -2.5542   -0.5788   -0.2104 H   0  0  0  0  0  0  0  0  0  0  0  0
   -0.5102   -0.3728    0.3086 C   0  0  1  0  0  0  0  0  0  0  0  0
    0.0719   -0.7468    1.1521 H   0  0  0  0  0  0  0  0  0  0  0  0
    0.2338   -0.7427   -0.9878 C   0  0  0  0  0  0  0  0  0  0  0  0
   -0.4942   -0.8946   -1.7867 H   0  0  0  0  0  0  0  0  0  0  0  0
    0.8802    0.0881   -1.2764 H   0  0  0  0  0  0  0  0  0  0  0  0
    1.0778   -1.9849   -0.8659 C   0  0  0  0  0  0  0  0  0  0  0  0
    2.2392   -2.2533   -1.5582 N   0  0  0  0  0  0  0  0  0  0  0  0
    2.6373   -1.6889   -2.2938 H   0  0  0  0  0  0  0  0  0  0  0  0
    2.7481   -3.4036   -1.0858 C   0  0  0  0  0  0  0  0  0  0  0  0
    3.6563   -3.8776   -1.4377 H   0  0  0  0  0  0  0  0  0  0  0  0
    1.9709   -3.8876   -0.1059 N   0  0  0  0  0  0  0  0  0  0  0  0
    0.9041   -2.9970    0.0401 C   0  0  0  0  0  0  0  0  0  0  0  0
    0.1031   -3.0726    0.7640 H   0  0  0  0  0  0  0  0  0  0  0  0
   -0.6600    1.1486    0.4782 C   0  0  0  0  0  0  0  0  0  0  0  0
   -1.5001    1.7648   -0.1771 O   0  0  0  0  0  0  0  0  0  0  0  0
    0.1634    1.7559    1.3418 N   0  0  0  0  0  0  0  0  0  0  0  0
    0.8618    1.1897    1.8008 H   0  0  0  0  0  0  0  0  0  0  0  0
    0.1509    3.1886    1.6256 C   0  0  0  0  0  0  0  0  0  0  0  0
   -0.8272    3.4794    2.0152 H   0  0  0  0  0  0  0  0  0  0  0  0
    0.9172    3.4314    2.3624 H   0  0  0  0  0  0  0  0  0  0  0  0
    0.3414    3.7499    0.7095 H   0  0  0  0  0  0  0  0  0  0  0  0
  5  6  2  0  0  0  0
  5  7  1  0  0  0  0
  2  3  1  0  0  0  0
  2  4  1  0  0  0  0
  2  5  1  0  0  0  0
  1  2  1  0  0  0  0
 22 23  2  0  0  0  0
 22 24  1  0  0  0  0
 20 21  1  0  0  0  0
 19 20  1  0  0  0  0
 17 18  1  0  0  0  0
 17 19  2  0  0  0  0
 15 16  1  0  0  0  0
 15 17  1  0  0  0  0
 14 15  1  0  0  0  0
 14 20  2  0  0  0  0
 11 12  1  0  0  0  0
 11 13  1  0  0  0  0
 11 14  1  0  0  0  0
  9 10  1  0  0  0  0
  9 11  1  0  0  0  0
  9 22  1  0  0  0  0
  7  8  1  0  0  0  0
  7  9  1  0  0  0  0
 26 27  1  0  0  0  0
 26 28  1  0  0  0  0
 26 29  1  0  0  0  0
 24 25  1  0  0  0  0
 24 26  1  0  0  0  0
M  END
$$$$
default_name
  -OEChem-02102213163D

 29 29  0     1  0  0  0  0  0999 V2000
   -3.6042   -3.5728    1.4576 H   0  0  0  0  0  0  0  0  0  0  0  0
   -3.5202   -2.6488    0.8866 C   0  0  0  0  0  0  0  0  0  0  0  0
   -4.2052   -1.9048    1.2896 H   0  0  0  0  0  0  0  0  0  0  0  0
   -3.7552   -2.8428   -0.1584 H   0  0  0  0  0  0  0  0  0  0  0  0
   -2.1052   -2.1358    0.9946 C   0  0  0  0  0  0  0  0  0  0  0  0
   -1.2852   -2.7288    1.6826 O   0  0  0  0  0  0  0  0  0  0  0  0
   -1.8202   -1.0288    0.3146 N   0  0  0  0  0  0  0  0  0  0  0  0
   -2.5542   -0.5788   -0.2104 H   0  0  0  0  0  0  0  0  0  0  0  0
   -0.5102   -0.3728    0.3086 C   0  0  1  0  0  0  0  0  0  0  0  0
    0.0719   -0.7468    1.1521 H   0  0  0  0  0  0  0  0  0  0  0  0
    0.2338   -0.7427   -0.9878 C   0  0  0  0  0  0  0  0  0  0  0  0
   -0.4942   -0.8946   -1.7867 H   0  0  0  0  0  0  0  0  0  0  0  0
    0.8802    0.0881   -1.2764 H   0  0  0  0  0  0  0  0  0  0  0  0
    1.0778   -1.9849   -0.8659 C   0  0  0  0  0  0  0  0  0  0  0  0
    2.3685   -2.1424   -1.3234 N   0  0  0  0  0  0  0  0  0  0  0  0
    2.8924   -1.4737   -1.8680 H   0  0  0  0  0  0  0  0  0  0  0  0
    2.8076   -3.3471   -0.9219 C   0  0  0  0  0  0  0  0  0  0  0  0
    3.7865   -3.7593   -1.1343 H   0  0  0  0  0  0  0  0  0  0  0  0
    1.8588   -3.9741   -0.2112 N   0  0  0  0  0  0  0  0  0  0  0  0
    0.7534   -3.1203   -0.1723 C   0  0  0  0  0  0  0  0  0  0  0  0
   -0.1795   -3.3058    0.3442 H   0  0  0  0  0  0  0  0  0  0  0  0
   -0.6600    1.1486    0.4782 C   0  0  0  0  0  0  0  0  0  0  0  0
   -1.5001    1.7648   -0.1771 O   0  0  0  0  0  0  0  0  0  0  0  0
    0.1634    1.7559    1.3418 N   0  0  0  0  0  0  0  0  0  0  0  0
    0.8618    1.1897    1.8008 H   0  0  0  0  0  0  0  0  0  0  0  0
    0.1509    3.1886    1.6256 C   0  0  0  0  0  0  0  0  0  0  0  0
   -0.8272    3.4794    2.0152 H   0  0  0  0  0  0  0  0  0  0  0  0
    0.9172    3.4314    2.3624 H   0  0  0  0  0  0  0  0  0  0  0  0
    0.3414    3.7499    0.7095 H   0  0  0  0  0  0  0  0  0  0  0  0
  5  6  2  0  0  0  0
  5  7  1  0  0  0  0
  2  3  1  0  0  0  0
  2  4  1  0  0  0  0
  2  5  1  0  0  0  0
  1  2  1  0  0  0  0
 22 23  2  0  0  0  0
 22 24  1  0  0  0  0
 20 21  1  0  0  0  0
 19 20  1  0  0  0  0
 17 18  1  0  0  0  0
 17 19  2  0  0  0  0
 15 16  1  0  0  0  0
 15 17  1  0  0  0  0
 14 15  1  0  0  0  0
 14 20  2  0  0  0  0
 11 12  1  0  0  0  0
 11 13  1  0  0  0  0
 11 14  1  0  0  0  0
  9 10  1  0  0  0  0
  9 11  1  0  0  0  0
  9 22  1  0  0  0  0
  7  8  1  0  0  0  0
  7  9  1  0  0  0  0
 26 27  1  0  0  0  0
 26 28  1  0  0  0  0
 26 29  1  0  0  0  0
 24 25  1  0  0  0  0
 24 26  1  0  0  0  0
M  END
$$$$
default_name
  -OEChem-02102213163D

 29 29  0     1  0  0  0  0  0999 V2000
   -3.6042   -3.5728    1.4576 H   0  0  0  0  0  0  0  0  0  0  0  0
   -3.5202   -2.6488    0.8866 C   0  0  0  0  0  0  0  0  0  0  0  0
   -4.2052   -1.9048    1.2896 H   0  0  0  0  0  0  0  0  0  0  0  0
   -3.7552   -2.8428   -0.1584 H   0  0  0  0  0  0  0  0  0  0  0  0
   -2.1052   -2.1358    0.9946 C   0  0  0  0  0  0  0  0  0  0  0  0
   -1.2852   -2.7288    1.6826 O   0  0  0  0  0  0  0  0  0  0  0  0
   -1.8202   -1.0288    0.3146 N   0  0  0  0  0  0  0  0  0  0  0  0
   -2.5542   -0.5788   -0.2104 H   0  0  0  0  0  0  0  0  0  0  0  0
   -0.5102   -0.3728    0.3086 C   0  0  1  0  0  0  0  0  0  0  0  0
    0.0719   -0.7468    1.1521 H   0  0  0  0  0  0  0  0  0  0  0  0
    0.2338   -0.7427   -0.9878 C   0  0  0  0  0  0  0  0  0  0  0  0
   -0.4942   -0.8946   -1.7867 H   0  0  0  0  0  0  0  0  0  0  0  0
    0.8802    0.0881   -1.2764 H   0  0  0  0  0  0  0  0  0  0  0  0
    1.0778   -1.9849   -0.8659 C   0  0  0  0  0  0  0  0  0  0  0  0
    2.4410   -2.0666   -1.0530 N   0  0  0  0  0  0  0  0  0  0  0  0
    3.0435   -1.3223   -1.3711 H   0  0  0  0  0  0  0  0  0  0  0  0
    2.8290   -3.3150   -0.7426 C   0  0  0  0  0  0  0  0  0  0  0  0
    3.8451   -3.6863   -0.7962 H   0  0  0  0  0  0  0  0  0  0  0  0
    1.7748   -4.0447   -0.3494 N   0  0  0  0  0  0  0  0  0  0  0  0
    0.6557   -3.2117   -0.4275 C   0  0  0  0  0  0  0  0  0  0  0  0
   -0.3580   -3.4761   -0.1555 H   0  0  0  0  0  0  0  0  0  0  0  0
   -0.6600    1.1486    0.4782 C   0  0  0  0  0  0  0  0  0  0  0  0
   -1.5001    1.7648   -0.1771 O   0  0  0  0  0  0  0  0  0  0  0  0
    0.1634    1.7559    1.3418 N   0  0  0  0  0  0  0  0  0  0  0  0
    0.8618    1.1897    1.8008 H   0  0  0  0  0  0  0  0  0  0  0  0
    0.1509    3.1886    1.6256 C   0  0  0  0  0  0  0  0  0  0  0  0
   -0.8272    3.4794    2.0152 H   0  0  0  0  0  0  0  0  0  0  0  0
    0.9172    3.4314    2.3624 H   0  0  0  0  0  0  0  0  0  0  0  0
    0.3414    3.7499    0.7095 H   0  0  0  0  0  0  0  0  0  0  0  0
  5  6  2  0  0  0  0
  5  7  1  0  0  0  0
  2  3  1  0  0  0  0
  2  4  1  0  0  0  0
  2  5  1  0  0  0  0
  1  2  1  0  0  0  0
 22 23  2  0  0  0  0
 22 24  1  0  0  0  0
 20 21  1  0  0  0  0
 19 20  1  0  0  0  0
 17 18  1  0  0  0  0
 17 19  2  0  0  0  0
 15 16  1  0  0  0  0
 15 17  1  0  0  0  0
 14 15  1  0  0  0  0
 14 20  2  0  0  0  0
 11 12  1  0  0  0  0
 11 13  1  0  0  0  0
 11 14  1  0  0  0  0
  9 10  1  0  0  0  0
  9 11  1  0  0  0  0
  9 22  1  0  0  0  0
  7  8  1  0  0  0  0
  7  9  1  0  0  0  0
 26 27  1  0  0  0  0
 26 28  1  0  0  0  0
 26 29  1  0  0  0  0
 24 25  1  0  0  0  0
 24 26  1  0  0  0  0
M  END
$$$$
default_name
  -OEChem-02102213163D

 29 29  0     1  0  0  0  0  0999 V2000
   -3.6042   -3.5728    1.4576 H   0  0  0  0  0  0  0  0  0  0  0  0
   -3.5202   -2.6488    0.8866 C   0  0  0  0  0  0  0  0  0  0  0  0
   -4.2052   -1.9048    1.2896 H   0  0  0  0  0  0  0  0  0  0  0  0
   -3.7552   -2.8428   -0.1584 H   0  0  0  0  0  0  0  0  0  0  0  0
   -2.1052   -2.1358    0.9946 C   0  0  0  0  0  0  0  0  0  0  0  0
   -1.2852   -2.7288    1.6826 O   0  0  0  0  0  0  0  0  0  0  0  0
   -1.8202   -1.0288    0.3146 N   0  0  0  0  0  0  0  0  0  0  0  0
   -2.5542   -0.5788   -0.2104 H   0  0  0  0  0  0  0  0  0  0  0  0
   -0.5102   -0.3728    0.3086 C   0  0  1  0  0  0  0  0  0  0  0  0
    0.0719   -0.7468    1.1521 H   0  0  0  0  0  0  0  0  0  0  0  0
    0.2338   -0.7427   -0.9878 C   0  0  0  0  0  0  0  0  0  0  0  0
   -0.4942   -0.8946   -1.7867 H   0  0  0  0  0  0  0  0  0  0  0  0
    0.8802    0.0881   -1.2764 H   0  0  0  0  0  0  0  0  0  0  0  0
    1.0778   -1.9849   -0.8659 C   0  0  0  0  0  0  0  0  0  0  0  0
    2.4518   -2.0311   -0.7653 N   0  0  0  0  0  0  0  0  0  0  0  0
    3.0803   -1.2449   -0.8370 H   0  0  0  0  0  0  0  0  0  0  0  0
    2.8107   -3.3095   -0.5601 C   0  0  0  0  0  0  0  0  0  0  0  0
    3.8280   -3.6636   -0.4466 H   0  0  0  0  0  0  0  0  0  0  0  0
    1.7247   -4.0947   -0.5110 N   0  0  0  0  0  0  0  0  0  0  0  0
    0.6177   -3.2651   -0.7082 C   0  0  0  0  0  0  0  0  0  0  0  0
   -0.4202   -3.5719   -0.7009 H   0  0  0  0  0  0  0  0  0  0  0  0
   -0.6600    1.1486    0.4782 C   0  0  0  0  0  0  0  0  0  0  0  0
   -1.5001    1.7648   -0.1771 O   0  0  0  0  0  0  0  0  0  0  0  0
    0.1634    1.7559    1.3418 N   0  0  0  0  0  0  0  0  0  0  0  0
    0.8618    1.1897    1.8008 H   0  0  0  0  0  0  0  0  0  0  0  0
    0.1509    3.1886    1.6256 C   0  0  0  0  0  0  0  0  0  0  0  0
   -0.8272    3.4794    2.0152 H   0  0  0  0  0  0  0  0  0  0  0  0
    0.9172    3.4314    2.3624 H   0  0  0  0  0  0  0  0  0  0  0  0
    0.3414    3.7499    0.7095 H   0  0  0  0  0  0  0  0  0  0  0  0
  5  6  2  0  0  0  0
  5  7  1  0  0  0  0
  2  3  1  0  0  0  0
  2  4  1  0  0  0  0
  2  5  1  0  0  0  0
  1  2  1  0  0  0  0
 22 23  2  0  0  0  0
 22 24  1  0  0  0  0
 20 21  1  0  0  0  0
 19 20  1  0  0  0  0
 17 18  1  0  0  0  0
 17 19  2  0  0  0  0
 15 16  1  0  0  0  0
 15 17  1  0  0  0  0
 14 15  1  0  0  0  0
 14 20  2  0  0  0  0
 11 12  1  0  0  0  0
 11 13  1  0  0  0  0
 11 14  1  0  0  0  0
  9 10  1  0  0  0  0
  9 11  1  0  0  0  0
  9 22  1  0  0  0  0
  7  8  1  0  0  0  0
  7  9  1  0  0  0  0
 26 27  1  0  0  0  0
 26 28  1  0  0  0  0
 26 29  1  0  0  0  0
 24 25  1  0  0  0  0
 24 26  1  0  0  0  0
M  END
$$$$
default_name
  -OEChem-02102213163D

 29 29  0     1  0  0  0  0  0999 V2000
   -3.6042   -3.5728    1.4576 H   0  0  0  0  0  0  0  0  0  0  0  0
   -3.5202   -2.6488    0.8866 C   0  0  0  0  0  0  0  0  0  0  0  0
   -4.2052   -1.9048    1.2896 H   0  0  0  0  0  0  0  0  0  0  0  0
   -3.7552   -2.8428   -0.1584 H   0  0  0  0  0  0  0  0  0  0  0  0
   -2.1052   -2.1358    0.9946 C   0  0  0  0  0  0  0  0  0  0  0  0
   -1.2852   -2.7288    1.6826 O   0  0  0  0  0  0  0  0  0  0  0  0
   -1.8202   -1.0288    0.3146 N   0  0  0  0  0  0  0  0  0  0  0  0
   -2.5542   -0.5788   -0.2104 H   0  0  0  0  0  0  0  0  0  0  0  0
   -0.5102   -0.3728    0.3086 C   0  0  1  0  0  0  0  0  0  0  0  0
    0.0719   -0.7468    1.1521 H   0  0  0  0  0  0  0  0  0  0  0  0
    0.2338   -0.7427   -0.9878 C   0  0  0  0  0  0  0  0  0  0  0  0
   -0.4942   -0.8946   -1.7867 H   0  0  0  0  0  0  0  0  0  0  0  0
    0.8802    0.0881   -1.2764 H   0  0  0  0  0  0  0  0  0  0  0  0
    1.0778   -1.9849   -0.8659 C   0  0  0  0  0  0  0  0  0  0  0  0
    2.4000   -2.0382   -0.4800 N   0  0  0  0  0  0  0  0  0  0  0  0
    3.0002   -1.2468   -0.3020 H   0  0  0  0  0  0  0  0  0  0  0  0
    2.7540   -3.3311   -0.3871 C   0  0  0  0  0  0  0  0  0  0  0  0
    3.7365   -3.6927   -0.1093 H   0  0  0  0  0  0  0  0  0  0  0  0
    1.7117   -4.1205   -0.6850 N   0  0  0  0  0  0  0  0  0  0  0  0
    0.6420   -3.2767   -0.9951 C   0  0  0  0  0  0  0  0  0  0  0  0
   -0.3619   -3.5867   -1.2549 H   0  0  0  0  0  0  0  0  0  0  0  0
   -0.6600    1.1486    0.4782 C   0  0  0  0  0  0  0  0  0  0  0  0
   -1.5001    1.7648   -0.1771 O   0  0  0  0  0  0  0  0  0  0  0  0
    0.1634    1.7559    1.3418 N   0  0  0  0  0  0  0  0  0  0  0  0
    0.8618    1.1897    1.8008 H   0  0  0  0  0  0  0  0  0  0  0  0
    0.1509    3.1886    1.6256 C   0  0  0  0  0  0  0  0  0  0  0  0
   -0.8272    3.4794    2.0152 H   0  0  0  0  0  0  0  0  0  0  0  0
    0.9172    3.4314    2.3624 H   0  0  0  0  0  0  0  0  0  0  0  0
    0.3414    3.7499    0.7095 H   0  0  0  0  0  0  0  0  0  0  0  0
  5  6  2  0  0  0  0
  5  7  1  0  0  0  0
  2  3  1  0  0  0  0
  2  4  1  0  0  0  0
  2  5  1  0  0  0  0
  1  2  1  0  0  0  0
 22 23  2  0  0  0  0
 22 24  1  0  0  0  0
 20 21  1  0  0  0  0
 19 20  1  0  0  0  0
 17 18  1  0  0  0  0
 17 19  2  0  0  0  0
 15 16  1  0  0  0  0
 15 17  1  0  0  0  0
 14 15  1  0  0  0  0
 14 20  2  0  0  0  0
 11 12  1  0  0  0  0
 11 13  1  0  0  0  0
 11 14  1  0  0  0  0
  9 10  1  0  0  0  0
  9 11  1  0  0  0  0
  9 22  1  0  0  0  0
  7  8  1  0  0  0  0
  7  9  1  0  0  0  0
 26 27  1  0  0  0  0
 26 28  1  0  0  0  0
 26 29  1  0  0  0  0
 24 25  1  0  0  0  0
 24 26  1  0  0  0  0
M  END
$$$$
default_name
  -OEChem-02102213163D

 29 29  0     1  0  0  0  0  0999 V2000
   -3.6042   -3.5728    1.4576 H   0  0  0  0  0  0  0  0  0  0  0  0
   -3.5202   -2.6488    0.8866 C   0  0  0  0  0  0  0  0  0  0  0  0
   -4.2052   -1.9048    1.2896 H   0  0  0  0  0  0  0  0  0  0  0  0
   -3.7552   -2.8428   -0.1584 H   0  0  0  0  0  0  0  0  0  0  0  0
   -2.1052   -2.1358    0.9946 C   0  0  0  0  0  0  0  0  0  0  0  0
   -1.2852   -2.7288    1.6826 O   0  0  0  0  0  0  0  0  0  0  0  0
   -1.8202   -1.0288    0.3146 N   0  0  0  0  0  0  0  0  0  0  0  0
   -2.5542   -0.5788   -0.2104 H   0  0  0  0  0  0  0  0  0  0  0  0
   -0.5102   -0.3728    0.3086 C   0  0  1  0  0  0  0  0  0  0  0  0
    0.0719   -0.7468    1.1521 H   0  0  0  0  0  0  0  0  0  0  0  0
    0.2338   -0.7427   -0.9878 C   0  0  0  0  0  0  0  0  0  0  0  0
   -0.4942   -0.8946   -1.7867 H   0  0  0  0  0  0  0  0  0  0  0  0
    0.8802    0.0881   -1.2764 H   0  0  0  0  0  0  0  0  0  0  0  0
    1.0778   -1.9849   -0.8659 C   0  0  0  0  0  0  0  0  0  0  0  0
    2.2893   -2.0876   -0.2165 N   0  0  0  0  0  0  0  0  0  0  0  0
    2.8087   -1.3279    0.1974 H   0  0  0  0  0  0  0  0  0  0  0  0
    2.6627   -3.3781   -0.2351 C   0  0  0  0  0  0  0  0  0  0  0  0
    3.5766   -3.7716    0.1928 H   0  0  0  0  0  0  0  0  0  0  0  0
    1.7369   -4.1206   -0.8596 N   0  0  0  0  0  0  0  0  0  0  0  0
    0.7269   -3.2459   -1.2687 C   0  0  0  0  0  0  0  0  0  0  0  0
   -0.1871   -3.5194   -1.7798 H   0  0  0  0  0  0  0  0  0  0  0  0
   -0.6600    1.1486    0.4782 C   0  0  0  0  0  0  0  0  0  0  0  0
   -1.5001    1.7648   -0.1771 O   0  0  0  0  0  0  0  0  0  0  0  0
    0.1634    1.7559    1.3418 N   0  0  0  0  0  0  0  0  0  0  0  0
    0.8618    1.1897    1.8008 H   0  0  0  0  0  0  0  0  0  0  0  0
    0.1509    3.1886    1.6256 C   0  0  0  0  0  0  0  0  0  0  0  0
   -0.8272    3.4794    2.0152 H   0  0  0  0  0  0  0  0  0  0  0  0
    0.9172    3.4314    2.3624 H   0  0  0  0  0  0  0  0  0  0  0  0
    0.3414    3.7499    0.7095 H   0  0  0  0  0  0  0  0  0  0  0  0
  5  6  2  0  0  0  0
  5  7  1  0  0  0  0
  2  3  1  0  0  0  0
  2  4  1  0  0  0  0
  2  5  1  0  0  0  0
  1  2  1  0  0  0  0
 22 23  2  0  0  0  0
 22 24  1  0  0  0  0
 20 21  1  0  0  0  0
 19 20  1  0  0  0  0
 17 18  1  0  0  0  0
 17 19  2  0  0  0  0
 15 16  1  0  0  0  0
 15 17  1  0  0  0  0
 14 15  1  0  0  0  0
 14 20  2  0  0  0  0
 11 12  1  0  0  0  0
 11 13  1  0  0  0  0
 11 14  1  0  0  0  0
  9 10  1  0  0  0  0
  9 11  1  0  0  0  0
  9 22  1  0  0  0  0
  7  8  1  0  0  0  0
  7  9  1  0  0  0  0
 26 27  1  0  0  0  0
 26 28  1  0  0  0  0
 26 29  1  0  0  0  0
 24 25  1  0  0  0  0
 24 26  1  0  0  0  0
M  END
$$$$
default_name
  -OEChem-02102213163D

 29 29  0     1  0  0  0  0  0999 V2000
   -3.6042   -3.5728    1.4576 H   0  0  0  0  0  0  0  0  0  0  0  0
   -3.5202   -2.6488    0.8866 C   0  0  0  0  0  0  0  0  0  0  0  0
   -4.2052   -1.9048    1.2896 H   0  0  0  0  0  0  0  0  0  0  0  0
   -3.7552   -2.8428   -0.1584 H   0  0  0  0  0  0  0  0  0  0  0  0
   -2.1052   -2.1358    0.9946 C   0  0  0  0  0  0  0  0  0  0  0  0
   -1.2852   -2.7288    1.6826 O   0  0  0  0  0  0  0  0  0  0  0  0
   -1.8202   -1.0288    0.3146 N   0  0  0  0  0  0  0  0  0  0  0  0
   -2.5542   -0.5788   -0.2104 H   0  0  0  0  0  0  0  0  0  0  0  0
   -0.5102   -0.3728    0.3086 C   0  0  1  0  0  0  0  0  0  0  0  0
    0.0719   -0.7468    1.1521 H   0  0  0  0  0  0  0  0  0  0  0  0
    0.2338   -0.7427   -0.9878 C   0  0  0  0  0  0  0  0  0  0  0  0
   -0.4942   -0.8946   -1.7867 H   0  0  0  0  0  0  0  0  0  0  0  0
    0.8802    0.0881   -1.2764 H   0  0  0  0  0  0  0  0  0  0  0  0
    1.0778   -1.9849   -0.8659 C   0  0  0  0  0  0  0  0  0  0  0  0
    2.1272   -2.1758    0.0072 N   0  0  0  0  0  0  0  0  0  0  0  0
    2.5189   -1.4827    0.6272 H   0  0  0  0  0  0  0  0  0  0  0  0
    2.5431   -3.4476   -0.1146 C   0  0  0  0  0  0  0  0  0  0  0  0
    3.3595   -3.8950    0.4391 H   0  0  0  0  0  0  0  0  0  0  0  0
    1.7985   -4.0947   -1.0230 N   0  0  0  0  0  0  0  0  0  0  0  0
    0.8667   -3.1746   -1.5104 C   0  0  0  0  0  0  0  0  0  0  0  0
    0.0924   -3.3747   -2.2397 H   0  0  0  0  0  0  0  0  0  0  0  0
   -0.6600    1.1486    0.4782 C   0  0  0  0  0  0  0  0  0  0  0  0
   -1.5001    1.7648   -0.1771 O   0  0  0  0  0  0  0  0  0  0  0  0
    0.1634    1.7559    1.3418 N   0  0  0  0  0  0  0  0  0  0  0  0
    0.8618    1.1897    1.8008 H   0  0  0  0  0  0  0  0  0  0  0  0
    0.1509    3.1886    1.6256 C   0  0  0  0  0  0  0  0  0  0  0  0
   -0.8272    3.4794    2.0152 H   0  0  0  0  0  0  0  0  0  0  0  0
    0.9172    3.4314    2.3624 H   0  0  0  0  0  0  0  0  0  0  0  0
    0.3414    3.7499    0.7095 H   0  0  0  0  0  0  0  0  0  0  0  0
  5  6  2  0  0  0  0
  5  7  1  0  0  0  0
  2  3  1  0  0  0  0
  2  4  1  0  0  0  0
  2  5  1  0  0  0  0
  1  2  1  0  0  0  0
 22 23  2  0  0  0  0
 22 24  1  0  0  0  0
 20 21  1  0  0  0  0
 19 20  1  0  0  0  0
 17 18  1  0  0  0  0
 17 19  2  0  0  0  0
 15 16  1  0  0  0  0
 15 17  1  0  0  0  0
 14 15  1  0  0  0  0
 14 20  2  0  0  0  0
 11 12  1  0  0  0  0
 11 13  1  0  0  0  0
 11 14  1  0  0  0  0
  9 10  1  0  0  0  0
  9 11  1  0  0  0  0
  9 22  1  0  0  0  0
  7  8  1  0  0  0  0
  7  9  1  0  0  0  0
 26 27  1  0  0  0  0
 26 28  1  0  0  0  0
 26 29  1  0  0  0  0
 24 25  1  0  0  0  0
 24 26  1  0  0  0  0
M  END
$$$$
default_name
  -OEChem-02102213163D

 29 29  0     1  0  0  0  0  0999 V2000
   -3.6042   -3.5728    1.4576 H   0  0  0  0  0  0  0  0  0  0  0  0
   -3.5202   -2.6488    0.8866 C   0  0  0  0  0  0  0  0  0  0  0  0
   -4.2052   -1.9048    1.2896 H   0  0  0  0  0  0  0  0  0  0  0  0
   -3.7552   -2.8428   -0.1584 H   0  0  0  0  0  0  0  0  0  0  0  0
   -2.1052   -2.1358    0.9946 C   0  0  0  0  0  0  0  0  0  0  0  0
   -1.2852   -2.7288    1.6826 O   0  0  0  0  0  0  0  0  0  0  0  0
   -1.8202   -1.0288    0.3146 N   0  0  0  0  0  0  0  0  0  0  0  0
   -2.5542   -0.5788   -0.2104 H   0  0  0  0  0  0  0  0  0  0  0  0
   -0.5102   -0.3728    0.3086 C   0  0  1  0  0  0  0  0  0  0  0  0
    0.0719   -0.7468    1.1521 H   0  0  0  0  0  0  0  0  0  0  0  0
    0.2338   -0.7427   -0.9878 C   0  0  0  0  0  0  0  0  0  0  0  0
   -0.4942   -0.8946   -1.7867 H   0  0  0  0  0  0  0  0  0  0  0  0
    0.8802    0.0881   -1.2764 H   0  0  0  0  0  0  0  0  0  0  0  0
    1.0778   -1.9849   -0.8659 C   0  0  0  0  0  0  0  0  0  0  0  0
    1.9247   -2.2968    0.1760 N   0  0  0  0  0  0  0  0  0  0  0  0
    2.1505   -1.7005    0.9580 H   0  0  0  0  0  0  0  0  0  0  0  0
    2.4034   -3.5346   -0.0339 C   0  0  0  0  0  0  0  0  0  0  0  0
    3.0997   -4.0545    0.6127 H   0  0  0  0  0  0  0  0  0  0  0  0
    1.8923   -4.0448   -1.1638 N   0  0  0  0  0  0  0  0  0  0  0  0
    1.0518   -3.0678   -1.7037 C   0  0  0  0  0  0  0  0  0  0  0  0
    0.4574   -3.1624   -2.6033 H   0  0  0  0  0  0  0  0  0  0  0  0
   -0.6600    1.1486    0.4782 C   0  0  0  0  0  0  0  0  0  0  0  0
   -1.5001    1.7648   -0.1771 O   0  0  0  0  0  0  0  0  0  0  0  0
    0.1634    1.7559    1.3418 N   0  0  0  0  0  0  0  0  0  0  0  0
    0.8618    1.1897    1.8008 H   0  0  0  0  0  0  0  0  0  0  0  0
    0.1509    3.1886    1.6256 C   0  0  0  0  0  0  0  0  0  0  0  0
   -0.8272    3.4794    2.0152 H   0  0  0  0  0  0  0  0  0  0  0  0
    0.9172    3.4314    2.3624 H   0  0  0  0  0  0  0  0  0  0  0  0
    0.3414    3.7499    0.7095 H   0  0  0  0  0  0  0  0  0  0  0  0
  5  6  2  0  0  0  0
  5  7  1  0  0  0  0
  2  3  1  0  0  0  0
  2  4  1  0  0  0  0
  2  5  1  0  0  0  0
  1  2  1  0  0  0  0
 22 23  2  0  0  0  0
 22 24  1  0  0  0  0
 20 21  1  0  0  0  0
 19 20  1  0  0  0  0
 17 18  1  0  0  0  0
 17 19  2  0  0  0  0
 15 16  1  0  0  0  0
 15 17  1  0  0  0  0
 14 15  1  0  0  0  0
 14 20  2  0  0  0  0
 11 12  1  0  0  0  0
 11 13  1  0  0  0  0
 11 14  1  0  0  0  0
  9 10  1  0  0  0  0
  9 11  1  0  0  0  0
  9 22  1  0  0  0  0
  7  8  1  0  0  0  0
  7  9  1  0  0  0  0
 26 27  1  0  0  0  0
 26 28  1  0  0  0  0
 26 29  1  0  0  0  0
 24 25  1  0  0  0  0
 24 26  1  0  0  0  0
M  END
$$$$
default_name
  -OEChem-02102213163D

 29 29  0     1  0  0  0  0  0999 V2000
   -3.6042   -3.5728    1.4576 H   0  0  0  0  0  0  0  0  0  0  0  0
   -3.5202   -2.6488    0.8866 C   0  0  0  0  0  0  0  0  0  0  0  0
   -4.2052   -1.9048    1.2896 H   0  0  0  0  0  0  0  0  0  0  0  0
   -3.7552   -2.8428   -0.1584 H   0  0  0  0  0  0  0  0  0  0  0  0
   -2.1052   -2.1358    0.9946 C   0  0  0  0  0  0  0  0  0  0  0  0
   -1.2852   -2.7288    1.6826 O   0  0  0  0  0  0  0  0  0  0  0  0
   -1.8202   -1.0288    0.3146 N   0  0  0  0  0  0  0  0  0  0  0  0
   -2.5542   -0.5788   -0.2104 H   0  0  0  0  0  0  0  0  0  0  0  0
   -0.5102   -0.3728    0.3086 C   0  0  1  0  0  0  0  0  0  0  0  0
    0.0719   -0.7468    1.1521 H   0  0  0  0  0  0  0  0  0  0  0  0
    0.2338   -0.7427   -0.9878 C   0  0  0  0  0  0  0  0  0  0  0  0
   -0.4942   -0.8946   -1.7867 H   0  0  0  0  0  0  0  0  0  0  0  0
    0.8802    0.0881   -1.2764 H   0  0  0  0  0  0  0  0  0  0  0  0
    1.0778   -1.9849   -0.8659 C   0  0  0  0  0  0  0  0  0  0  0  0
    1.6956   -2.4424    0.2782 N   0  0  0  0  0  0  0  0  0  0  0  0
    1.7286   -1.9666    1.1674 H   0  0  0  0  0  0  0  0  0  0  0  0
    2.2530   -3.6333    0.0017 C   0  0  0  0  0  0  0  0  0  0  0  0
    2.8151   -4.2391    0.7019 H   0  0  0  0  0  0  0  0  0  0  0  0
    2.0119   -3.9742   -1.2726 N   0  0  0  0  0  0  0  0  0  0  0  0
    1.2696   -2.9328   -1.8355 C   0  0  0  0  0  0  0  0  0  0  0  0
    0.8831   -2.8970   -2.8458 H   0  0  0  0  0  0  0  0  0  0  0  0
   -0.6600    1.1486    0.4782 C   0  0  0  0  0  0  0  0  0  0  0  0
   -1.5001    1.7648   -0.1771 O   0  0  0  0  0  0  0  0  0  0  0  0
    0.1634    1.7559    1.3418 N   0  0  0  0  0  0  0  0  0  0  0  0
    0.8618    1.1897    1.8008 H   0  0  0  0  0  0  0  0  0  0  0  0
    0.1509    3.1886    1.6256 C   0  0  0  0  0  0  0  0  0  0  0  0
   -0.8272    3.4794    2.0152 H   0  0  0  0  0  0  0  0  0  0  0  0
    0.9172    3.4314    2.3624 H   0  0  0  0  0  0  0  0  0  0  0  0
    0.3414    3.7499    0.7095 H   0  0  0  0  0  0  0  0  0  0  0  0
  5  6  2  0  0  0  0
  5  7  1  0  0  0  0
  2  3  1  0  0  0  0
  2  4  1  0  0  0  0
  2  5  1  0  0  0  0
  1  2  1  0  0  0  0
 22 23  2  0  0  0  0
 22 24  1  0  0  0  0
 20 21  1  0  0  0  0
 19 20  1  0  0  0  0
 17 18  1  0  0  0  0
 17 19  2  0  0  0  0
 15 16  1  0  0  0  0
 15 17  1  0  0  0  0
 14 15  1  0  0  0  0
 14 20  2  0  0  0  0
 11 12  1  0  0  0  0
 11 13  1  0  0  0  0
 11 14  1  0  0  0  0
  9 10  1  0  0  0  0
  9 11  1  0  0  0  0
  9 22  1  0  0  0  0
  7  8  1  0  0  0  0
  7  9  1  0  0  0  0
 26 27  1  0  0  0  0
 26 28  1  0  0  0  0
 26 29  1  0  0  0  0
 24 25  1  0  0  0  0
 24 26  1  0  0  0  0
M  END
$$$$
default_name
  -OEChem-02102213163D

 29 29  0     1  0  0  0  0  0999 V2000
   -3.6042   -3.5728    1.4576 H   0  0  0  0  0  0  0  0  0  0  0  0
   -3.5202   -2.6488    0.8866 C   0  0  0  0  0  0  0  0  0  0  0  0
   -4.2052   -1.9048    1.2896 H   0  0  0  0  0  0  0  0  0  0  0  0
   -3.7552   -2.8428   -0.1584 H   0  0  0  0  0  0  0  0  0  0  0  0
   -2.1052   -2.1358    0.9946 C   0  0  0  0  0  0  0  0  0  0  0  0
   -1.2852   -2.7288    1.6826 O   0  0  0  0  0  0  0  0  0  0  0  0
   -1.8202   -1.0288    0.3146 N   0  0  0  0  0  0  0  0  0  0  0  0
   -2.5542   -0.5788   -0.2104 H   0  0  0  0  0  0  0  0  0  0  0  0
   -0.5102   -0.3728    0.3086 C   0  0  1  0  0  0  0  0  0  0  0  0
    0.0719   -0.7468    1.1521 H   0  0  0  0  0  0  0  0  0  0  0  0
    0.2338   -0.7427   -0.9878 C   0  0  0  0  0  0  0  0  0  0  0  0
   -0.4942   -0.8946   -1.7867 H   0  0  0  0  0  0  0  0  0  0  0  0
    0.8802    0.0881   -1.2764 H   0  0  0  0  0  0  0  0  0  0  0  0
    1.0778   -1.9849   -0.8659 C   0  0  0  0  0  0  0  0  0  0  0  0
    1.4555   -2.6027    0.3070 N   0  0  0  0  0  0  0  0  0  0  0  0
    1.2819   -2.2628    1.2411 H   0  0  0  0  0  0  0  0  0  0  0  0
    2.1021   -3.7370   -0.0103 C   0  0  0  0  0  0  0  0  0  0  0  0
    2.5250   -4.4363    0.7006 H   0  0  0  0  0  0  0  0  0  0  0  0
    2.1492   -3.8878   -1.3420 N   0  0  0  0  0  0  0  0  0  0  0  0
    1.5053   -2.7787   -1.8967 C   0  0  0  0  0  0  0  0  0  0  0  0
    1.3405   -2.5965   -2.9508 H   0  0  0  0  0  0  0  0  0  0  0  0
   -0.6600    1.1486    0.4782 C   0  0  0  0  0  0  0  0  0  0  0  0
   -1.5001    1.7648   -0.1771 O   0  0  0  0  0  0  0  0  0  0  0  0
    0.1634    1.7559    1.3418 N   0  0  0  0  0  0  0  0  0  0  0  0
    0.8618    1.1897    1.8008 H   0  0  0  0  0  0  0  0  0  0  0  0
    0.1509    3.1886    1.6256 C   0  0  0  0  0  0  0  0  0  0  0  0
   -0.8272    3.4794    2.0152 H   0  0  0  0  0  0  0  0  0  0  0  0
    0.9172    3.4314    2.3624 H   0  0  0  0  0  0  0  0  0  0  0  0
    0.3414    3.7499    0.7095 H   0  0  0  0  0  0  0  0  0  0  0  0
  5  6  2  0  0  0  0
  5  7  1  0  0  0  0
  2  3  1  0  0  0  0
  2  4  1  0  0  0  0
  2  5  1  0  0  0  0
  1  2  1  0  0  0  0
 22 23  2  0  0  0  0
 22 24  1  0  0  0  0
 20 21  1  0  0  0  0
 19 20  1  0  0  0  0
 17 18  1  0  0  0  0
 17 19  2  0  0  0  0
 15 16  1  0  0  0  0
 15 17  1  0  0  0  0
 14 15  1  0  0  0  0
 14 20  2  0  0  0  0
 11 12  1  0  0  0  0
 11 13  1  0  0  0  0
 11 14  1  0  0  0  0
  9 10  1  0  0  0  0
  9 11  1  0  0  0  0
  9 22  1  0  0  0  0
  7  8  1  0  0  0  0
  7  9  1  0  0  0  0
 26 27  1  0  0  0  0
 26 28  1  0  0  0  0
 26 29  1  0  0  0  0
 24 25  1  0  0  0  0
 24 26  1  0  0  0  0
M  END
$$$$
default_name
  -OEChem-02102213163D

 29 29  0     1  0  0  0  0  0999 V2000
   -3.6042   -3.5728    1.4576 H   0  0  0  0  0  0  0  0  0  0  0  0
   -3.5202   -2.6488    0.8866 C   0  0  0  0  0  0  0  0  0  0  0  0
   -4.2052   -1.9048    1.2896 H   0  0  0  0  0  0  0  0  0  0  0  0
   -3.7552   -2.8428   -0.1584 H   0  0  0  0  0  0  0  0  0  0  0  0
   -2.1052   -2.1358    0.9946 C   0  0  0  0  0  0  0  0  0  0  0  0
   -1.2852   -2.7288    1.6826 O   0  0  0  0  0  0  0  0  0  0  0  0
   -1.8202   -1.0288    0.3146 N   0  0  0  0  0  0  0  0  0  0  0  0
   -2.5542   -0.5788   -0.2104 H   0  0  0  0  0  0  0  0  0  0  0  0
   -0.5102   -0.3728    0.3086 C   0  0  1  0  0  0  0  0  0  0  0  0
    0.0719   -0.7468    1.1521 H   0  0  0  0  0  0  0  0  0  0  0  0
    0.2338   -0.7427   -0.9878 C   0  0  0  0  0  0  0  0  0  0  0  0
   -0.4942   -0.8946   -1.7867 H   0  0  0  0  0  0  0  0  0  0  0  0
    0.8802    0.0881   -1.2764 H   0  0  0  0  0  0  0  0  0  0  0  0
    1.0778   -1.9849   -0.8659 C   0  0  0  0  0  0  0  0  0  0  0  0
    1.2209   -2.7667    0.2603 N   0  0  0  0  0  0  0  0  0  0  0  0
    0.8410   -2.5689    1.1740 H   0  0  0  0  0  0  0  0  0  0  0  0
    1.9612   -3.8385   -0.0691 C   0  0  0  0  0  0  0  0  0  0  0  0
    2.2493   -4.6327    0.6088 H   0  0  0  0  0  0  0  0  0  0  0  0
    2.2948   -3.7913   -1.3671 N   0  0  0  0  0  0  0  0  0  0  0  0
    1.7427   -2.6160   -1.8832 C   0  0  0  0  0  0  0  0  0  0  0  0
    1.7985   -2.2814   -2.9110 H   0  0  0  0  0  0  0  0  0  0  0  0
   -0.6600    1.1486    0.4782 C   0  0  0  0  0  0  0  0  0  0  0  0
   -1.5001    1.7648   -0.1771 O   0  0  0  0  0  0  0  0  0  0  0  0
    0.1634    1.7559    1.3418 N   0  0  0  0  0  0  0  0  0  0  0  0
    0.8618    1.1897    1.8008 H   0  0  0  0  0  0  0  0  0  0  0  0
    0.1509    3.1886    1.6256 C   0  0  0  0  0  0  0  0  0  0  0  0
   -0.8272    3.4794    2.0152 H   0  0  0  0  0  0  0  0  0  0  0  0
    0.9172    3.4314    2.3624 H   0  0  0  0  0  0  0  0  0  0  0  0
    0.3414    3.7499    0.7095 H   0  0  0  0  0  0  0  0  0  0  0  0
  5  6  2  0  0  0  0
  5  7  1  0  0  0  0
  2  3  1  0  0  0  0
  2  4  1  0  0  0  0
  2  5  1  0  0  0  0
  1  2  1  0  0  0  0
 22 23  2  0  0  0  0
 22 24  1  0  0  0  0
 20 21  1  0  0  0  0
 19 20  1  0  0  0  0
 17 18  1  0  0  0  0
 17 19  2  0  0  0  0
 15 16  1  0  0  0  0
 15 17  1  0  0  0  0
 14 15  1  0  0  0  0
 14 20  2  0  0  0  0
 11 12  1  0  0  0  0
 11 13  1  0  0  0  0
 11 14  1  0  0  0  0
  9 10  1  0  0  0  0
  9 11  1  0  0  0  0
  9 22  1  0  0  0  0
  7  8  1  0  0  0  0
  7  9  1  0  0  0  0
 26 27  1  0  0  0  0
 26 28  1  0  0  0  0
 26 29  1  0  0  0  0
 24 25  1  0  0  0  0
 24 26  1  0  0  0  0
M  END
$$$$
default_name
  -OEChem-02102213163D

 29 29  0     1  0  0  0  0  0999 V2000
   -3.6042   -3.5728    1.4576 H   0  0  0  0  0  0  0  0  0  0  0  0
   -3.5202   -2.6488    0.8866 C   0  0  0  0  0  0  0  0  0  0  0  0
   -4.2052   -1.9048    1.2896 H   0  0  0  0  0  0  0  0  0  0  0  0
   -3.7552   -2.8428   -0.1584 H   0  0  0  0  0  0  0  0  0  0  0  0
   -2.1052   -2.1358    0.9946 C   0  0  0  0  0  0  0  0  0  0  0  0
   -1.2852   -2.7288    1.6826 O   0  0  0  0  0  0  0  0  0  0  0  0
   -1.8202   -1.0288    0.3146 N   0  0  0  0  0  0  0  0  0  0  0  0
   -2.5542   -0.5788   -0.2104 H   0  0  0  0  0  0  0  0  0  0  0  0
   -0.5102   -0.3728    0.3086 C   0  0  1  0  0  0  0  0  0  0  0  0
    0.0719   -0.7468    1.1521 H   0  0  0  0  0  0  0  0  0  0  0  0
    0.2338   -0.7427   -0.9878 C   0  0  0  0  0  0  0  0  0  0  0  0
   -0.4942   -0.8946   -1.7867 H   0  0  0  0  0  0  0  0  0  0  0  0
    0.8802    0.0881   -1.2764 H   0  0  0  0  0  0  0  0  0  0  0  0
    1.0778   -1.9849   -0.8659 C   0  0  0  0  0  0  0  0  0  0  0  0
    1.0076   -2.9232    0.1414 N   0  0  0  0  0  0  0  0  0  0  0  0
    0.4358   -2.8642    0.9707 H   0  0  0  0  0  0  0  0  0  0  0  0
    1.8397   -3.9310   -0.1707 C   0  0  0  0  0  0  0  0  0  0  0  0
    2.0066   -4.8148    0.4328 H   0  0  0  0  0  0  0  0  0  0  0  0
    2.4387   -3.6915   -1.3464 N   0  0  0  0  0  0  0  0  0  0  0  0
    1.9658   -2.4559   -1.7959 C   0  0  0  0  0  0  0  0  0  0  0  0
    2.2257   -1.9733   -2.7292 H   0  0  0  0  0  0  0  0  0  0  0  0
   -0.6600    1.1486    0.4782 C   0  0  0  0  0  0  0  0  0  0  0  0
   -1.5001    1.7648   -0.1771 O   0  0  0  0  0  0  0  0  0  0  0  0
    0.1634    1.7559    1.3418 N   0  0  0  0  0  0  0  0  0  0  0  0
    0.8618    1.1897    1.8008 H   0  0  0  0  0  0  0  0  0  0  0  0
    0.1509    3.1886    1.6256 C   0  0  0  0  0  0  0  0  0  0  0  0
   -0.8272    3.4794    2.0152 H   0  0  0  0  0  0  0  0  0  0  0  0
    0.9172    3.4314    2.3624 H   0  0  0  0  0  0  0  0  0  0  0  0
    0.3414    3.7499    0.7095 H   0  0  0  0  0  0  0  0  0  0  0  0
  5  6  2  0  0  0  0
  5  7  1  0  0  0  0
  2  3  1  0  0  0  0
  2  4  1  0  0  0  0
  2  5  1  0  0  0  0
  1  2  1  0  0  0  0
 22 23  2  0  0  0  0
 22 24  1  0  0  0  0
 20 21  1  0  0  0  0
 19 20  1  0  0  0  0
 17 18  1  0  0  0  0
 17 19  2  0  0  0  0
 15 16  1  0  0  0  0
 15 17  1  0  0  0  0
 14 15  1  0  0  0  0
 14 20  2  0  0  0  0
 11 12  1  0  0  0  0
 11 13  1  0  0  0  0
 11 14  1  0  0  0  0
  9 10  1  0  0  0  0
  9 11  1  0  0  0  0
  9 22  1  0  0  0  0
  7  8  1  0  0  0  0
  7  9  1  0  0  0  0
 26 27  1  0  0  0  0
 26 28  1  0  0  0  0
 26 29  1  0  0  0  0
 24 25  1  0  0  0  0
 24 26  1  0  0  0  0
M  END
$$$$
default_name
  -OEChem-02102213163D

 29 29  0     1  0  0  0  0  0999 V2000
   -3.6042   -3.5728    1.4576 H   0  0  0  0  0  0  0  0  0  0  0  0
   -3.5202   -2.6488    0.8866 C   0  0  0  0  0  0  0  0  0  0  0  0
   -4.2052   -1.9048    1.2896 H   0  0  0  0  0  0  0  0  0  0  0  0
   -3.7552   -2.8428   -0.1584 H   0  0  0  0  0  0  0  0  0  0  0  0
   -2.1052   -2.1358    0.9946 C   0  0  0  0  0  0  0  0  0  0  0  0
   -1.2852   -2.7288    1.6826 O   0  0  0  0  0  0  0  0  0  0  0  0
   -1.8202   -1.0288    0.3146 N   0  0  0  0  0  0  0  0  0  0  0  0
   -2.5542   -0.5788   -0.2104 H   0  0  0  0  0  0  0  0  0  0  0  0
   -0.5102   -0.3728    0.3086 C   0  0  1  0  0  0  0  0  0  0  0  0
    0.0719   -0.7468    1.1521 H   0  0  0  0  0  0  0  0  0  0  0  0
    0.2338   -0.7427   -0.9878 C   0  0  0  0  0  0  0  0  0  0  0  0
   -0.4942   -0.8946   -1.7867 H   0  0  0  0  0  0  0  0  0  0  0  0
    0.8802    0.0881   -1.2764 H   0  0  0  0  0  0  0  0  0  0  0  0
    1.0778   -1.9849   -0.8659 C   0  0  0  0  0  0  0  0  0  0  0  0
    0.8303   -3.0617   -0.0417 N   0  0  0  0  0  0  0  0  0  0  0  0
    0.0940   -3.1284    0.6451 H   0  0  0  0  0  0  0  0  0  0  0  0
    1.7460   -4.0082   -0.3082 C   0  0  0  0  0  0  0  0  0  0  0  0
    1.8135   -4.9703    0.1846 H   0  0  0  0  0  0  0  0  0  0  0  0
    2.5713   -3.5950   -1.2811 N   0  0  0  0  0  0  0  0  0  0  0  0
    2.1594   -2.3092   -1.6408 C   0  0  0  0  0  0  0  0  0  0  0  0
    2.5932   -1.6931   -2.4178 H   0  0  0  0  0  0  0  0  0  0  0  0
   -0.6600    1.1486    0.4782 C   0  0  0  0  0  0  0  0  0  0  0  0
   -1.5001    1.7648   -0.1771 O   0  0  0  0  0  0  0  0  0  0  0  0
    0.1634    1.7559    1.3418 N   0  0  0  0  0  0  0  0  0  0  0  0
    0.8618    1.1897    1.8008 H   0  0  0  0  0  0  0  0  0  0  0  0
    0.1509    3.1886    1.6256 C   0  0  0  0  0  0  0  0  0  0  0  0
   -0.8272    3.4794    2.0152 H   0  0  0  0  0  0  0  0  0  0  0  0
    0.9172    3.4314    2.3624 H   0  0  0  0  0  0  0  0  0  0  0  0
    0.3414    3.7499    0.7095 H   0  0  0  0  0  0  0  0  0  0  0  0
  5  6  2  0  0  0  0
  5  7  1  0  0  0  0
  2  3  1  0  0  0  0
  2  4  1  0  0  0  0
  2  5  1  0  0  0  0
  1  2  1  0  0  0  0
 22 23  2  0  0  0  0
 22 24  1  0  0  0  0
 20 21  1  0  0  0  0
 19 20  1  0  0  0  0
 17 18  1  0  0  0  0
 17 19  2  0  0  0  0
 15 16  1  0  0  0  0
 15 17  1  0  0  0  0
 14 15  1  0  0  0  0
 14 20  2  0  0  0  0
 11 12  1  0  0  0  0
 11 13  1  0  0  0  0
 11 14  1  0  0  0  0
  9 10  1  0  0  0  0
  9 11  1  0  0  0  0
  9 22  1  0  0  0  0
  7  8  1  0  0  0  0
  7  9  1  0  0  0  0
 26 27  1  0  0  0  0
 26 28  1  0  0  0  0
 26 29  1  0  0  0  0
 24 25  1  0  0  0  0
 24 26  1  0  0  0  0
M  END
$$$$
default_name
  -OEChem-02102213163D

 29 29  0     1  0  0  0  0  0999 V2000
   -3.6042   -3.5728    1.4576 H   0  0  0  0  0  0  0  0  0  0  0  0
   -3.5202   -2.6488    0.8866 C   0  0  0  0  0  0  0  0  0  0  0  0
   -4.2052   -1.9048    1.2896 H   0  0  0  0  0  0  0  0  0  0  0  0
   -3.7552   -2.8428   -0.1584 H   0  0  0  0  0  0  0  0  0  0  0  0
   -2.1052   -2.1358    0.9946 C   0  0  0  0  0  0  0  0  0  0  0  0
   -1.2852   -2.7288    1.6826 O   0  0  0  0  0  0  0  0  0  0  0  0
   -1.8202   -1.0288    0.3146 N   0  0  0  0  0  0  0  0  0  0  0  0
   -2.5542   -0.5788   -0.2104 H   0  0  0  0  0  0  0  0  0  0  0  0
   -0.5102   -0.3728    0.3086 C   0  0  1  0  0  0  0  0  0  0  0  0
    0.0719   -0.7468    1.1521 H   0  0  0  0  0  0  0  0  0  0  0  0
    0.2338   -0.7427   -0.9878 C   0  0  0  0  0  0  0  0  0  0  0  0
   -0.4942   -0.8946   -1.7867 H   0  0  0  0  0  0  0  0  0  0  0  0
    0.8802    0.0881   -1.2764 H   0  0  0  0  0  0  0  0  0  0  0  0
    1.0778   -1.9849   -0.8659 C   0  0  0  0  0  0  0  0  0  0  0  0
    0.7010   -3.1726   -0.2764 N   0  0  0  0  0  0  0  0  0  0  0  0
   -0.1611   -3.3435    0.2193 H   0  0  0  0  0  0  0  0  0  0  0  0
    1.6864   -4.0647   -0.4722 C   0  0  0  0  0  0  0  0  0  0  0  0
    1.6833   -5.0886   -0.1188 H   0  0  0  0  0  0  0  0  0  0  0  0
    2.6834   -3.5085   -1.1759 N   0  0  0  0  0  0  0  0  0  0  0  0
    2.3101   -2.1859   -1.4284 C   0  0  0  0  0  0  0  0  0  0  0  0
    2.8758   -1.4599   -1.9979 H   0  0  0  0  0  0  0  0  0  0  0  0
   -0.6600    1.1486    0.4782 C   0  0  0  0  0  0  0  0  0  0  0  0
   -1.5001    1.7648   -0.1771 O   0  0  0  0  0  0  0  0  0  0  0  0
    0.1634    1.7559    1.3418 N   0  0  0  0  0  0  0  0  0  0  0  0
    0.8618    1.1897    1.8008 H   0  0  0  0  0  0  0  0  0  0  0  0
    0.1509    3.1886    1.6256 C   0  0  0  0  0  0  0  0  0  0  0  0
   -0.8272    3.4794    2.0152 H   0  0  0  0  0  0  0  0  0  0  0  0
    0.9172    3.4314    2.3624 H   0  0  0  0  0  0  0  0  0  0  0  0
    0.3414    3.7499    0.7095 H   0  0  0  0  0  0  0  0  0  0  0  0
  5  6  2  0  0  0  0
  5  7  1  0  0  0  0
  2  3  1  0  0  0  0
  2  4  1  0  0  0  0
  2  5  1  0  0  0  0
  1  2  1  0  0  0  0
 22 23  2  0  0  0  0
 22 24  1  0  0  0  0
 20 21  1  0  0  0  0
 19 20  1  0  0  0  0
 17 18  1  0  0  0  0
 17 19  2  0  0  0  0
 15 16  1  0  0  0  0
 15 17  1  0  0  0  0
 14 15  1  0  0  0  0
 14 20  2  0  0  0  0
 11 12  1  0  0  0  0
 11 13  1  0  0  0  0
 11 14  1  0  0  0  0
  9 10  1  0  0  0  0
  9 11  1  0  0  0  0
  9 22  1  0  0  0  0
  7  8  1  0  0  0  0
  7  9  1  0  0  0  0
 26 27  1  0  0  0  0
 26 28  1  0  0  0  0
 26 29  1  0  0  0  0
 24 25  1  0  0  0  0
 24 26  1  0  0  0  0
M  END
$$$$
default_name
  -OEChem-02102213163D

 29 29  0     1  0  0  0  0  0999 V2000
   -3.6042   -3.5728    1.4576 H   0  0  0  0  0  0  0  0  0  0  0  0
   -3.5202   -2.6488    0.8866 C   0  0  0  0  0  0  0  0  0  0  0  0
   -4.2052   -1.9048    1.2896 H   0  0  0  0  0  0  0  0  0  0  0  0
   -3.7552   -2.8428   -0.1584 H   0  0  0  0  0  0  0  0  0  0  0  0
   -2.1052   -2.1358    0.9946 C   0  0  0  0  0  0  0  0  0  0  0  0
   -1.2852   -2.7288    1.6826 O   0  0  0  0  0  0  0  0  0  0  0  0
   -1.8202   -1.0288    0.3146 N   0  0  0  0  0  0  0  0  0  0  0  0
   -2.5542   -0.5788   -0.2104 H   0  0  0  0  0  0  0  0  0  0  0  0
   -0.5102   -0.3728    0.3086 C   0  0  1  0  0  0  0  0  0  0  0  0
    0.0719   -0.7468    1.1521 H   0  0  0  0  0  0  0  0  0  0  0  0
    0.2338   -0.7427   -0.9878 C   0  0  0  0  0  0  0  0  0  0  0  0
   -0.4942   -0.8946   -1.7867 H   0  0  0  0  0  0  0  0  0  0  0  0
    0.8802    0.0881   -1.2764 H   0  0  0  0  0  0  0  0  0  0  0  0
    1.0778   -1.9849   -0.8659 C   0  0  0  0  0  0  0  0  0  0  0  0
    0.6285   -3.2484   -0.5468 N   0  0  0  0  0  0  0  0  0  0  0  0
   -0.3122   -3.4949   -0.2775 H   0  0  0  0  0  0  0  0  0  0  0  0
    1.6651   -4.0968   -0.6515 C   0  0  0  0  0  0  0  0  0  0  0  0
    1.6247   -5.1616   -0.4569 H   0  0  0  0  0  0  0  0  0  0  0  0
    2.7674   -3.4379   -1.0377 N   0  0  0  0  0  0  0  0  0  0  0  0
    2.4078   -2.0945   -1.1732 C   0  0  0  0  0  0  0  0  0  0  0  0
    3.0543   -1.2896   -1.4982 H   0  0  0  0  0  0  0  0  0  0  0  0
   -0.6600    1.1486    0.4782 C   0  0  0  0  0  0  0  0  0  0  0  0
   -1.5001    1.7648   -0.1771 O   0  0  0  0  0  0  0  0  0  0  0  0
    0.1634    1.7559    1.3418 N   0  0  0  0  0  0  0  0  0  0  0  0
    0.8618    1.1897    1.8008 H   0  0  0  0  0  0  0  0  0  0  0  0
    0.1509    3.1886    1.6256 C   0  0  0  0  0  0  0  0  0  0  0  0
   -0.8272    3.4794    2.0152 H   0  0  0  0  0  0  0  0  0  0  0  0
    0.9172    3.4314    2.3624 H   0  0  0  0  0  0  0  0  0  0  0  0
    0.3414    3.7499    0.7095 H   0  0  0  0  0  0  0  0  0  0  0  0
  5  6  2  0  0  0  0
  5  7  1  0  0  0  0
  2  3  1  0  0  0  0
  2  4  1  0  0  0  0
  2  5  1  0  0  0  0
  1  2  1  0  0  0  0
 22 23  2  0  0  0  0
 22 24  1  0  0  0  0
 20 21  1  0  0  0  0
 19 20  1  0  0  0  0
 17 18  1  0  0  0  0
 17 19  2  0  0  0  0
 15 16  1  0  0  0  0
 15 17  1  0  0  0  0
 14 15  1  0  0  0  0
 14 20  2  0  0  0  0
 11 12  1  0  0  0  0
 11 13  1  0  0  0  0
 11 14  1  0  0  0  0
  9 10  1  0  0  0  0
  9 11  1  0  0  0  0
  9 22  1  0  0  0  0
  7  8  1  0  0  0  0
  7  9  1  0  0  0  0
 26 27  1  0  0  0  0
 26 28  1  0  0  0  0
 26 29  1  0  0  0  0
 24 25  1  0  0  0  0
 24 26  1  0  0  0  0
M  END
$$$$
default_name
  -OEChem-02102213163D

 29 29  0     1  0  0  0  0  0999 V2000
   -3.6042   -3.5728    1.4576 H   0  0  0  0  0  0  0  0  0  0  0  0
   -3.5202   -2.6488    0.8866 C   0  0  0  0  0  0  0  0  0  0  0  0
   -4.2052   -1.9048    1.2896 H   0  0  0  0  0  0  0  0  0  0  0  0
   -3.7552   -2.8428   -0.1584 H   0  0  0  0  0  0  0  0  0  0  0  0
   -2.1052   -2.1358    0.9946 C   0  0  0  0  0  0  0  0  0  0  0  0
   -1.2852   -2.7288    1.6826 O   0  0  0  0  0  0  0  0  0  0  0  0
   -1.8202   -1.0288    0.3146 N   0  0  0  0  0  0  0  0  0  0  0  0
   -2.5542   -0.5788   -0.2104 H   0  0  0  0  0  0  0  0  0  0  0  0
   -0.5102   -0.3728    0.3086 C   0  0  1  0  0  0  0  0  0  0  0  0
    0.0719   -0.7468    1.1521 H   0  0  0  0  0  0  0  0  0  0  0  0
    0.2338   -0.7427   -0.9878 C   0  0  0  0  0  0  0  0  0  0  0  0
   -0.4942   -0.8946   -1.7867 H   0  0  0  0  0  0  0  0  0  0  0  0
    0.8802    0.0881   -1.2764 H   0  0  0  0  0  0  0  0  0  0  0  0
    1.0778   -1.9849   -0.8659 C   0  0  0  0  0  0  0  0  0  0  0  0
    0.6177   -3.2839   -0.8345 N   0  0  0  0  0  0  0  0  0  0  0  0
   -0.3490   -3.5723   -0.8117 H   0  0  0  0  0  0  0  0  0  0  0  0
    1.6834   -4.1023   -0.8339 C   0  0  0  0  0  0  0  0  0  0  0  0
    1.6418   -5.1843   -0.8065 H   0  0  0  0  0  0  0  0  0  0  0  0
    2.8175   -3.3880   -0.8761 N   0  0  0  0  0  0  0  0  0  0  0  0
    2.4458   -2.0411   -0.8925 C   0  0  0  0  0  0  0  0  0  0  0  0
    3.1165   -1.1938   -0.9528 H   0  0  0  0  0  0  0  0  0  0  0  0
   -0.6600    1.1486    0.4782 C   0  0  0  0  0  0  0  0  0  0  0  0
   -1.5001    1.7648   -0.1771 O   0  0  0  0  0  0  0  0  0  0  0  0
    0.1634    1.7559    1.3418 N   0  0  0  0  0  0  0  0  0  0  0  0
    0.8618    1.1897    1.8008 H   0  0  0  0  0  0  0  0  0  0  0  0
    0.1509    3.1886    1.6256 C   0  0  0  0  0  0  0  0  0  0  0  0
   -0.8272    3.4794    2.0152 H   0  0  0  0  0  0  0  0  0  0  0  0
    0.9172    3.4314    2.3624 H   0  0  0  0  0  0  0  0  0  0  0  0
    0.3414    3.7499    0.7095 H   0  0  0  0  0  0  0  0  0  0  0  0
  5  6  2  0  0  0  0
  5  7  1  0  0  0  0
  2  3  1  0  0  0  0
  2  4  1  0  0  0  0
  2  5  1  0  0  0  0
  1  2  1  0  0  0  0
 22 23  2  0  0  0  0
 22 24  1  0  0  0  0
 20 21  1  0  0  0  0
 19 20  1  0  0  0  0
 17 18  1  0  0  0  0
 17 19  2  0  0  0  0
 15 16  1  0  0  0  0
 15 17  1  0  0  0  0
 14 15  1  0  0  0  0
 14 20  2  0  0  0  0
 11 12  1  0  0  0  0
 11 13  1  0  0  0  0
 11 14  1  0  0  0  0
  9 10  1  0  0  0  0
  9 11  1  0  0  0  0
  9 22  1  0  0  0  0
  7  8  1  0  0  0  0
  7  9  1  0  0  0  0
 26 27  1  0  0  0  0
 26 28  1  0  0  0  0
 26 29  1  0  0  0  0
 24 25  1  0  0  0  0
 24 26  1  0  0  0  0
M  END
$$$$
default_name
  -OEChem-02102213163D

 29 29  0     1  0  0  0  0  0999 V2000
   -3.6042   -3.5728    1.4576 H   0  0  0  0  0  0  0  0  0  0  0  0
   -3.5202   -2.6488    0.8866 C   0  0  0  0  0  0  0  0  0  0  0  0
   -4.2052   -1.9048    1.2896 H   0  0  0  0  0  0  0  0  0  0  0  0
   -3.7552   -2.8428   -0.1584 H   0  0  0  0  0  0  0  0  0  0  0  0
   -2.1052   -2.1358    0.9946 C   0  0  0  0  0  0  0  0  0  0  0  0
   -1.2852   -2.7288    1.6826 O   0  0  0  0  0  0  0  0  0  0  0  0
   -1.8202   -1.0288    0.3146 N   0  0  0  0  0  0  0  0  0  0  0  0
   -2.5542   -0.5788   -0.2104 H   0  0  0  0  0  0  0  0  0  0  0  0
   -0.5102   -0.3728    0.3086 C   0  0  1  0  0  0  0  0  0  0  0  0
    0.0719   -0.7468    1.1521 H   0  0  0  0  0  0  0  0  0  0  0  0
    0.2338   -0.7427   -0.9878 C   0  0  0  0  0  0  0  0  0  0  0  0
   -0.4942   -0.8946   -1.7867 H   0  0  0  0  0  0  0  0  0  0  0  0
    0.8802    0.0881   -1.2764 H   0  0  0  0  0  0  0  0  0  0  0  0
    1.0778   -1.9849   -0.8659 C   0  0  0  0  0  0  0  0  0  0  0  0
    0.6695   -3.2768   -1.1198 N   0  0  0  0  0  0  0  0  0  0  0  0
   -0.2689   -3.5704   -1.3467 H   0  0  0  0  0  0  0  0  0  0  0  0
    1.7401   -4.0807   -1.0070 C   0  0  0  0  0  0  0  0  0  0  0  0
    1.7333   -5.1552   -1.1438 H   0  0  0  0  0  0  0  0  0  0  0  0
    2.8305   -3.3621   -0.7021 N   0  0  0  0  0  0  0  0  0  0  0  0
    2.4215   -2.0295   -0.6056 C   0  0  0  0  0  0  0  0  0  0  0  0
    3.0582   -1.1790   -0.3988 H   0  0  0  0  0  0  0  0  0  0  0  0
   -0.6600    1.1486    0.4782 C   0  0  0  0  0  0  0  0  0  0  0  0
   -1.5001    1.7648   -0.1771 O   0  0  0  0  0  0  0  0  0  0  0  0
    0.1634    1.7559    1.3418 N   0  0  0  0  0  0  0  0  0  0  0  0
    0.8618    1.1897    1.8008 H   0  0  0  0  0  0  0  0  0  0  0  0
    0.1509    3.1886    1.6256 C   0  0  0  0  0  0  0  0  0  0  0  0
   -0.8272    3.4794    2.0152 H   0  0  0  0  0  0  0  0  0  0  0  0
    0.9172    3.4314    2.3624 H   0  0  0  0  0  0  0  0  0  0  0  0
    0.3414    3.7499    0.7095 H   0  0  0  0  0  0  0  0  0  0  0  0
  5  6  2  0  0  0  0
  5  7  1  0  0  0  0
  2  3  1  0  0  0  0
  2  4  1  0  0  0  0
  2  5  1  0  0  0  0
  1  2  1  0  0  0  0
 22 23  2  0  0  0  0
 22 24  1  0  0  0  0
 20 21  1  0  0  0  0
 19 20  1  0  0  0  0
 17 18  1  0  0  0  0
 17 19  2  0  0  0  0
 15 16  1  0  0  0  0
 15 17  1  0  0  0  0
 14 15  1  0  0  0  0
 14 20  2  0  0  0  0
 11 12  1  0  0  0  0
 11 13  1  0  0  0  0
 11 14  1  0  0  0  0
  9 10  1  0  0  0  0
  9 11  1  0  0  0  0
  9 22  1  0  0  0  0
  7  8  1  0  0  0  0
  7  9  1  0  0  0  0
 26 27  1  0  0  0  0
 26 28  1  0  0  0  0
 26 29  1  0  0  0  0
 24 25  1  0  0  0  0
 24 26  1  0  0  0  0
M  END
$$$$
default_name
  -OEChem-02102213163D

 29 29  0     1  0  0  0  0  0999 V2000
   -3.6042   -3.5728    1.4576 H   0  0  0  0  0  0  0  0  0  0  0  0
   -3.5202   -2.6488    0.8866 C   0  0  0  0  0  0  0  0  0  0  0  0
   -4.2052   -1.9048    1.2896 H   0  0  0  0  0  0  0  0  0  0  0  0
   -3.7552   -2.8428   -0.1584 H   0  0  0  0  0  0  0  0  0  0  0  0
   -2.1052   -2.1358    0.9946 C   0  0  0  0  0  0  0  0  0  0  0  0
   -1.2852   -2.7288    1.6826 O   0  0  0  0  0  0  0  0  0  0  0  0
   -1.8202   -1.0288    0.3146 N   0  0  0  0  0  0  0  0  0  0  0  0
   -2.5542   -0.5788   -0.2104 H   0  0  0  0  0  0  0  0  0  0  0  0
   -0.5102   -0.3728    0.3086 C   0  0  1  0  0  0  0  0  0  0  0  0
    0.0719   -0.7468    1.1521 H   0  0  0  0  0  0  0  0  0  0  0  0
    0.2338   -0.7427   -0.9878 C   0  0  0  0  0  0  0  0  0  0  0  0
   -0.4942   -0.8946   -1.7867 H   0  0  0  0  0  0  0  0  0  0  0  0
    0.8802    0.0881   -1.2764 H   0  0  0  0  0  0  0  0  0  0  0  0
    1.0778   -1.9849   -0.8659 C   0  0  0  0  0  0  0  0  0  0  0  0
    0.7802   -3.2274   -1.3833 N   0  0  0  0  0  0  0  0  0  0  0  0
   -0.0774   -3.4893   -1.8461 H   0  0  0  0  0  0  0  0  0  0  0  0
    1.8314   -4.0337   -1.1589 C   0  0  0  0  0  0  0  0  0  0  0  0
    1.8932   -5.0763   -1.4459 H   0  0  0  0  0  0  0  0  0  0  0  0
    2.8053   -3.3621   -0.5274 N   0  0  0  0  0  0  0  0  0  0  0  0
    2.3366   -2.0603   -0.3320 C   0  0  0  0  0  0  0  0  0  0  0  0
    2.8834   -1.2463    0.1260 H   0  0  0  0  0  0  0  0  0  0  0  0
   -0.6600    1.1486    0.4782 C   0  0  0  0  0  0  0  0  0  0  0  0
   -1.5001    1.7648   -0.1771 O   0  0  0  0  0  0  0  0  0  0  0  0
    0.1634    1.7559    1.3418 N   0  0  0  0  0  0  0  0  0  0  0  0
    0.8618    1.1897    1.8008 H   0  0  0  0  0  0  0  0  0  0  0  0
    0.1509    3.1886    1.6256 C   0  0  0  0  0  0  0  0  0  0  0  0
   -0.8272    3.4794    2.0152 H   0  0  0  0  0  0  0  0  0  0  0  0
    0.9172    3.4314    2.3624 H   0  0  0  0  0  0  0  0  0  0  0  0
    0.3414    3.7499    0.7095 H   0  0  0  0  0  0  0  0  0  0  0  0
  5  6  2  0  0  0  0
  5  7  1  0  0  0  0
  2  3  1  0  0  0  0
  2  4  1  0  0  0  0
  2  5  1  0  0  0  0
  1  2  1  0  0  0  0
 22 23  2  0  0  0  0
 22 24  1  0  0  0  0
 20 21  1  0  0  0  0
 19 20  1  0  0  0  0
 17 18  1  0  0  0  0
 17 19  2  0  0  0  0
 15 16  1  0  0  0  0
 15 17  1  0  0  0  0
 14 15  1  0  0  0  0
 14 20  2  0  0  0  0
 11 12  1  0  0  0  0
 11 13  1  0  0  0  0
 11 14  1  0  0  0  0
  9 10  1  0  0  0  0
  9 11  1  0  0  0  0
  9 22  1  0  0  0  0
  7  8  1  0  0  0  0
  7  9  1  0  0  0  0
 26 27  1  0  0  0  0
 26 28  1  0  0  0  0
 26 29  1  0  0  0  0
 24 25  1  0  0  0  0
 24 26  1  0  0  0  0
M  END
$$$$
default_name
  -OEChem-02102213163D

 29 29  0     1  0  0  0  0  0999 V2000
   -3.6042   -3.5728    1.4576 H   0  0  0  0  0  0  0  0  0  0  0  0
   -3.5202   -2.6488    0.8866 C   0  0  0  0  0  0  0  0  0  0  0  0
   -4.2052   -1.9048    1.2896 H   0  0  0  0  0  0  0  0  0  0  0  0
   -3.7552   -2.8428   -0.1584 H   0  0  0  0  0  0  0  0  0  0  0  0
   -2.1052   -2.1358    0.9946 C   0  0  0  0  0  0  0  0  0  0  0  0
   -1.2852   -2.7288    1.6826 O   0  0  0  0  0  0  0  0  0  0  0  0
   -1.8202   -1.0288    0.3146 N   0  0  0  0  0  0  0  0  0  0  0  0
   -2.5542   -0.5788   -0.2104 H   0  0  0  0  0  0  0  0  0  0  0  0
   -0.5102   -0.3728    0.3086 C   0  0  1  0  0  0  0  0  0  0  0  0
    0.0719   -0.7468    1.1521 H   0  0  0  0  0  0  0  0  0  0  0  0
    0.2338   -0.7427   -0.9878 C   0  0  0  0  0  0  0  0  0  0  0  0
   -0.4942   -0.8946   -1.7867 H   0  0  0  0  0  0  0  0  0  0  0  0
    0.8802    0.0881   -1.2764 H   0  0  0  0  0  0  0  0  0  0  0  0
    1.0778   -1.9849   -0.8659 C   0  0  0  0  0  0  0  0  0  0  0  0
    0.9423   -3.1392   -1.6071 N   0  0  0  0  0  0  0  0  0  0  0  0
    0.2124   -3.3346   -2.2759 H   0  0  0  0  0  0  0  0  0  0  0  0
    1.9510   -3.9642   -1.2794 C   0  0  0  0  0  0  0  0  0  0  0  0
    2.1103   -4.9529   -1.6922 H   0  0  0  0  0  0  0  0  0  0  0  0
    2.7437   -3.3879   -0.3641 N   0  0  0  0  0  0  0  0  0  0  0  0
    2.1968   -2.1315   -0.0903 C   0  0  0  0  0  0  0  0  0  0  0  0
    2.6039   -1.3910    0.5859 H   0  0  0  0  0  0  0  0  0  0  0  0
   -0.6600    1.1486    0.4782 C   0  0  0  0  0  0  0  0  0  0  0  0
   -1.5001    1.7648   -0.1771 O   0  0  0  0  0  0  0  0  0  0  0  0
    0.1634    1.7559    1.3418 N   0  0  0  0  0  0  0  0  0  0  0  0
    0.8618    1.1897    1.8008 H   0  0  0  0  0  0  0  0  0  0  0  0
    0.1509    3.1886    1.6256 C   0  0  0  0  0  0  0  0  0  0  0  0
   -0.8272    3.4794    2.0152 H   0  0  0  0  0  0  0  0  0  0  0  0
    0.9172    3.4314    2.3624 H   0  0  0  0  0  0  0  0  0  0  0  0
    0.3414    3.7499    0.7095 H   0  0  0  0  0  0  0  0  0  0  0  0
  5  6  2  0  0  0  0
  5  7  1  0  0  0  0
  2  3  1  0  0  0  0
  2  4  1  0  0  0  0
  2  5  1  0  0  0  0
  1  2  1  0  0  0  0
 22 23  2  0  0  0  0
 22 24  1  0  0  0  0
 20 21  1  0  0  0  0
 19 20  1  0  0  0  0
 17 18  1  0  0  0  0
 17 19  2  0  0  0  0
 15 16  1  0  0  0  0
 15 17  1  0  0  0  0
 14 15  1  0  0  0  0
 14 20  2  0  0  0  0
 11 12  1  0  0  0  0
 11 13  1  0  0  0  0
 11 14  1  0  0  0  0
  9 10  1  0  0  0  0
  9 11  1  0  0  0  0
  9 22  1  0  0  0  0
  7  8  1  0  0  0  0
  7  9  1  0  0  0  0
 26 27  1  0  0  0  0
 26 28  1  0  0  0  0
 26 29  1  0  0  0  0
 24 25  1  0  0  0  0
 24 26  1  0  0  0  0
M  END
$$$$
default_name
  -OEChem-02102213163D

 29 29  0     1  0  0  0  0  0999 V2000
   -3.6042   -3.5728    1.4576 H   0  0  0  0  0  0  0  0  0  0  0  0
   -3.5202   -2.6488    0.8866 C   0  0  0  0  0  0  0  0  0  0  0  0
   -4.2052   -1.9048    1.2896 H   0  0  0  0  0  0  0  0  0  0  0  0
   -3.7552   -2.8428   -0.1584 H   0  0  0  0  0  0  0  0  0  0  0  0
   -2.1052   -2.1358    0.9946 C   0  0  0  0  0  0  0  0  0  0  0  0
   -1.2852   -2.7288    1.6826 O   0  0  0  0  0  0  0  0  0  0  0  0
   -1.8202   -1.0288    0.3146 N   0  0  0  0  0  0  0  0  0  0  0  0
   -2.5542   -0.5788   -0.2104 H   0  0  0  0  0  0  0  0  0  0  0  0
   -0.5102   -0.3728    0.3086 C   0  0  1  0  0  0  0  0  0  0  0  0
    0.0719   -0.7468    1.1521 H   0  0  0  0  0  0  0  0  0  0  0  0
    0.2338   -0.7427   -0.9878 C   0  0  0  0  0  0  0  0  0  0  0  0
   -0.4942   -0.8946   -1.7867 H   0  0  0  0  0  0  0  0  0  0  0  0
    0.8802    0.0881   -1.2764 H   0  0  0  0  0  0  0  0  0  0  0  0
    1.0778   -1.9849   -0.8659 C   0  0  0  0  0  0  0  0  0  0  0  0
    1.1448   -3.0182   -1.7758 N   0  0  0  0  0  0  0  0  0  0  0  0
    0.5808   -3.1168   -2.6067 H   0  0  0  0  0  0  0  0  0  0  0  0
    2.0907   -3.8772   -1.3602 C   0  0  0  0  0  0  0  0  0  0  0  0
    2.3701   -4.7934   -1.8658 H   0  0  0  0  0  0  0  0  0  0  0  0
    2.6499   -3.4378   -0.2233 N   0  0  0  0  0  0  0  0  0  0  0  0
    2.0117   -2.2383    0.1030 C   0  0  0  0  0  0  0  0  0  0  0  0
    2.2389   -1.6033    0.9495 H   0  0  0  0  0  0  0  0  0  0  0  0
   -0.6600    1.1486    0.4782 C   0  0  0  0  0  0  0  0  0  0  0  0
   -1.5001    1.7648   -0.1771 O   0  0  0  0  0  0  0  0  0  0  0  0
    0.1634    1.7559    1.3418 N   0  0  0  0  0  0  0  0  0  0  0  0
    0.8618    1.1897    1.8008 H   0  0  0  0  0  0  0  0  0  0  0  0
    0.1509    3.1886    1.6256 C   0  0  0  0  0  0  0  0  0  0  0  0
   -0.8272    3.4794    2.0152 H   0  0  0  0  0  0  0  0  0  0  0  0
    0.9172    3.4314    2.3624 H   0  0  0  0  0  0  0  0  0  0  0  0
    0.3414    3.7499    0.7095 H   0  0  0  0  0  0  0  0  0  0  0  0
  5  6  2  0  0  0  0
  5  7  1  0  0  0  0
  2  3  1  0  0  0  0
  2  4  1  0  0  0  0
  2  5  1  0  0  0  0
  1  2  1  0  0  0  0
 22 23  2  0  0  0  0
 22 24  1  0  0  0  0
 20 21  1  0  0  0  0
 19 20  1  0  0  0  0
 17 18  1  0  0  0  0
 17 19  2  0  0  0  0
 15 16  1  0  0  0  0
 15 17  1  0  0  0  0
 14 15  1  0  0  0  0
 14 20  2  0  0  0  0
 11 12  1  0  0  0  0
 11 13  1  0  0  0  0
 11 14  1  0  0  0  0
  9 10  1  0  0  0  0
  9 11  1  0  0  0  0
  9 22  1  0  0  0  0
  7  8  1  0  0  0  0
  7  9  1  0  0  0  0
 26 27  1  0  0  0  0
 26 28  1  0  0  0  0
 26 29  1  0  0  0  0
 24 25  1  0  0  0  0
 24 26  1  0  0  0  0
M  END
$$$$
default_name
  -OEChem-02102213163D

 29 29  0     1  0  0  0  0  0999 V2000
   -3.6042   -3.5728    1.4576 H   0  0  0  0  0  0  0  0  0  0  0  0
   -3.5202   -2.6488    0.8866 C   0  0  0  0  0  0  0  0  0  0  0  0
   -4.2052   -1.9048    1.2896 H   0  0  0  0  0  0  0  0  0  0  0  0
   -3.7552   -2.8428   -0.1584 H   0  0  0  0  0  0  0  0  0  0  0  0
   -2.1052   -2.1358    0.9946 C   0  0  0  0  0  0  0  0  0  0  0  0
   -1.2852   -2.7288    1.6826 O   0  0  0  0  0  0  0  0  0  0  0  0
   -1.8202   -1.0288    0.3146 N   0  0  0  0  0  0  0  0  0  0  0  0
   -2.5542   -0.5788   -0.2104 H   0  0  0  0  0  0  0  0  0  0  0  0
   -0.5102   -0.3728    0.3086 C   0  0  1  0  0  0  0  0  0  0  0  0
    0.0719   -0.7468    1.1521 H   0  0  0  0  0  0  0  0  0  0  0  0
    0.2338   -0.7427   -0.9878 C   0  0  0  0  0  0  0  0  0  0  0  0
   -0.4942   -0.8946   -1.7867 H   0  0  0  0  0  0  0  0  0  0  0  0
    0.8802    0.0881   -1.2764 H   0  0  0  0  0  0  0  0  0  0  0  0
    1.0778   -1.9849   -0.8659 C   0  0  0  0  0  0  0  0  0  0  0  0
    1.3739   -2.8726   -1.8781 N   0  0  0  0  0  0  0  0  0  0  0  0
    1.0027   -2.8507   -2.8161 H   0  0  0  0  0  0  0  0  0  0  0  0
    2.2411   -3.7785   -1.3958 C   0  0  0  0  0  0  0  0  0  0  0  0
    2.6547   -4.6088   -1.9550 H   0  0  0  0  0  0  0  0  0  0  0  0
    2.5303   -3.5084   -0.1145 N   0  0  0  0  0  0  0  0  0  0  0  0
    1.7939   -2.3734    0.2348 C   0  0  0  0  0  0  0  0  0  0  0  0
    1.8132   -1.8688    1.1921 H   0  0  0  0  0  0  0  0  0  0  0  0
   -0.6600    1.1486    0.4782 C   0  0  0  0  0  0  0  0  0  0  0  0
   -1.5001    1.7648   -0.1771 O   0  0  0  0  0  0  0  0  0  0  0  0
    0.1634    1.7559    1.3418 N   0  0  0  0  0  0  0  0  0  0  0  0
    0.8618    1.1897    1.8008 H   0  0  0  0  0  0  0  0  0  0  0  0
    0.1509    3.1886    1.6256 C   0  0  0  0  0  0  0  0  0  0  0  0
   -0.8272    3.4794    2.0152 H   0  0  0  0  0  0  0  0  0  0  0  0
    0.9172    3.4314    2.3624 H   0  0  0  0  0  0  0  0  0  0  0  0
    0.3414    3.7499    0.7095 H   0  0  0  0  0  0  0  0  0  0  0  0
  5  6  2  0  0  0  0
  5  7  1  0  0  0  0
  2  3  1  0  0  0  0
  2  4  1  0  0  0  0
  2  5  1  0  0  0  0
  1  2  1  0  0  0  0
 22 23  2  0  0  0  0
 22 24  1  0  0  0  0
 20 21  1  0  0  0  0
 19 20  1  0  0  0  0
 17 18  1  0  0  0  0
 17 19  2  0  0  0  0
 15 16  1  0  0  0  0
 15 17  1  0  0  0  0
 14 15  1  0  0  0  0
 14 20  2  0  0  0  0
 11 12  1  0  0  0  0
 11 13  1  0  0  0  0
 11 14  1  0  0  0  0
  9 10  1  0  0  0  0
  9 11  1  0  0  0  0
  9 22  1  0  0  0  0
  7  8  1  0  0  0  0
  7  9  1  0  0  0  0
 26 27  1  0  0  0  0
 26 28  1  0  0  0  0
 26 29  1  0  0  0  0
 24 25  1  0  0  0  0
 24 26  1  0  0  0  0
M  END
$$$$
default_name
  -OEChem-02102213163D

 29 29  0     1  0  0  0  0  0999 V2000
   -3.6042   -3.5728    1.4576 H   0  0  0  0  0  0  0  0  0  0  0  0
   -3.5202   -2.6488    0.8866 C   0  0  0  0  0  0  0  0  0  0  0  0
   -4.2052   -1.9048    1.2896 H   0  0  0  0  0  0  0  0  0  0  0  0
   -3.7552   -2.8428   -0.1584 H   0  0  0  0  0  0  0  0  0  0  0  0
   -2.1052   -2.1358    0.9946 C   0  0  0  0  0  0  0  0  0  0  0  0
   -1.2852   -2.7288    1.6826 O   0  0  0  0  0  0  0  0  0  0  0  0
   -1.8202   -1.0288    0.3146 N   0  0  0  0  0  0  0  0  0  0  0  0
   -2.5542   -0.5788   -0.2104 H   0  0  0  0  0  0  0  0  0  0  0  0
   -0.5102   -0.3728    0.3086 C   0  0  1  0  0  0  0  0  0  0  0  0
    0.0719   -0.7468    1.1521 H   0  0  0  0  0  0  0  0  0  0  0  0
    0.2338   -0.7427   -0.9878 C   0  0  0  0  0  0  0  0  0  0  0  0
   -0.4942   -0.8946   -1.7867 H   0  0  0  0  0  0  0  0  0  0  0  0
    0.8802    0.0881   -1.2764 H   0  0  0  0  0  0  0  0  0  0  0  0
    1.0778   -1.9849   -0.8659 C   0  0  0  0  0  0  0  0  0  0  0  0
    1.6139   -2.7123   -1.9068 N   0  0  0  0  0  0  0  0  0  0  0  0
    1.4494   -2.5544   -2.8898 H   0  0  0  0  0  0  0  0  0  0  0  0
    2.3920   -3.6748   -1.3838 C   0  0  0  0  0  0  0  0  0  0  0  0
    2.9448   -4.4116   -1.9537 H   0  0  0  0  0  0  0  0  0  0  0  0
    2.3930   -3.5948   -0.0451 N   0  0  0  0  0  0  0  0  0  0  0  0
    1.5582   -2.5275    0.2960 C   0  0  0  0  0  0  0  0  0  0  0  0
    1.3558   -2.1692    1.2971 H   0  0  0  0  0  0  0  0  0  0  0  0
   -0.6600    1.1486    0.4782 C   0  0  0  0  0  0  0  0  0  0  0  0
   -1.5001    1.7648   -0.1771 O   0  0  0  0  0  0  0  0  0  0  0  0
    0.1634    1.7559    1.3418 N   0  0  0  0  0  0  0  0  0  0  0  0
    0.8618    1.1897    1.8008 H   0  0  0  0  0  0  0  0  0  0  0  0
    0.1509    3.1886    1.6256 C   0  0  0  0  0  0  0  0  0  0  0  0
   -0.8272    3.4794    2.0152 H   0  0  0  0  0  0  0  0  0  0  0  0
    0.9172    3.4314    2.3624 H   0  0  0  0  0  0  0  0  0  0  0  0
    0.3414    3.7499    0.7095 H   0  0  0  0  0  0  0  0  0  0  0  0
  5  6  2  0  0  0  0
  5  7  1  0  0  0  0
  2  3  1  0  0  0  0
  2  4  1  0  0  0  0
  2  5  1  0  0  0  0
  1  2  1  0  0  0  0
 22 23  2  0  0  0  0
 22 24  1  0  0  0  0
 20 21  1  0  0  0  0
 19 20  1  0  0  0  0
 17 18  1  0  0  0  0
 17 19  2  0  0  0  0
 15 16  1  0  0  0  0
 15 17  1  0  0  0  0
 14 15  1  0  0  0  0
 14 20  2  0  0  0  0
 11 12  1  0  0  0  0
 11 13  1  0  0  0  0
 11 14  1  0  0  0  0
  9 10  1  0  0  0  0
  9 11  1  0  0  0  0
  9 22  1  0  0  0  0
  7  8  1  0  0  0  0
  7  9  1  0  0  0  0
 26 27  1  0  0  0  0
 26 28  1  0  0  0  0
 26 29  1  0  0  0  0
 24 25  1  0  0  0  0
 24 26  1  0  0  0  0
M  END
$$$$
default_name
  -OEChem-02102213163D

 29 29  0     1  0  0  0  0  0999 V2000
   -3.6042   -3.5728    1.4576 H   0  0  0  0  0  0  0  0  0  0  0  0
   -3.5202   -2.6488    0.8866 C   0  0  0  0  0  0  0  0  0  0  0  0
   -4.2052   -1.9048    1.2896 H   0  0  0  0  0  0  0  0  0  0  0  0
   -3.7552   -2.8428   -0.1584 H   0  0  0  0  0  0  0  0  0  0  0  0
   -2.1052   -2.1358    0.9946 C   0  0  0  0  0  0  0  0  0  0  0  0
   -1.2852   -2.7288    1.6826 O   0  0  0  0  0  0  0  0  0  0  0  0
   -1.8202   -1.0288    0.3146 N   0  0  0  0  0  0  0  0  0  0  0  0
   -2.5542   -0.5788   -0.2104 H   0  0  0  0  0  0  0  0  0  0  0  0
   -0.5102   -0.3728    0.3086 C   0  0  1  0  0  0  0  0  0  0  0  0
    0.0719   -0.7468    1.1521 H   0  0  0  0  0  0  0  0  0  0  0  0
    0.2338   -0.7427   -0.9878 C   0  0  0  0  0  0  0  0  0  0  0  0
   -0.4469   -0.6338   -1.8340 H   0  0  0  0  0  0  0  0  0  0  0  0
    1.0631   -0.0479   -1.1327 H   0  0  0  0  0  0  0  0  0  0  0  0
    0.7807   -2.1467   -0.9903 C   0  0  0  0  0  0  0  0  0  0  0  0
    1.4864   -2.7455   -2.0117 N   0  0  0  0  0  0  0  0  0  0  0  0
    1.6644   -2.3506   -2.9231 H   0  0  0  0  0  0  0  0  0  0  0  0
    1.8929   -3.9527   -1.5840 C   0  0  0  0  0  0  0  0  0  0  0  0
    2.4661   -4.6631   -2.1671 H   0  0  0  0  0  0  0  0  0  0  0  0
    1.4904   -4.1577   -0.3213 N   0  0  0  0  0  0  0  0  0  0  0  0
    0.7791   -3.0189    0.0655 C   0  0  0  0  0  0  0  0  0  0  0  0
    0.3372   -2.8410    1.0373 H   0  0  0  0  0  0  0  0  0  0  0  0
   -0.6600    1.1486    0.4782 C   0  0  0  0  0  0  0  0  0  0  0  0
   -1.5001    1.7648   -0.1771 O   0  0  0  0  0  0  0  0  0  0  0  0
    0.1634    1.7559    1.3418 N   0  0  0  0  0  0  0  0  0  0  0  0
    0.8618    1.1897    1.8008 H   0  0  0  0  0  0  0  0  0  0  0  0
    0.1509    3.1886    1.6256 C   0  0  0  0  0  0  0  0  0  0  0  0
   -0.8272    3.4794    2.0152 H   0  0  0  0  0  0  0  0  0  0  0  0
    0.9172    3.4314    2.3624 H   0  0  0  0  0  0  0  0  0  0  0  0
    0.3414    3.7499    0.7095 H   0  0  0  0  0  0  0  0  0  0  0  0
  5  6  2  0  0  0  0
  5  7  1  0  0  0  0
  2  3  1  0  0  0  0
  2  4  1  0  0  0  0
  2  5  1  0  0  0  0
  1  2  1  0  0  0  0
 22 23  2  0  0  0  0
 22 24  1  0  0  0  0
 20 21  1  0  0  0  0
 19 20  1  0  0  0  0
 17 18  1  0  0  0  0
 17 19  2  0  0  0  0
 15 16  1  0  0  0  0
 15 17  1  0  0  0  0
 14 15  1  0  0  0  0
 14 20  2  0  0  0  0
 11 12  1  0  0  0  0
 11 13  1  0  0  0  0
 11 14  1  0  0  0  0
  9 10  1  0  0  0  0
  9 11  1  0  0  0  0
  9 22  1  0  0  0  0
  7  8  1  0  0  0  0
  7  9  1  0  0  0  0
 26 27  1  0  0  0  0
 26 28  1  0  0  0  0
 26 29  1  0  0  0  0
 24 25  1  0  0  0  0
 24 26  1  0  0  0  0
M  END
$$$$
default_name
  -OEChem-02102213163D

 29 29  0     1  0  0  0  0  0999 V2000
   -3.6042   -3.5728    1.4576 H   0  0  0  0  0  0  0  0  0  0  0  0
   -3.5202   -2.6488    0.8866 C   0  0  0  0  0  0  0  0  0  0  0  0
   -4.2052   -1.9048    1.2896 H   0  0  0  0  0  0  0  0  0  0  0  0
   -3.7552   -2.8428   -0.1584 H   0  0  0  0  0  0  0  0  0  0  0  0
   -2.1052   -2.1358    0.9946 C   0  0  0  0  0  0  0  0  0  0  0  0
   -1.2852   -2.7288    1.6826 O   0  0  0  0  0  0  0  0  0  0  0  0
   -1.8202   -1.0288    0.3146 N   0  0  0  0  0  0  0  0  0  0  0  0
   -2.5542   -0.5788   -0.2104 H   0  0  0  0  0  0  0  0  0  0  0  0
   -0.5102   -0.3728    0.3086 C   0  0  1  0  0  0  0  0  0  0  0  0
    0.0719   -0.7468    1.1521 H   0  0  0  0  0  0  0  0  0  0  0  0
    0.2338   -0.7427   -0.9878 C   0  0  0  0  0  0  0  0  0  0  0  0
   -0.4469   -0.6338   -1.8340 H   0  0  0  0  0  0  0  0  0  0  0  0
    1.0631   -0.0479   -1.1327 H   0  0  0  0  0  0  0  0  0  0  0  0
    0.7807   -2.1467   -0.9903 C   0  0  0  0  0  0  0  0  0  0  0  0
    1.7186   -2.6553   -1.8630 N   0  0  0  0  0  0  0  0  0  0  0  0
    2.1067   -2.1788   -2.6633 H   0  0  0  0  0  0  0  0  0  0  0  0
    2.0233   -3.9021   -1.4653 C   0  0  0  0  0  0  0  0  0  0  0  0
    2.7280   -4.5614   -1.9571 H   0  0  0  0  0  0  0  0  0  0  0  0
    1.3304   -4.2200   -0.3620 N   0  0  0  0  0  0  0  0  0  0  0  0
    0.5342   -3.1141   -0.0529 C   0  0  0  0  0  0  0  0  0  0  0  0
   -0.1310   -3.0229    0.7960 H   0  0  0  0  0  0  0  0  0  0  0  0
   -0.6600    1.1486    0.4782 C   0  0  0  0  0  0  0  0  0  0  0  0
   -1.5001    1.7648   -0.1771 O   0  0  0  0  0  0  0  0  0  0  0  0
    0.1634    1.7559    1.3418 N   0  0  0  0  0  0  0  0  0  0  0  0
    0.8618    1.1897    1.8008 H   0  0  0  0  0  0  0  0  0  0  0  0
    0.1509    3.1886    1.6256 C   0  0  0  0  0  0  0  0  0  0  0  0
   -0.8272    3.4794    2.0152 H   0  0  0  0  0  0  0  0  0  0  0  0
    0.9172    3.4314    2.3624 H   0  0  0  0  0  0  0  0  0  0  0  0
    0.3414    3.7499    0.7095 H   0  0  0  0  0  0  0  0  0  0  0  0
  5  6  2  0  0  0  0
  5  7  1  0  0  0  0
  2  3  1  0  0  0  0
  2  4  1  0  0  0  0
  2  5  1  0  0  0  0
  1  2  1  0  0  0  0
 22 23  2  0  0  0  0
 22 24  1  0  0  0  0
 20 21  1  0  0  0  0
 19 20  1  0  0  0  0
 17 18  1  0  0  0  0
 17 19  2  0  0  0  0
 15 16  1  0  0  0  0
 15 17  1  0  0  0  0
 14 15  1  0  0  0  0
 14 20  2  0  0  0  0
 11 12  1  0  0  0  0
 11 13  1  0  0  0  0
 11 14  1  0  0  0  0
  9 10  1  0  0  0  0
  9 11  1  0  0  0  0
  9 22  1  0  0  0  0
  7  8  1  0  0  0  0
  7  9  1  0  0  0  0
 26 27  1  0  0  0  0
 26 28  1  0  0  0  0
 26 29  1  0  0  0  0
 24 25  1  0  0  0  0
 24 26  1  0  0  0  0
M  END
$$$$
default_name
  -OEChem-02102213163D

 29 29  0     1  0  0  0  0  0999 V2000
   -3.6042   -3.5728    1.4576 H   0  0  0  0  0  0  0  0  0  0  0  0
   -3.5202   -2.6488    0.8866 C   0  0  0  0  0  0  0  0  0  0  0  0
   -4.2052   -1.9048    1.2896 H   0  0  0  0  0  0  0  0  0  0  0  0
   -3.7552   -2.8428   -0.1584 H   0  0  0  0  0  0  0  0  0  0  0  0
   -2.1052   -2.1358    0.9946 C   0  0  0  0  0  0  0  0  0  0  0  0
   -1.2852   -2.7288    1.6826 O   0  0  0  0  0  0  0  0  0  0  0  0
   -1.8202   -1.0288    0.3146 N   0  0  0  0  0  0  0  0  0  0  0  0
   -2.5542   -0.5788   -0.2104 H   0  0  0  0  0  0  0  0  0  0  0  0
   -0.5102   -0.3728    0.3086 C   0  0  1  0  0  0  0  0  0  0  0  0
    0.0719   -0.7468    1.1521 H   0  0  0  0  0  0  0  0  0  0  0  0
    0.2338   -0.7427   -0.9878 C   0  0  0  0  0  0  0  0  0  0  0  0
   -0.4469   -0.6338   -1.8340 H   0  0  0  0  0  0  0  0  0  0  0  0
    1.0631   -0.0479   -1.1327 H   0  0  0  0  0  0  0  0  0  0  0  0
    0.7807   -2.1467   -0.9903 C   0  0  0  0  0  0  0  0  0  0  0  0
    1.9070   -2.5823   -1.6549 N   0  0  0  0  0  0  0  0  0  0  0  0
    2.4714   -2.0374   -2.2895 H   0  0  0  0  0  0  0  0  0  0  0  0
    2.1206   -3.8644   -1.3145 C   0  0  0  0  0  0  0  0  0  0  0  0
    2.9304   -4.4830   -1.6815 H   0  0  0  0  0  0  0  0  0  0  0  0
    1.1857   -4.2762   -0.4457 N   0  0  0  0  0  0  0  0  0  0  0  0
    0.3262   -3.1948   -0.2352 C   0  0  0  0  0  0  0  0  0  0  0  0
   -0.5251   -3.1758    0.4329 H   0  0  0  0  0  0  0  0  0  0  0  0
   -0.6600    1.1486    0.4782 C   0  0  0  0  0  0  0  0  0  0  0  0
   -1.5001    1.7648   -0.1771 O   0  0  0  0  0  0  0  0  0  0  0  0
    0.1634    1.7559    1.3418 N   0  0  0  0  0  0  0  0  0  0  0  0
    0.8618    1.1897    1.8008 H   0  0  0  0  0  0  0  0  0  0  0  0
    0.1509    3.1886    1.6256 C   0  0  0  0  0  0  0  0  0  0  0  0
   -0.8272    3.4794    2.0152 H   0  0  0  0  0  0  0  0  0  0  0  0
    0.9172    3.4314    2.3624 H   0  0  0  0  0  0  0  0  0  0  0  0
    0.3414    3.7499    0.7095 H   0  0  0  0  0  0  0  0  0  0  0  0
  5  6  2  0  0  0  0
  5  7  1  0  0  0  0
  2  3  1  0  0  0  0
  2  4  1  0  0  0  0
  2  5  1  0  0  0  0
  1  2  1  0  0  0  0
 22 23  2  0  0  0  0
 22 24  1  0  0  0  0
 20 21  1  0  0  0  0
 19 20  1  0  0  0  0
 17 18  1  0  0  0  0
 17 19  2  0  0  0  0
 15 16  1  0  0  0  0
 15 17  1  0  0  0  0
 14 15  1  0  0  0  0
 14 20  2  0  0  0  0
 11 12  1  0  0  0  0
 11 13  1  0  0  0  0
 11 14  1  0  0  0  0
  9 10  1  0  0  0  0
  9 11  1  0  0  0  0
  9 22  1  0  0  0  0
  7  8  1  0  0  0  0
  7  9  1  0  0  0  0
 26 27  1  0  0  0  0
 26 28  1  0  0  0  0
 26 29  1  0  0  0  0
 24 25  1  0  0  0  0
 24 26  1  0  0  0  0
M  END
$$$$
default_name
  -OEChem-02102213163D

 29 29  0     1  0  0  0  0  0999 V2000
   -3.6042   -3.5728    1.4576 H   0  0  0  0  0  0  0  0  0  0  0  0
   -3.5202   -2.6488    0.8866 C   0  0  0  0  0  0  0  0  0  0  0  0
   -4.2052   -1.9048    1.2896 H   0  0  0  0  0  0  0  0  0  0  0  0
   -3.7552   -2.8428   -0.1584 H   0  0  0  0  0  0  0  0  0  0  0  0
   -2.1052   -2.1358    0.9946 C   0  0  0  0  0  0  0  0  0  0  0  0
   -1.2852   -2.7288    1.6826 O   0  0  0  0  0  0  0  0  0  0  0  0
   -1.8202   -1.0288    0.3146 N   0  0  0  0  0  0  0  0  0  0  0  0
   -2.5542   -0.5788   -0.2104 H   0  0  0  0  0  0  0  0  0  0  0  0
   -0.5102   -0.3728    0.3086 C   0  0  1  0  0  0  0  0  0  0  0  0
    0.0719   -0.7468    1.1521 H   0  0  0  0  0  0  0  0  0  0  0  0
    0.2338   -0.7427   -0.9878 C   0  0  0  0  0  0  0  0  0  0  0  0
   -0.4469   -0.6338   -1.8340 H   0  0  0  0  0  0  0  0  0  0  0  0
    1.0631   -0.0479   -1.1327 H   0  0  0  0  0  0  0  0  0  0  0  0
    0.7807   -2.1467   -0.9903 C   0  0  0  0  0  0  0  0  0  0  0  0
    2.0388   -2.5314   -1.4016 N   0  0  0  0  0  0  0  0  0  0  0  0
    2.7335   -1.9361   -1.8273 H   0  0  0  0  0  0  0  0  0  0  0  0
    2.1782   -3.8423   -1.1418 C   0  0  0  0  0  0  0  0  0  0  0  0
    3.0595   -4.4333   -1.3592 H   0  0  0  0  0  0  0  0  0  0  0  0
    1.0660   -4.3226   -0.5668 N   0  0  0  0  0  0  0  0  0  0  0  0
    0.1691   -3.2556   -0.4690 C   0  0  0  0  0  0  0  0  0  0  0  0
   -0.8183   -3.2892   -0.0272 H   0  0  0  0  0  0  0  0  0  0  0  0
   -0.6600    1.1486    0.4782 C   0  0  0  0  0  0  0  0  0  0  0  0
   -1.5001    1.7648   -0.1771 O   0  0  0  0  0  0  0  0  0  0  0  0
    0.1634    1.7559    1.3418 N   0  0  0  0  0  0  0  0  0  0  0  0
    0.8618    1.1897    1.8008 H   0  0  0  0  0  0  0  0  0  0  0  0
    0.1509    3.1886    1.6256 C   0  0  0  0  0  0  0  0  0  0  0  0
   -0.8272    3.4794    2.0152 H   0  0  0  0  0  0  0  0  0  0  0  0
    0.9172    3.4314    2.3624 H   0  0  0  0  0  0  0  0  0  0  0  0
    0.3414    3.7499    0.7095 H   0  0  0  0  0  0  0  0  0  0  0  0
  5  6  2  0  0  0  0
  5  7  1  0  0  0  0
  2  3  1  0  0  0  0
  2  4  1  0  0  0  0
  2  5  1  0  0  0  0
  1  2  1  0  0  0  0
 22 23  2  0  0  0  0
 22 24  1  0  0  0  0
 20 21  1  0  0  0  0
 19 20  1  0  0  0  0
 17 18  1  0  0  0  0
 17 19  2  0  0  0  0
 15 16  1  0  0  0  0
 15 17  1  0  0  0  0
 14 15  1  0  0  0  0
 14 20  2  0  0  0  0
 11 12  1  0  0  0  0
 11 13  1  0  0  0  0
 11 14  1  0  0  0  0
  9 10  1  0  0  0  0
  9 11  1  0  0  0  0
  9 22  1  0  0  0  0
  7  8  1  0  0  0  0
  7  9  1  0  0  0  0
 26 27  1  0  0  0  0
 26 28  1  0  0  0  0
 26 29  1  0  0  0  0
 24 25  1  0  0  0  0
 24 26  1  0  0  0  0
M  END
$$$$
default_name
  -OEChem-02102213163D

 29 29  0     1  0  0  0  0  0999 V2000
   -3.6042   -3.5728    1.4576 H   0  0  0  0  0  0  0  0  0  0  0  0
   -3.5202   -2.6488    0.8866 C   0  0  0  0  0  0  0  0  0  0  0  0
   -4.2052   -1.9048    1.2896 H   0  0  0  0  0  0  0  0  0  0  0  0
   -3.7552   -2.8428   -0.1584 H   0  0  0  0  0  0  0  0  0  0  0  0
   -2.1052   -2.1358    0.9946 C   0  0  0  0  0  0  0  0  0  0  0  0
   -1.2852   -2.7288    1.6826 O   0  0  0  0  0  0  0  0  0  0  0  0
   -1.8202   -1.0288    0.3146 N   0  0  0  0  0  0  0  0  0  0  0  0
   -2.5542   -0.5788   -0.2104 H   0  0  0  0  0  0  0  0  0  0  0  0
   -0.5102   -0.3728    0.3086 C   0  0  1  0  0  0  0  0  0  0  0  0
    0.0719   -0.7468    1.1521 H   0  0  0  0  0  0  0  0  0  0  0  0
    0.2338   -0.7427   -0.9878 C   0  0  0  0  0  0  0  0  0  0  0  0
   -0.4469   -0.6338   -1.8340 H   0  0  0  0  0  0  0  0  0  0  0  0
    1.0631   -0.0479   -1.1327 H   0  0  0  0  0  0  0  0  0  0  0  0
    0.7807   -2.1467   -0.9903 C   0  0  0  0  0  0  0  0  0  0  0  0
    2.1051   -2.5061   -1.1204 N   0  0  0  0  0  0  0  0  0  0  0  0
    2.8753   -1.8818   -1.3081 H   0  0  0  0  0  0  0  0  0  0  0  0
    2.1922   -3.8371   -0.9590 C   0  0  0  0  0  0  0  0  0  0  0  0
    3.1064   -4.4156   -1.0120 H   0  0  0  0  0  0  0  0  0  0  0  0
    0.9796   -4.3560   -0.7169 N   0  0  0  0  0  0  0  0  0  0  0  0
    0.0738   -3.2922   -0.7385 C   0  0  0  0  0  0  0  0  0  0  0  0
   -0.9906   -3.3554   -0.5530 H   0  0  0  0  0  0  0  0  0  0  0  0
   -0.6600    1.1486    0.4782 C   0  0  0  0  0  0  0  0  0  0  0  0
   -1.5001    1.7648   -0.1771 O   0  0  0  0  0  0  0  0  0  0  0  0
    0.1634    1.7559    1.3418 N   0  0  0  0  0  0  0  0  0  0  0  0
    0.8618    1.1897    1.8008 H   0  0  0  0  0  0  0  0  0  0  0  0
    0.1509    3.1886    1.6256 C   0  0  0  0  0  0  0  0  0  0  0  0
   -0.8272    3.4794    2.0152 H   0  0  0  0  0  0  0  0  0  0  0  0
    0.9172    3.4314    2.3624 H   0  0  0  0  0  0  0  0  0  0  0  0
    0.3414    3.7499    0.7095 H   0  0  0  0  0  0  0  0  0  0  0  0
  5  6  2  0  0  0  0
  5  7  1  0  0  0  0
  2  3  1  0  0  0  0
  2  4  1  0  0  0  0
  2  5  1  0  0  0  0
  1  2  1  0  0  0  0
 22 23  2  0  0  0  0
 22 24  1  0  0  0  0
 20 21  1  0  0  0  0
 19 20  1  0  0  0  0
 17 18  1  0  0  0  0
 17 19  2  0  0  0  0
 15 16  1  0  0  0  0
 15 17  1  0  0  0  0
 14 15  1  0  0  0  0
 14 20  2  0  0  0  0
 11 12  1  0  0  0  0
 11 13  1  0  0  0  0
 11 14  1  0  0  0  0
  9 10  1  0  0  0  0
  9 11  1  0  0  0  0
  9 22  1  0  0  0  0
  7  8  1  0  0  0  0
  7  9  1  0  0  0  0
 26 27  1  0  0  0  0
 26 28  1  0  0  0  0
 26 29  1  0  0  0  0
 24 25  1  0  0  0  0
 24 26  1  0  0  0  0
M  END
$$$$
default_name
  -OEChem-02102213163D

 29 29  0     1  0  0  0  0  0999 V2000
   -3.6042   -3.5728    1.4576 H   0  0  0  0  0  0  0  0  0  0  0  0
   -3.5202   -2.6488    0.8866 C   0  0  0  0  0  0  0  0  0  0  0  0
   -4.2052   -1.9048    1.2896 H   0  0  0  0  0  0  0  0  0  0  0  0
   -3.7552   -2.8428   -0.1584 H   0  0  0  0  0  0  0  0  0  0  0  0
   -2.1052   -2.1358    0.9946 C   0  0  0  0  0  0  0  0  0  0  0  0
   -1.2852   -2.7288    1.6826 O   0  0  0  0  0  0  0  0  0  0  0  0
   -1.8202   -1.0288    0.3146 N   0  0  0  0  0  0  0  0  0  0  0  0
   -2.5542   -0.5788   -0.2104 H   0  0  0  0  0  0  0  0  0  0  0  0
   -0.5102   -0.3728    0.3086 C   0  0  1  0  0  0  0  0  0  0  0  0
    0.0719   -0.7468    1.1521 H   0  0  0  0  0  0  0  0  0  0  0  0
    0.2338   -0.7427   -0.9878 C   0  0  0  0  0  0  0  0  0  0  0  0
   -0.4469   -0.6338   -1.8340 H   0  0  0  0  0  0  0  0  0  0  0  0
    1.0631   -0.0479   -1.1327 H   0  0  0  0  0  0  0  0  0  0  0  0
    0.7807   -2.1467   -0.9903 C   0  0  0  0  0  0  0  0  0  0  0  0
    2.1013   -2.5081   -0.8304 N   0  0  0  0  0  0  0  0  0  0  0  0
    2.8870   -1.8781   -0.7672 H   0  0  0  0  0  0  0  0  0  0  0  0
    2.1617   -3.8493   -0.7786 C   0  0  0  0  0  0  0  0  0  0  0  0
    3.0681   -4.4312   -0.6637 H   0  0  0  0  0  0  0  0  0  0  0  0
    0.9323   -4.3741   -0.8860 N   0  0  0  0  0  0  0  0  0  0  0  0
    0.0468   -3.3023   -1.0252 C   0  0  0  0  0  0  0  0  0  0  0  0
   -1.0302   -3.3699   -1.1087 H   0  0  0  0  0  0  0  0  0  0  0  0
   -0.6600    1.1486    0.4782 C   0  0  0  0  0  0  0  0  0  0  0  0
   -1.5001    1.7648   -0.1771 O   0  0  0  0  0  0  0  0  0  0  0  0
    0.1634    1.7559    1.3418 N   0  0  0  0  0  0  0  0  0  0  0  0
    0.8618    1.1897    1.8008 H   0  0  0  0  0  0  0  0  0  0  0  0
    0.1509    3.1886    1.6256 C   0  0  0  0  0  0  0  0  0  0  0  0
   -0.8272    3.4794    2.0152 H   0  0  0  0  0  0  0  0  0  0  0  0
    0.9172    3.4314    2.3624 H   0  0  0  0  0  0  0  0  0  0  0  0
    0.3414    3.7499    0.7095 H   0  0  0  0  0  0  0  0  0  0  0  0
  5  6  2  0  0  0  0
  5  7  1  0  0  0  0
  2  3  1  0  0  0  0
  2  4  1  0  0  0  0
  2  5  1  0  0  0  0
  1  2  1  0  0  0  0
 22 23  2  0  0  0  0
 22 24  1  0  0  0  0
 20 21  1  0  0  0  0
 19 20  1  0  0  0  0
 17 18  1  0  0  0  0
 17 19  2  0  0  0  0
 15 16  1  0  0  0  0
 15 17  1  0  0  0  0
 14 15  1  0  0  0  0
 14 20  2  0  0  0  0
 11 12  1  0  0  0  0
 11 13  1  0  0  0  0
 11 14  1  0  0  0  0
  9 10  1  0  0  0  0
  9 11  1  0  0  0  0
  9 22  1  0  0  0  0
  7  8  1  0  0  0  0
  7  9  1  0  0  0  0
 26 27  1  0  0  0  0
 26 28  1  0  0  0  0
 26 29  1  0  0  0  0
 24 25  1  0  0  0  0
 24 26  1  0  0  0  0
M  END
$$$$
default_name
  -OEChem-02102213163D

 29 29  0     1  0  0  0  0  0999 V2000
   -3.6042   -3.5728    1.4576 H   0  0  0  0  0  0  0  0  0  0  0  0
   -3.5202   -2.6488    0.8866 C   0  0  0  0  0  0  0  0  0  0  0  0
   -4.2052   -1.9048    1.2896 H   0  0  0  0  0  0  0  0  0  0  0  0
   -3.7552   -2.8428   -0.1584 H   0  0  0  0  0  0  0  0  0  0  0  0
   -2.1052   -2.1358    0.9946 C   0  0  0  0  0  0  0  0  0  0  0  0
   -1.2852   -2.7288    1.6826 O   0  0  0  0  0  0  0  0  0  0  0  0
   -1.8202   -1.0288    0.3146 N   0  0  0  0  0  0  0  0  0  0  0  0
   -2.5542   -0.5788   -0.2104 H   0  0  0  0  0  0  0  0  0  0  0  0
   -0.5102   -0.3728    0.3086 C   0  0  1  0  0  0  0  0  0  0  0  0
    0.0719   -0.7468    1.1521 H   0  0  0  0  0  0  0  0  0  0  0  0
    0.2338   -0.7427   -0.9878 C   0  0  0  0  0  0  0  0  0  0  0  0
   -0.4469   -0.6338   -1.8340 H   0  0  0  0  0  0  0  0  0  0  0  0
    1.0631   -0.0479   -1.1327 H   0  0  0  0  0  0  0  0  0  0  0  0
    0.7807   -2.1467   -0.9903 C   0  0  0  0  0  0  0  0  0  0  0  0
    2.0277   -2.5372   -0.5513 N   0  0  0  0  0  0  0  0  0  0  0  0
    2.7679   -1.9254   -0.2417 H   0  0  0  0  0  0  0  0  0  0  0  0
    2.0887   -3.8781   -0.6128 C   0  0  0  0  0  0  0  0  0  0  0  0
    2.9470   -4.4789   -0.3380 H   0  0  0  0  0  0  0  0  0  0  0  0
    0.9274   -4.3757   -1.0623 N   0  0  0  0  0  0  0  0  0  0  0  0
    0.0897   -3.2851   -1.3096 C   0  0  0  0  0  0  0  0  0  0  0  0
   -0.9345   -3.3317   -1.6563 H   0  0  0  0  0  0  0  0  0  0  0  0
   -0.6600    1.1486    0.4782 C   0  0  0  0  0  0  0  0  0  0  0  0
   -1.5001    1.7648   -0.1771 O   0  0  0  0  0  0  0  0  0  0  0  0
    0.1634    1.7559    1.3418 N   0  0  0  0  0  0  0  0  0  0  0  0
    0.8618    1.1897    1.8008 H   0  0  0  0  0  0  0  0  0  0  0  0
    0.1509    3.1886    1.6256 C   0  0  0  0  0  0  0  0  0  0  0  0
   -0.8272    3.4794    2.0152 H   0  0  0  0  0  0  0  0  0  0  0  0
    0.9172    3.4314    2.3624 H   0  0  0  0  0  0  0  0  0  0  0  0
    0.3414    3.7499    0.7095 H   0  0  0  0  0  0  0  0  0  0  0  0
  5  6  2  0  0  0  0
  5  7  1  0  0  0  0
  2  3  1  0  0  0  0
  2  4  1  0  0  0  0
  2  5  1  0  0  0  0
  1  2  1  0  0  0  0
 22 23  2  0  0  0  0
 22 24  1  0  0  0  0
 20 21  1  0  0  0  0
 19 20  1  0  0  0  0
 17 18  1  0  0  0  0
 17 19  2  0  0  0  0
 15 16  1  0  0  0  0
 15 17  1  0  0  0  0
 14 15  1  0  0  0  0
 14 20  2  0  0  0  0
 11 12  1  0  0  0  0
 11 13  1  0  0  0  0
 11 14  1  0  0  0  0
  9 10  1  0  0  0  0
  9 11  1  0  0  0  0
  9 22  1  0  0  0  0
  7  8  1  0  0  0  0
  7  9  1  0  0  0  0
 26 27  1  0  0  0  0
 26 28  1  0  0  0  0
 26 29  1  0  0  0  0
 24 25  1  0  0  0  0
 24 26  1  0  0  0  0
M  END
$$$$
default_name
  -OEChem-02102213163D

 29 29  0     1  0  0  0  0  0999 V2000
   -3.6042   -3.5728    1.4576 H   0  0  0  0  0  0  0  0  0  0  0  0
   -3.5202   -2.6488    0.8866 C   0  0  0  0  0  0  0  0  0  0  0  0
   -4.2052   -1.9048    1.2896 H   0  0  0  0  0  0  0  0  0  0  0  0
   -3.7552   -2.8428   -0.1584 H   0  0  0  0  0  0  0  0  0  0  0  0
   -2.1052   -2.1358    0.9946 C   0  0  0  0  0  0  0  0  0  0  0  0
   -1.2852   -2.7288    1.6826 O   0  0  0  0  0  0  0  0  0  0  0  0
   -1.8202   -1.0288    0.3146 N   0  0  0  0  0  0  0  0  0  0  0  0
   -2.5542   -0.5788   -0.2104 H   0  0  0  0  0  0  0  0  0  0  0  0
   -0.5102   -0.3728    0.3086 C   0  0  1  0  0  0  0  0  0  0  0  0
    0.0719   -0.7468    1.1521 H   0  0  0  0  0  0  0  0  0  0  0  0
    0.2338   -0.7427   -0.9878 C   0  0  0  0  0  0  0  0  0  0  0  0
   -0.4469   -0.6338   -1.8340 H   0  0  0  0  0  0  0  0  0  0  0  0
    1.0631   -0.0479   -1.1327 H   0  0  0  0  0  0  0  0  0  0  0  0
    0.7807   -2.1467   -0.9903 C   0  0  0  0  0  0  0  0  0  0  0  0
    1.8892   -2.5916   -0.3023 N   0  0  0  0  0  0  0  0  0  0  0  0
    2.5261   -2.0204    0.2328 H   0  0  0  0  0  0  0  0  0  0  0  0
    1.9782   -3.9213   -0.4730 C   0  0  0  0  0  0  0  0  0  0  0  0
    2.7515   -4.5555   -0.0570 H   0  0  0  0  0  0  0  0  0  0  0  0
    0.9652   -4.3607   -1.2340 N   0  0  0  0  0  0  0  0  0  0  0  0
    0.1999   -3.2417   -1.5724 C   0  0  0  0  0  0  0  0  0  0  0  0
   -0.7099   -3.2433   -2.1586 H   0  0  0  0  0  0  0  0  0  0  0  0
   -0.6600    1.1486    0.4782 C   0  0  0  0  0  0  0  0  0  0  0  0
   -1.5001    1.7648   -0.1771 O   0  0  0  0  0  0  0  0  0  0  0  0
    0.1634    1.7559    1.3418 N   0  0  0  0  0  0  0  0  0  0  0  0
    0.8618    1.1897    1.8008 H   0  0  0  0  0  0  0  0  0  0  0  0
    0.1509    3.1886    1.6256 C   0  0  0  0  0  0  0  0  0  0  0  0
   -0.8272    3.4794    2.0152 H   0  0  0  0  0  0  0  0  0  0  0  0
    0.9172    3.4314    2.3624 H   0  0  0  0  0  0  0  0  0  0  0  0
    0.3414    3.7499    0.7095 H   0  0  0  0  0  0  0  0  0  0  0  0
  5  6  2  0  0  0  0
  5  7  1  0  0  0  0
  2  3  1  0  0  0  0
  2  4  1  0  0  0  0
  2  5  1  0  0  0  0
  1  2  1  0  0  0  0
 22 23  2  0  0  0  0
 22 24  1  0  0  0  0
 20 21  1  0  0  0  0
 19 20  1  0  0  0  0
 17 18  1  0  0  0  0
 17 19  2  0  0  0  0
 15 16  1  0  0  0  0
 15 17  1  0  0  0  0
 14 15  1  0  0  0  0
 14 20  2  0  0  0  0
 11 12  1  0  0  0  0
 11 13  1  0  0  0  0
 11 14  1  0  0  0  0
  9 10  1  0  0  0  0
  9 11  1  0  0  0  0
  9 22  1  0  0  0  0
  7  8  1  0  0  0  0
  7  9  1  0  0  0  0
 26 27  1  0  0  0  0
 26 28  1  0  0  0  0
 26 29  1  0  0  0  0
 24 25  1  0  0  0  0
 24 26  1  0  0  0  0
M  END
$$$$
default_name
  -OEChem-02102213163D

 29 29  0     1  0  0  0  0  0999 V2000
   -3.6042   -3.5728    1.4576 H   0  0  0  0  0  0  0  0  0  0  0  0
   -3.5202   -2.6488    0.8866 C   0  0  0  0  0  0  0  0  0  0  0  0
   -4.2052   -1.9048    1.2896 H   0  0  0  0  0  0  0  0  0  0  0  0
   -3.7552   -2.8428   -0.1584 H   0  0  0  0  0  0  0  0  0  0  0  0
   -2.1052   -2.1358    0.9946 C   0  0  0  0  0  0  0  0  0  0  0  0
   -1.2852   -2.7288    1.6826 O   0  0  0  0  0  0  0  0  0  0  0  0
   -1.8202   -1.0288    0.3146 N   0  0  0  0  0  0  0  0  0  0  0  0
   -2.5542   -0.5788   -0.2104 H   0  0  0  0  0  0  0  0  0  0  0  0
   -0.5102   -0.3728    0.3086 C   0  0  1  0  0  0  0  0  0  0  0  0
    0.0719   -0.7468    1.1521 H   0  0  0  0  0  0  0  0  0  0  0  0
    0.2338   -0.7427   -0.9878 C   0  0  0  0  0  0  0  0  0  0  0  0
   -0.4469   -0.6338   -1.8340 H   0  0  0  0  0  0  0  0  0  0  0  0
    1.0631   -0.0479   -1.1327 H   0  0  0  0  0  0  0  0  0  0  0  0
    0.7807   -2.1467   -0.9903 C   0  0  0  0  0  0  0  0  0  0  0  0
    1.6955   -2.6674   -0.1002 N   0  0  0  0  0  0  0  0  0  0  0  0
    2.1781   -2.1567    0.6239 H   0  0  0  0  0  0  0  0  0  0  0  0
    1.8377   -3.9762   -0.3686 C   0  0  0  0  0  0  0  0  0  0  0  0
    2.4949   -4.6559    0.1600 H   0  0  0  0  0  0  0  0  0  0  0  0
    1.0432   -4.3301   -1.3893 N   0  0  0  0  0  0  0  0  0  0  0  0
    0.3696   -3.1752   -1.7955 C   0  0  0  0  0  0  0  0  0  0  0  0
   -0.3719   -3.1109   -2.5814 H   0  0  0  0  0  0  0  0  0  0  0  0
   -0.6600    1.1486    0.4782 C   0  0  0  0  0  0  0  0  0  0  0  0
   -1.5001    1.7648   -0.1771 O   0  0  0  0  0  0  0  0  0  0  0  0
    0.1634    1.7559    1.3418 N   0  0  0  0  0  0  0  0  0  0  0  0
    0.8618    1.1897    1.8008 H   0  0  0  0  0  0  0  0  0  0  0  0
    0.1509    3.1886    1.6256 C   0  0  0  0  0  0  0  0  0  0  0  0
   -0.8272    3.4794    2.0152 H   0  0  0  0  0  0  0  0  0  0  0  0
    0.9172    3.4314    2.3624 H   0  0  0  0  0  0  0  0  0  0  0  0
    0.3414    3.7499    0.7095 H   0  0  0  0  0  0  0  0  0  0  0  0
  5  6  2  0  0  0  0
  5  7  1  0  0  0  0
  2  3  1  0  0  0  0
  2  4  1  0  0  0  0
  2  5  1  0  0  0  0
  1  2  1  0  0  0  0
 22 23  2  0  0  0  0
 22 24  1  0  0  0  0
 20 21  1  0  0  0  0
 19 20  1  0  0  0  0
 17 18  1  0  0  0  0
 17 19  2  0  0  0  0
 15 16  1  0  0  0  0
 15 17  1  0  0  0  0
 14 15  1  0  0  0  0
 14 20  2  0  0  0  0
 11 12  1  0  0  0  0
 11 13  1  0  0  0  0
 11 14  1  0  0  0  0
  9 10  1  0  0  0  0
  9 11  1  0  0  0  0
  9 22  1  0  0  0  0
  7  8  1  0  0  0  0
  7  9  1  0  0  0  0
 26 27  1  0  0  0  0
 26 28  1  0  0  0  0
 26 29  1  0  0  0  0
 24 25  1  0  0  0  0
 24 26  1  0  0  0  0
M  END
$$$$
default_name
  -OEChem-02102213163D

 29 29  0     1  0  0  0  0  0999 V2000
   -3.6042   -3.5728    1.4576 H   0  0  0  0  0  0  0  0  0  0  0  0
   -3.5202   -2.6488    0.8866 C   0  0  0  0  0  0  0  0  0  0  0  0
   -4.2052   -1.9048    1.2896 H   0  0  0  0  0  0  0  0  0  0  0  0
   -3.7552   -2.8428   -0.1584 H   0  0  0  0  0  0  0  0  0  0  0  0
   -2.1052   -2.1358    0.9946 C   0  0  0  0  0  0  0  0  0  0  0  0
   -1.2852   -2.7288    1.6826 O   0  0  0  0  0  0  0  0  0  0  0  0
   -1.8202   -1.0288    0.3146 N   0  0  0  0  0  0  0  0  0  0  0  0
   -2.5542   -0.5788   -0.2104 H   0  0  0  0  0  0  0  0  0  0  0  0
   -0.5102   -0.3728    0.3086 C   0  0  1  0  0  0  0  0  0  0  0  0
    0.0719   -0.7468    1.1521 H   0  0  0  0  0  0  0  0  0  0  0  0
    0.2338   -0.7427   -0.9878 C   0  0  0  0  0  0  0  0  0  0  0  0
   -0.4469   -0.6338   -1.8340 H   0  0  0  0  0  0  0  0  0  0  0  0
    1.0631   -0.0479   -1.1327 H   0  0  0  0  0  0  0  0  0  0  0  0
    0.7807   -2.1467   -0.9903 C   0  0  0  0  0  0  0  0  0  0  0  0
    1.4595   -2.7595    0.0411 N   0  0  0  0  0  0  0  0  0  0  0  0
    1.7475   -2.3249    0.9050 H   0  0  0  0  0  0  0  0  0  0  0  0
    1.6769   -4.0390   -0.3069 C   0  0  0  0  0  0  0  0  0  0  0  0
    2.1946   -4.7731    0.2984 H   0  0  0  0  0  0  0  0  0  0  0  0
    1.1559   -4.2860   -1.5176 N   0  0  0  0  0  0  0  0  0  0  0  0
    0.5874   -3.0901   -1.9639 C   0  0  0  0  0  0  0  0  0  0  0  0
    0.0567   -2.9434   -2.8957 H   0  0  0  0  0  0  0  0  0  0  0  0
   -0.6600    1.1486    0.4782 C   0  0  0  0  0  0  0  0  0  0  0  0
   -1.5001    1.7648   -0.1771 O   0  0  0  0  0  0  0  0  0  0  0  0
    0.1634    1.7559    1.3418 N   0  0  0  0  0  0  0  0  0  0  0  0
    0.8618    1.1897    1.8008 H   0  0  0  0  0  0  0  0  0  0  0  0
    0.1509    3.1886    1.6256 C   0  0  0  0  0  0  0  0  0  0  0  0
   -0.8272    3.4794    2.0152 H   0  0  0  0  0  0  0  0  0  0  0  0
    0.9172    3.4314    2.3624 H   0  0  0  0  0  0  0  0  0  0  0  0
    0.3414    3.7499    0.7095 H   0  0  0  0  0  0  0  0  0  0  0  0
  5  6  2  0  0  0  0
  5  7  1  0  0  0  0
  2  3  1  0  0  0  0
  2  4  1  0  0  0  0
  2  5  1  0  0  0  0
  1  2  1  0  0  0  0
 22 23  2  0  0  0  0
 22 24  1  0  0  0  0
 20 21  1  0  0  0  0
 19 20  1  0  0  0  0
 17 18  1  0  0  0  0
 17 19  2  0  0  0  0
 15 16  1  0  0  0  0
 15 17  1  0  0  0  0
 14 15  1  0  0  0  0
 14 20  2  0  0  0  0
 11 12  1  0  0  0  0
 11 13  1  0  0  0  0
 11 14  1  0  0  0  0
  9 10  1  0  0  0  0
  9 11  1  0  0  0  0
  9 22  1  0  0  0  0
  7  8  1  0  0  0  0
  7  9  1  0  0  0  0
 26 27  1  0  0  0  0
 26 28  1  0  0  0  0
 26 29  1  0  0  0  0
 24 25  1  0  0  0  0
 24 26  1  0  0  0  0
M  END
$$$$
default_name
  -OEChem-02102213163D

 29 29  0     1  0  0  0  0  0999 V2000
   -3.6042   -3.5728    1.4576 H   0  0  0  0  0  0  0  0  0  0  0  0
   -3.5202   -2.6488    0.8866 C   0  0  0  0  0  0  0  0  0  0  0  0
   -4.2052   -1.9048    1.2896 H   0  0  0  0  0  0  0  0  0  0  0  0
   -3.7552   -2.8428   -0.1584 H   0  0  0  0  0  0  0  0  0  0  0  0
   -2.1052   -2.1358    0.9946 C   0  0  0  0  0  0  0  0  0  0  0  0
   -1.2852   -2.7288    1.6826 O   0  0  0  0  0  0  0  0  0  0  0  0
   -1.8202   -1.0288    0.3146 N   0  0  0  0  0  0  0  0  0  0  0  0
   -2.5542   -0.5788   -0.2104 H   0  0  0  0  0  0  0  0  0  0  0  0
   -0.5102   -0.3728    0.3086 C   0  0  1  0  0  0  0  0  0  0  0  0
    0.0719   -0.7468    1.1521 H   0  0  0  0  0  0  0  0  0  0  0  0
    0.2338   -0.7427   -0.9878 C   0  0  0  0  0  0  0  0  0  0  0  0
   -0.4469   -0.6338   -1.8340 H   0  0  0  0  0  0  0  0  0  0  0  0
    1.0631   -0.0479   -1.1327 H   0  0  0  0  0  0  0  0  0  0  0  0
    0.7807   -2.1467   -0.9903 C   0  0  0  0  0  0  0  0  0  0  0  0
    1.1975   -2.8617    0.1120 N   0  0  0  0  0  0  0  0  0  0  0  0
    1.2638   -2.5136    1.0568 H   0  0  0  0  0  0  0  0  0  0  0  0
    1.5065   -4.1054   -0.2919 C   0  0  0  0  0  0  0  0  0  0  0  0
    1.8712   -4.8992    0.3485 H   0  0  0  0  0  0  0  0  0  0  0  0
    1.2957   -4.2313   -1.6103 N   0  0  0  0  0  0  0  0  0  0  0  0
    0.8384   -2.9921   -2.0660 C   0  0  0  0  0  0  0  0  0  0  0  0
    0.5465   -2.7523   -3.0803 H   0  0  0  0  0  0  0  0  0  0  0  0
   -0.6600    1.1486    0.4782 C   0  0  0  0  0  0  0  0  0  0  0  0
   -1.5001    1.7648   -0.1771 O   0  0  0  0  0  0  0  0  0  0  0  0
    0.1634    1.7559    1.3418 N   0  0  0  0  0  0  0  0  0  0  0  0
    0.8618    1.1897    1.8008 H   0  0  0  0  0  0  0  0  0  0  0  0
    0.1509    3.1886    1.6256 C   0  0  0  0  0  0  0  0  0  0  0  0
   -0.8272    3.4794    2.0152 H   0  0  0  0  0  0  0  0  0  0  0  0
    0.9172    3.4314    2.3624 H   0  0  0  0  0  0  0  0  0  0  0  0
    0.3414    3.7499    0.7095 H   0  0  0  0  0  0  0  0  0  0  0  0
  5  6  2  0  0  0  0
  5  7  1  0  0  0  0
  2  3  1  0  0  0  0
  2  4  1  0  0  0  0
  2  5  1  0  0  0  0
  1  2  1  0  0  0  0
 22 23  2  0  0  0  0
 22 24  1  0  0  0  0
 20 21  1  0  0  0  0
 19 20  1  0  0  0  0
 17 18  1  0  0  0  0
 17 19  2  0  0  0  0
 15 16  1  0  0  0  0
 15 17  1  0  0  0  0
 14 15  1  0  0  0  0
 14 20  2  0  0  0  0
 11 12  1  0  0  0  0
 11 13  1  0  0  0  0
 11 14  1  0  0  0  0
  9 10  1  0  0  0  0
  9 11  1  0  0  0  0
  9 22  1  0  0  0  0
  7  8  1  0  0  0  0
  7  9  1  0  0  0  0
 26 27  1  0  0  0  0
 26 28  1  0  0  0  0
 26 29  1  0  0  0  0
 24 25  1  0  0  0  0
 24 26  1  0  0  0  0
M  END
$$$$
default_name
  -OEChem-02102213163D

 29 29  0     1  0  0  0  0  0999 V2000
   -3.6042   -3.5728    1.4576 H   0  0  0  0  0  0  0  0  0  0  0  0
   -3.5202   -2.6488    0.8866 C   0  0  0  0  0  0  0  0  0  0  0  0
   -4.2052   -1.9048    1.2896 H   0  0  0  0  0  0  0  0  0  0  0  0
   -3.7552   -2.8428   -0.1584 H   0  0  0  0  0  0  0  0  0  0  0  0
   -2.1052   -2.1358    0.9946 C   0  0  0  0  0  0  0  0  0  0  0  0
   -1.2852   -2.7288    1.6826 O   0  0  0  0  0  0  0  0  0  0  0  0
   -1.8202   -1.0288    0.3146 N   0  0  0  0  0  0  0  0  0  0  0  0
   -2.5542   -0.5788   -0.2104 H   0  0  0  0  0  0  0  0  0  0  0  0
   -0.5102   -0.3728    0.3086 C   0  0  1  0  0  0  0  0  0  0  0  0
    0.0719   -0.7468    1.1521 H   0  0  0  0  0  0  0  0  0  0  0  0
    0.2338   -0.7427   -0.9878 C   0  0  0  0  0  0  0  0  0  0  0  0
   -0.4469   -0.6338   -1.8340 H   0  0  0  0  0  0  0  0  0  0  0  0
    1.0631   -0.0479   -1.1327 H   0  0  0  0  0  0  0  0  0  0  0  0
    0.7807   -2.1467   -0.9903 C   0  0  0  0  0  0  0  0  0  0  0  0
    0.9273   -2.9670    0.1078 N   0  0  0  0  0  0  0  0  0  0  0  0
    0.7599   -2.7099    1.0690 H   0  0  0  0  0  0  0  0  0  0  0  0
    1.3384   -4.1708   -0.3248 C   0  0  0  0  0  0  0  0  0  0  0  0
    1.5466   -5.0255    0.3072 H   0  0  0  0  0  0  0  0  0  0  0  0
    1.4532   -4.1699   -1.6609 N   0  0  0  0  0  0  0  0  0  0  0  0
    1.1056   -2.8880   -2.0949 C   0  0  0  0  0  0  0  0  0  0  0  0
    1.0643   -2.5505   -3.1225 H   0  0  0  0  0  0  0  0  0  0  0  0
   -0.6600    1.1486    0.4782 C   0  0  0  0  0  0  0  0  0  0  0  0
   -1.5001    1.7648   -0.1771 O   0  0  0  0  0  0  0  0  0  0  0  0
    0.1634    1.7559    1.3418 N   0  0  0  0  0  0  0  0  0  0  0  0
    0.8618    1.1897    1.8008 H   0  0  0  0  0  0  0  0  0  0  0  0
    0.1509    3.1886    1.6256 C   0  0  0  0  0  0  0  0  0  0  0  0
   -0.8272    3.4794    2.0152 H   0  0  0  0  0  0  0  0  0  0  0  0
    0.9172    3.4314    2.3624 H   0  0  0  0  0  0  0  0  0  0  0  0
    0.3414    3.7499    0.7095 H   0  0  0  0  0  0  0  0  0  0  0  0
  5  6  2  0  0  0  0
  5  7  1  0  0  0  0
  2  3  1  0  0  0  0
  2  4  1  0  0  0  0
  2  5  1  0  0  0  0
  1  2  1  0  0  0  0
 22 23  2  0  0  0  0
 22 24  1  0  0  0  0
 20 21  1  0  0  0  0
 19 20  1  0  0  0  0
 17 18  1  0  0  0  0
 17 19  2  0  0  0  0
 15 16  1  0  0  0  0
 15 17  1  0  0  0  0
 14 15  1  0  0  0  0
 14 20  2  0  0  0  0
 11 12  1  0  0  0  0
 11 13  1  0  0  0  0
 11 14  1  0  0  0  0
  9 10  1  0  0  0  0
  9 11  1  0  0  0  0
  9 22  1  0  0  0  0
  7  8  1  0  0  0  0
  7  9  1  0  0  0  0
 26 27  1  0  0  0  0
 26 28  1  0  0  0  0
 26 29  1  0  0  0  0
 24 25  1  0  0  0  0
 24 26  1  0  0  0  0
M  END
$$$$
default_name
  -OEChem-02102213163D

 29 29  0     1  0  0  0  0  0999 V2000
   -3.6042   -3.5728    1.4576 H   0  0  0  0  0  0  0  0  0  0  0  0
   -3.5202   -2.6488    0.8866 C   0  0  0  0  0  0  0  0  0  0  0  0
   -4.2052   -1.9048    1.2896 H   0  0  0  0  0  0  0  0  0  0  0  0
   -3.7552   -2.8428   -0.1584 H   0  0  0  0  0  0  0  0  0  0  0  0
   -2.1052   -2.1358    0.9946 C   0  0  0  0  0  0  0  0  0  0  0  0
   -1.2852   -2.7288    1.6826 O   0  0  0  0  0  0  0  0  0  0  0  0
   -1.8202   -1.0288    0.3146 N   0  0  0  0  0  0  0  0  0  0  0  0
   -2.5542   -0.5788   -0.2104 H   0  0  0  0  0  0  0  0  0  0  0  0
   -0.5102   -0.3728    0.3086 C   0  0  1  0  0  0  0  0  0  0  0  0
    0.0719   -0.7468    1.1521 H   0  0  0  0  0  0  0  0  0  0  0  0
    0.2338   -0.7427   -0.9878 C   0  0  0  0  0  0  0  0  0  0  0  0
   -0.4469   -0.6338   -1.8340 H   0  0  0  0  0  0  0  0  0  0  0  0
    1.0631   -0.0479   -1.1327 H   0  0  0  0  0  0  0  0  0  0  0  0
    0.7807   -2.1467   -0.9903 C   0  0  0  0  0  0  0  0  0  0  0  0
    0.6672   -3.0682    0.0286 N   0  0  0  0  0  0  0  0  0  0  0  0
    0.2701   -2.9005    0.9409 H   0  0  0  0  0  0  0  0  0  0  0  0
    1.1839   -4.2309   -0.4033 C   0  0  0  0  0  0  0  0  0  0  0  0
    1.2430   -5.1436    0.1770 H   0  0  0  0  0  0  0  0  0  0  0  0
    1.6175   -4.1059   -1.6660 N   0  0  0  0  0  0  0  0  0  0  0  0
    1.3706   -2.7848   -2.0486 C   0  0  0  0  0  0  0  0  0  0  0  0
    1.5746   -2.3519   -3.0194 H   0  0  0  0  0  0  0  0  0  0  0  0
   -0.6600    1.1486    0.4782 C   0  0  0  0  0  0  0  0  0  0  0  0
   -1.5001    1.7648   -0.1771 O   0  0  0  0  0  0  0  0  0  0  0  0
    0.1634    1.7559    1.3418 N   0  0  0  0  0  0  0  0  0  0  0  0
    0.8618    1.1897    1.8008 H   0  0  0  0  0  0  0  0  0  0  0  0
    0.1509    3.1886    1.6256 C   0  0  0  0  0  0  0  0  0  0  0  0
   -0.8272    3.4794    2.0152 H   0  0  0  0  0  0  0  0  0  0  0  0
    0.9172    3.4314    2.3624 H   0  0  0  0  0  0  0  0  0  0  0  0
    0.3414    3.7499    0.7095 H   0  0  0  0  0  0  0  0  0  0  0  0
  5  6  2  0  0  0  0
  5  7  1  0  0  0  0
  2  3  1  0  0  0  0
  2  4  1  0  0  0  0
  2  5  1  0  0  0  0
  1  2  1  0  0  0  0
 22 23  2  0  0  0  0
 22 24  1  0  0  0  0
 20 21  1  0  0  0  0
 19 20  1  0  0  0  0
 17 18  1  0  0  0  0
 17 19  2  0  0  0  0
 15 16  1  0  0  0  0
 15 17  1  0  0  0  0
 14 15  1  0  0  0  0
 14 20  2  0  0  0  0
 11 12  1  0  0  0  0
 11 13  1  0  0  0  0
 11 14  1  0  0  0  0
  9 10  1  0  0  0  0
  9 11  1  0  0  0  0
  9 22  1  0  0  0  0
  7  8  1  0  0  0  0
  7  9  1  0  0  0  0
 26 27  1  0  0  0  0
 26 28  1  0  0  0  0
 26 29  1  0  0  0  0
 24 25  1  0  0  0  0
 24 26  1  0  0  0  0
M  END
$$$$
default_name
  -OEChem-02102213163D

 29 29  0     1  0  0  0  0  0999 V2000
   -3.6042   -3.5728    1.4576 H   0  0  0  0  0  0  0  0  0  0  0  0
   -3.5202   -2.6488    0.8866 C   0  0  0  0  0  0  0  0  0  0  0  0
   -4.2052   -1.9048    1.2896 H   0  0  0  0  0  0  0  0  0  0  0  0
   -3.7552   -2.8428   -0.1584 H   0  0  0  0  0  0  0  0  0  0  0  0
   -2.1052   -2.1358    0.9946 C   0  0  0  0  0  0  0  0  0  0  0  0
   -1.2852   -2.7288    1.6826 O   0  0  0  0  0  0  0  0  0  0  0  0
   -1.8202   -1.0288    0.3146 N   0  0  0  0  0  0  0  0  0  0  0  0
   -2.5542   -0.5788   -0.2104 H   0  0  0  0  0  0  0  0  0  0  0  0
   -0.5102   -0.3728    0.3086 C   0  0  1  0  0  0  0  0  0  0  0  0
    0.0719   -0.7468    1.1521 H   0  0  0  0  0  0  0  0  0  0  0  0
    0.2338   -0.7427   -0.9878 C   0  0  0  0  0  0  0  0  0  0  0  0
   -0.4469   -0.6338   -1.8340 H   0  0  0  0  0  0  0  0  0  0  0  0
    1.0631   -0.0479   -1.1327 H   0  0  0  0  0  0  0  0  0  0  0  0
    0.7807   -2.1467   -0.9903 C   0  0  0  0  0  0  0  0  0  0  0  0
    0.4351   -3.1583   -0.1201 N   0  0  0  0  0  0  0  0  0  0  0  0
   -0.1722   -3.0723    0.6811 H   0  0  0  0  0  0  0  0  0  0  0  0
    1.0535   -4.2815   -0.5219 C   0  0  0  0  0  0  0  0  0  0  0  0
    0.9810   -5.2452   -0.0330 H   0  0  0  0  0  0  0  0  0  0  0  0
    1.7775   -4.0436   -1.6254 N   0  0  0  0  0  0  0  0  0  0  0  0
    1.6155   -2.6896   -1.9303 C   0  0  0  0  0  0  0  0  0  0  0  0
    2.0428   -2.1699   -2.7781 H   0  0  0  0  0  0  0  0  0  0  0  0
   -0.6600    1.1486    0.4782 C   0  0  0  0  0  0  0  0  0  0  0  0
   -1.5001    1.7648   -0.1771 O   0  0  0  0  0  0  0  0  0  0  0  0
    0.1634    1.7559    1.3418 N   0  0  0  0  0  0  0  0  0  0  0  0
    0.8618    1.1897    1.8008 H   0  0  0  0  0  0  0  0  0  0  0  0
    0.1509    3.1886    1.6256 C   0  0  0  0  0  0  0  0  0  0  0  0
   -0.8272    3.4794    2.0152 H   0  0  0  0  0  0  0  0  0  0  0  0
    0.9172    3.4314    2.3624 H   0  0  0  0  0  0  0  0  0  0  0  0
    0.3414    3.7499    0.7095 H   0  0  0  0  0  0  0  0  0  0  0  0
  5  6  2  0  0  0  0
  5  7  1  0  0  0  0
  2  3  1  0  0  0  0
  2  4  1  0  0  0  0
  2  5  1  0  0  0  0
  1  2  1  0  0  0  0
 22 23  2  0  0  0  0
 22 24  1  0  0  0  0
 20 21  1  0  0  0  0
 19 20  1  0  0  0  0
 17 18  1  0  0  0  0
 17 19  2  0  0  0  0
 15 16  1  0  0  0  0
 15 17  1  0  0  0  0
 14 15  1  0  0  0  0
 14 20  2  0  0  0  0
 11 12  1  0  0  0  0
 11 13  1  0  0  0  0
 11 14  1  0  0  0  0
  9 10  1  0  0  0  0
  9 11  1  0  0  0  0
  9 22  1  0  0  0  0
  7  8  1  0  0  0  0
  7  9  1  0  0  0  0
 26 27  1  0  0  0  0
 26 28  1  0  0  0  0
 26 29  1  0  0  0  0
 24 25  1  0  0  0  0
 24 26  1  0  0  0  0
M  END
$$$$
default_name
  -OEChem-02102213163D

 29 29  0     1  0  0  0  0  0999 V2000
   -3.6042   -3.5728    1.4576 H   0  0  0  0  0  0  0  0  0  0  0  0
   -3.5202   -2.6488    0.8866 C   0  0  0  0  0  0  0  0  0  0  0  0
   -4.2052   -1.9048    1.2896 H   0  0  0  0  0  0  0  0  0  0  0  0
   -3.7552   -2.8428   -0.1584 H   0  0  0  0  0  0  0  0  0  0  0  0
   -2.1052   -2.1358    0.9946 C   0  0  0  0  0  0  0  0  0  0  0  0
   -1.2852   -2.7288    1.6826 O   0  0  0  0  0  0  0  0  0  0  0  0
   -1.8202   -1.0288    0.3146 N   0  0  0  0  0  0  0  0  0  0  0  0
   -2.5542   -0.5788   -0.2104 H   0  0  0  0  0  0  0  0  0  0  0  0
   -0.5102   -0.3728    0.3086 C   0  0  1  0  0  0  0  0  0  0  0  0
    0.0719   -0.7468    1.1521 H   0  0  0  0  0  0  0  0  0  0  0  0
    0.2338   -0.7427   -0.9878 C   0  0  0  0  0  0  0  0  0  0  0  0
   -0.4469   -0.6338   -1.8340 H   0  0  0  0  0  0  0  0  0  0  0  0
    1.0631   -0.0479   -1.1327 H   0  0  0  0  0  0  0  0  0  0  0  0
    0.7807   -2.1467   -0.9903 C   0  0  0  0  0  0  0  0  0  0  0  0
    0.2467   -3.2314   -0.3282 N   0  0  0  0  0  0  0  0  0  0  0  0
   -0.5369   -3.2137    0.3073 H   0  0  0  0  0  0  0  0  0  0  0  0
    0.9562   -4.3191   -0.6728 C   0  0  0  0  0  0  0  0  0  0  0  0
    0.7786   -5.3236   -0.3085 H   0  0  0  0  0  0  0  0  0  0  0  0
    1.9223   -3.9874   -1.5417 N   0  0  0  0  0  0  0  0  0  0  0  0
    1.8236   -2.6089   -1.7480 C   0  0  0  0  0  0  0  0  0  0  0  0
    2.4369   -2.0171   -2.4150 H   0  0  0  0  0  0  0  0  0  0  0  0
   -0.6600    1.1486    0.4782 C   0  0  0  0  0  0  0  0  0  0  0  0
   -1.5001    1.7648   -0.1771 O   0  0  0  0  0  0  0  0  0  0  0  0
    0.1634    1.7559    1.3418 N   0  0  0  0  0  0  0  0  0  0  0  0
    0.8618    1.1897    1.8008 H   0  0  0  0  0  0  0  0  0  0  0  0
    0.1509    3.1886    1.6256 C   0  0  0  0  0  0  0  0  0  0  0  0
   -0.8272    3.4794    2.0152 H   0  0  0  0  0  0  0  0  0  0  0  0
    0.9172    3.4314    2.3624 H   0  0  0  0  0  0  0  0  0  0  0  0
    0.3414    3.7499    0.7095 H   0  0  0  0  0  0  0  0  0  0  0  0
  5  6  2  0  0  0  0
  5  7  1  0  0  0  0
  2  3  1  0  0  0  0
  2  4  1  0  0  0  0
  2  5  1  0  0  0  0
  1  2  1  0  0  0  0
 22 23  2  0  0  0  0
 22 24  1  0  0  0  0
 20 21  1  0  0  0  0
 19 20  1  0  0  0  0
 17 18  1  0  0  0  0
 17 19  2  0  0  0  0
 15 16  1  0  0  0  0
 15 17  1  0  0  0  0
 14 15  1  0  0  0  0
 14 20  2  0  0  0  0
 11 12  1  0  0  0  0
 11 13  1  0  0  0  0
 11 14  1  0  0  0  0
  9 10  1  0  0  0  0
  9 11  1  0  0  0  0
  9 22  1  0  0  0  0
  7  8  1  0  0  0  0
  7  9  1  0  0  0  0
 26 27  1  0  0  0  0
 26 28  1  0  0  0  0
 26 29  1  0  0  0  0
 24 25  1  0  0  0  0
 24 26  1  0  0  0  0
M  END
$$$$
default_name
  -OEChem-02102213163D

 29 29  0     1  0  0  0  0  0999 V2000
   -3.6042   -3.5728    1.4576 H   0  0  0  0  0  0  0  0  0  0  0  0
   -3.5202   -2.6488    0.8866 C   0  0  0  0  0  0  0  0  0  0  0  0
   -4.2052   -1.9048    1.2896 H   0  0  0  0  0  0  0  0  0  0  0  0
   -3.7552   -2.8428   -0.1584 H   0  0  0  0  0  0  0  0  0  0  0  0
   -2.1052   -2.1358    0.9946 C   0  0  0  0  0  0  0  0  0  0  0  0
   -1.2852   -2.7288    1.6826 O   0  0  0  0  0  0  0  0  0  0  0  0
   -1.8202   -1.0288    0.3146 N   0  0  0  0  0  0  0  0  0  0  0  0
   -2.5542   -0.5788   -0.2104 H   0  0  0  0  0  0  0  0  0  0  0  0
   -0.5102   -0.3728    0.3086 C   0  0  1  0  0  0  0  0  0  0  0  0
    0.0719   -0.7468    1.1521 H   0  0  0  0  0  0  0  0  0  0  0  0
    0.2338   -0.7427   -0.9878 C   0  0  0  0  0  0  0  0  0  0  0  0
   -0.4469   -0.6338   -1.8340 H   0  0  0  0  0  0  0  0  0  0  0  0
    1.0631   -0.0479   -1.1327 H   0  0  0  0  0  0  0  0  0  0  0  0
    0.7807   -2.1467   -0.9903 C   0  0  0  0  0  0  0  0  0  0  0  0
    0.1148   -3.2823   -0.5815 N   0  0  0  0  0  0  0  0  0  0  0  0
   -0.7990   -3.3150   -0.1549 H   0  0  0  0  0  0  0  0  0  0  0  0
    0.8986   -4.3413   -0.8455 C   0  0  0  0  0  0  0  0  0  0  0  0
    0.6496   -5.3733   -0.6309 H   0  0  0  0  0  0  0  0  0  0  0  0
    2.0420   -3.9410   -1.4206 N   0  0  0  0  0  0  0  0  0  0  0  0
    1.9806   -2.5481   -1.5141 C   0  0  0  0  0  0  0  0  0  0  0  0
    2.7301   -1.9036   -1.9549 H   0  0  0  0  0  0  0  0  0  0  0  0
   -0.6600    1.1486    0.4782 C   0  0  0  0  0  0  0  0  0  0  0  0
   -1.5001    1.7648   -0.1771 O   0  0  0  0  0  0  0  0  0  0  0  0
    0.1634    1.7559    1.3418 N   0  0  0  0  0  0  0  0  0  0  0  0
    0.8618    1.1897    1.8008 H   0  0  0  0  0  0  0  0  0  0  0  0
    0.1509    3.1886    1.6256 C   0  0  0  0  0  0  0  0  0  0  0  0
   -0.8272    3.4794    2.0152 H   0  0  0  0  0  0  0  0  0  0  0  0
    0.9172    3.4314    2.3624 H   0  0  0  0  0  0  0  0  0  0  0  0
    0.3414    3.7499    0.7095 H   0  0  0  0  0  0  0  0  0  0  0  0
  5  6  2  0  0  0  0
  5  7  1  0  0  0  0
  2  3  1  0  0  0  0
  2  4  1  0  0  0  0
  2  5  1  0  0  0  0
  1  2  1  0  0  0  0
 22 23  2  0  0  0  0
 22 24  1  0  0  0  0
 20 21  1  0  0  0  0
 19 20  1  0  0  0  0
 17 18  1  0  0  0  0
 17 19  2  0  0  0  0
 15 16  1  0  0  0  0
 15 17  1  0  0  0  0
 14 15  1  0  0  0  0
 14 20  2  0  0  0  0
 11 12  1  0  0  0  0
 11 13  1  0  0  0  0
 11 14  1  0  0  0  0
  9 10  1  0  0  0  0
  9 11  1  0  0  0  0
  9 22  1  0  0  0  0
  7  8  1  0  0  0  0
  7  9  1  0  0  0  0
 26 27  1  0  0  0  0
 26 28  1  0  0  0  0
 26 29  1  0  0  0  0
 24 25  1  0  0  0  0
 24 26  1  0  0  0  0
M  END
$$$$
default_name
  -OEChem-02102213163D

 29 29  0     1  0  0  0  0  0999 V2000
   -3.6042   -3.5728    1.4576 H   0  0  0  0  0  0  0  0  0  0  0  0
   -3.5202   -2.6488    0.8866 C   0  0  0  0  0  0  0  0  0  0  0  0
   -4.2052   -1.9048    1.2896 H   0  0  0  0  0  0  0  0  0  0  0  0
   -3.7552   -2.8428   -0.1584 H   0  0  0  0  0  0  0  0  0  0  0  0
   -2.1052   -2.1358    0.9946 C   0  0  0  0  0  0  0  0  0  0  0  0
   -1.2852   -2.7288    1.6826 O   0  0  0  0  0  0  0  0  0  0  0  0
   -1.8202   -1.0288    0.3146 N   0  0  0  0  0  0  0  0  0  0  0  0
   -2.5542   -0.5788   -0.2104 H   0  0  0  0  0  0  0  0  0  0  0  0
   -0.5102   -0.3728    0.3086 C   0  0  1  0  0  0  0  0  0  0  0  0
    0.0719   -0.7468    1.1521 H   0  0  0  0  0  0  0  0  0  0  0  0
    0.2338   -0.7427   -0.9878 C   0  0  0  0  0  0  0  0  0  0  0  0
   -0.4469   -0.6338   -1.8340 H   0  0  0  0  0  0  0  0  0  0  0  0
    1.0631   -0.0479   -1.1327 H   0  0  0  0  0  0  0  0  0  0  0  0
    0.7807   -2.1467   -0.9903 C   0  0  0  0  0  0  0  0  0  0  0  0
    0.0485   -3.3076   -0.8628 N   0  0  0  0  0  0  0  0  0  0  0  0
   -0.9408   -3.3693   -0.6741 H   0  0  0  0  0  0  0  0  0  0  0  0
    0.8845   -4.3464   -1.0282 C   0  0  0  0  0  0  0  0  0  0  0  0
    0.6026   -5.3910   -0.9780 H   0  0  0  0  0  0  0  0  0  0  0  0
    2.1284   -3.9076   -1.2704 N   0  0  0  0  0  0  0  0  0  0  0  0
    2.0759   -2.5115   -1.2446 C   0  0  0  0  0  0  0  0  0  0  0  0
    2.9024   -1.8374   -1.4290 H   0  0  0  0  0  0  0  0  0  0  0  0
   -0.6600    1.1486    0.4782 C   0  0  0  0  0  0  0  0  0  0  0  0
   -1.5001    1.7648   -0.1771 O   0  0  0  0  0  0  0  0  0  0  0  0
    0.1634    1.7559    1.3418 N   0  0  0  0  0  0  0  0  0  0  0  0
    0.8618    1.1897    1.8008 H   0  0  0  0  0  0  0  0  0  0  0  0
    0.1509    3.1886    1.6256 C   0  0  0  0  0  0  0  0  0  0  0  0
   -0.8272    3.4794    2.0152 H   0  0  0  0  0  0  0  0  0  0  0  0
    0.9172    3.4314    2.3624 H   0  0  0  0  0  0  0  0  0  0  0  0
    0.3414    3.7499    0.7095 H   0  0  0  0  0  0  0  0  0  0  0  0
  5  6  2  0  0  0  0
  5  7  1  0  0  0  0
  2  3  1  0  0  0  0
  2  4  1  0  0  0  0
  2  5  1  0  0  0  0
  1  2  1  0  0  0  0
 22 23  2  0  0  0  0
 22 24  1  0  0  0  0
 20 21  1  0  0  0  0
 19 20  1  0  0  0  0
 17 18  1  0  0  0  0
 17 19  2  0  0  0  0
 15 16  1  0  0  0  0
 15 17  1  0  0  0  0
 14 15  1  0  0  0  0
 14 20  2  0  0  0  0
 11 12  1  0  0  0  0
 11 13  1  0  0  0  0
 11 14  1  0  0  0  0
  9 10  1  0  0  0  0
  9 11  1  0  0  0  0
  9 22  1  0  0  0  0
  7  8  1  0  0  0  0
  7  9  1  0  0  0  0
 26 27  1  0  0  0  0
 26 28  1  0  0  0  0
 26 29  1  0  0  0  0
 24 25  1  0  0  0  0
 24 26  1  0  0  0  0
M  END
$$$$
default_name
  -OEChem-02102213163D

 29 29  0     1  0  0  0  0  0999 V2000
   -3.6042   -3.5728    1.4576 H   0  0  0  0  0  0  0  0  0  0  0  0
   -3.5202   -2.6488    0.8866 C   0  0  0  0  0  0  0  0  0  0  0  0
   -4.2052   -1.9048    1.2896 H   0  0  0  0  0  0  0  0  0  0  0  0
   -3.7552   -2.8428   -0.1584 H   0  0  0  0  0  0  0  0  0  0  0  0
   -2.1052   -2.1358    0.9946 C   0  0  0  0  0  0  0  0  0  0  0  0
   -1.2852   -2.7288    1.6826 O   0  0  0  0  0  0  0  0  0  0  0  0
   -1.8202   -1.0288    0.3146 N   0  0  0  0  0  0  0  0  0  0  0  0
   -2.5542   -0.5788   -0.2104 H   0  0  0  0  0  0  0  0  0  0  0  0
   -0.5102   -0.3728    0.3086 C   0  0  1  0  0  0  0  0  0  0  0  0
    0.0719   -0.7468    1.1521 H   0  0  0  0  0  0  0  0  0  0  0  0
    0.2338   -0.7427   -0.9878 C   0  0  0  0  0  0  0  0  0  0  0  0
   -0.4469   -0.6338   -1.8340 H   0  0  0  0  0  0  0  0  0  0  0  0
    1.0631   -0.0479   -1.1327 H   0  0  0  0  0  0  0  0  0  0  0  0
    0.7807   -2.1467   -0.9903 C   0  0  0  0  0  0  0  0  0  0  0  0
    0.0524   -3.3056   -1.1528 N   0  0  0  0  0  0  0  0  0  0  0  0
   -0.9525   -3.3730   -1.2150 H   0  0  0  0  0  0  0  0  0  0  0  0
    0.9151   -4.3342   -1.2087 C   0  0  0  0  0  0  0  0  0  0  0  0
    0.6409   -5.3755   -1.3263 H   0  0  0  0  0  0  0  0  0  0  0  0
    2.1756   -3.8895   -1.1014 N   0  0  0  0  0  0  0  0  0  0  0  0
    2.1030   -2.5014   -0.9579 C   0  0  0  0  0  0  0  0  0  0  0  0
    2.9420   -1.8230   -0.8734 H   0  0  0  0  0  0  0  0  0  0  0  0
   -0.6600    1.1486    0.4782 C   0  0  0  0  0  0  0  0  0  0  0  0
   -1.5001    1.7648   -0.1771 O   0  0  0  0  0  0  0  0  0  0  0  0
    0.1634    1.7559    1.3418 N   0  0  0  0  0  0  0  0  0  0  0  0
    0.8618    1.1897    1.8008 H   0  0  0  0  0  0  0  0  0  0  0  0
    0.1509    3.1886    1.6256 C   0  0  0  0  0  0  0  0  0  0  0  0
   -0.8272    3.4794    2.0152 H   0  0  0  0  0  0  0  0  0  0  0  0
    0.9172    3.4314    2.3624 H   0  0  0  0  0  0  0  0  0  0  0  0
    0.3414    3.7499    0.7095 H   0  0  0  0  0  0  0  0  0  0  0  0
  5  6  2  0  0  0  0
  5  7  1  0  0  0  0
  2  3  1  0  0  0  0
  2  4  1  0  0  0  0
  2  5  1  0  0  0  0
  1  2  1  0  0  0  0
 22 23  2  0  0  0  0
 22 24  1  0  0  0  0
 20 21  1  0  0  0  0
 19 20  1  0  0  0  0
 17 18  1  0  0  0  0
 17 19  2  0  0  0  0
 15 16  1  0  0  0  0
 15 17  1  0  0  0  0
 14 15  1  0  0  0  0
 14 20  2  0  0  0  0
 11 12  1  0  0  0  0
 11 13  1  0  0  0  0
 11 14  1  0  0  0  0
  9 10  1  0  0  0  0
  9 11  1  0  0  0  0
  9 22  1  0  0  0  0
  7  8  1  0  0  0  0
  7  9  1  0  0  0  0
 26 27  1  0  0  0  0
 26 28  1  0  0  0  0
 26 29  1  0  0  0  0
 24 25  1  0  0  0  0
 24 26  1  0  0  0  0
M  END
$$$$
default_name
  -OEChem-02102213163D

 29 29  0     1  0  0  0  0  0999 V2000
   -3.6042   -3.5728    1.4576 H   0  0  0  0  0  0  0  0  0  0  0  0
   -3.5202   -2.6488    0.8866 C   0  0  0  0  0  0  0  0  0  0  0  0
   -4.2052   -1.9048    1.2896 H   0  0  0  0  0  0  0  0  0  0  0  0
   -3.7552   -2.8428   -0.1584 H   0  0  0  0  0  0  0  0  0  0  0  0
   -2.1052   -2.1358    0.9946 C   0  0  0  0  0  0  0  0  0  0  0  0
   -1.2852   -2.7288    1.6826 O   0  0  0  0  0  0  0  0  0  0  0  0
   -1.8202   -1.0288    0.3146 N   0  0  0  0  0  0  0  0  0  0  0  0
   -2.5542   -0.5788   -0.2104 H   0  0  0  0  0  0  0  0  0  0  0  0
   -0.5102   -0.3728    0.3086 C   0  0  1  0  0  0  0  0  0  0  0  0
    0.0719   -0.7468    1.1521 H   0  0  0  0  0  0  0  0  0  0  0  0
    0.2338   -0.7427   -0.9878 C   0  0  0  0  0  0  0  0  0  0  0  0
   -0.4469   -0.6338   -1.8340 H   0  0  0  0  0  0  0  0  0  0  0  0
    1.0631   -0.0479   -1.1327 H   0  0  0  0  0  0  0  0  0  0  0  0
    0.7807   -2.1467   -0.9903 C   0  0  0  0  0  0  0  0  0  0  0  0
    0.1260   -3.2765   -1.4318 N   0  0  0  0  0  0  0  0  0  0  0  0
   -0.8334   -3.3257   -1.7405 H   0  0  0  0  0  0  0  0  0  0  0  0
    0.9881   -4.3055   -1.3745 C   0  0  0  0  0  0  0  0  0  0  0  0
    0.7620   -5.3278   -1.6521 H   0  0  0  0  0  0  0  0  0  0  0  0
    2.1805   -3.8879   -0.9251 N   0  0  0  0  0  0  0  0  0  0  0  0
    2.0600   -2.5187   -0.6735 C   0  0  0  0  0  0  0  0  0  0  0  0
    2.8463   -1.8612   -0.3257 H   0  0  0  0  0  0  0  0  0  0  0  0
   -0.6600    1.1486    0.4782 C   0  0  0  0  0  0  0  0  0  0  0  0
   -1.5001    1.7648   -0.1771 O   0  0  0  0  0  0  0  0  0  0  0  0
    0.1634    1.7559    1.3418 N   0  0  0  0  0  0  0  0  0  0  0  0
    0.8618    1.1897    1.8008 H   0  0  0  0  0  0  0  0  0  0  0  0
    0.1509    3.1886    1.6256 C   0  0  0  0  0  0  0  0  0  0  0  0
   -0.8272    3.4794    2.0152 H   0  0  0  0  0  0  0  0  0  0  0  0
    0.9172    3.4314    2.3624 H   0  0  0  0  0  0  0  0  0  0  0  0
    0.3414    3.7499    0.7095 H   0  0  0  0  0  0  0  0  0  0  0  0
  5  6  2  0  0  0  0
  5  7  1  0  0  0  0
  2  3  1  0  0  0  0
  2  4  1  0  0  0  0
  2  5  1  0  0  0  0
  1  2  1  0  0  0  0
 22 23  2  0  0  0  0
 22 24  1  0  0  0  0
 20 21  1  0  0  0  0
 19 20  1  0  0  0  0
 17 18  1  0  0  0  0
 17 19  2  0  0  0  0
 15 16  1  0  0  0  0
 15 17  1  0  0  0  0
 14 15  1  0  0  0  0
 14 20  2  0  0  0  0
 11 12  1  0  0  0  0
 11 13  1  0  0  0  0
 11 14  1  0  0  0  0
  9 10  1  0  0  0  0
  9 11  1  0  0  0  0
  9 22  1  0  0  0  0
  7  8  1  0  0  0  0
  7  9  1  0  0  0  0
 26 27  1  0  0  0  0
 26 28  1  0  0  0  0
 26 29  1  0  0  0  0
 24 25  1  0  0  0  0
 24 26  1  0  0  0  0
M  END
$$$$
default_name
  -OEChem-02102213163D

 29 29  0     1  0  0  0  0  0999 V2000
   -3.6042   -3.5728    1.4576 H   0  0  0  0  0  0  0  0  0  0  0  0
   -3.5202   -2.6488    0.8866 C   0  0  0  0  0  0  0  0  0  0  0  0
   -4.2052   -1.9048    1.2896 H   0  0  0  0  0  0  0  0  0  0  0  0
   -3.7552   -2.8428   -0.1584 H   0  0  0  0  0  0  0  0  0  0  0  0
   -2.1052   -2.1358    0.9946 C   0  0  0  0  0  0  0  0  0  0  0  0
   -1.2852   -2.7288    1.6826 O   0  0  0  0  0  0  0  0  0  0  0  0
   -1.8202   -1.0288    0.3146 N   0  0  0  0  0  0  0  0  0  0  0  0
   -2.5542   -0.5788   -0.2104 H   0  0  0  0  0  0  0  0  0  0  0  0
   -0.5102   -0.3728    0.3086 C   0  0  1  0  0  0  0  0  0  0  0  0
    0.0719   -0.7468    1.1521 H   0  0  0  0  0  0  0  0  0  0  0  0
    0.2338   -0.7427   -0.9878 C   0  0  0  0  0  0  0  0  0  0  0  0
   -0.4469   -0.6338   -1.8340 H   0  0  0  0  0  0  0  0  0  0  0  0
    1.0631   -0.0479   -1.1327 H   0  0  0  0  0  0  0  0  0  0  0  0
    0.7807   -2.1467   -0.9903 C   0  0  0  0  0  0  0  0  0  0  0  0
    0.2644   -3.2221   -1.6808 N   0  0  0  0  0  0  0  0  0  0  0  0
   -0.5916   -3.2307   -2.2150 H   0  0  0  0  0  0  0  0  0  0  0  0
    1.0986   -4.2622   -1.5143 C   0  0  0  0  0  0  0  0  0  0  0  0
    0.9575   -5.2511   -1.9330 H   0  0  0  0  0  0  0  0  0  0  0  0
    2.1427   -3.9029   -0.7534 N   0  0  0  0  0  0  0  0  0  0  0  0
    1.9499   -2.5620   -0.4108 C   0  0  0  0  0  0  0  0  0  0  0  0
    2.6217   -1.9495    0.1766 H   0  0  0  0  0  0  0  0  0  0  0  0
   -0.6600    1.1486    0.4782 C   0  0  0  0  0  0  0  0  0  0  0  0
   -1.5001    1.7648   -0.1771 O   0  0  0  0  0  0  0  0  0  0  0  0
    0.1634    1.7559    1.3418 N   0  0  0  0  0  0  0  0  0  0  0  0
    0.8618    1.1897    1.8008 H   0  0  0  0  0  0  0  0  0  0  0  0
    0.1509    3.1886    1.6256 C   0  0  0  0  0  0  0  0  0  0  0  0
   -0.8272    3.4794    2.0152 H   0  0  0  0  0  0  0  0  0  0  0  0
    0.9172    3.4314    2.3624 H   0  0  0  0  0  0  0  0  0  0  0  0
    0.3414    3.7499    0.7095 H   0  0  0  0  0  0  0  0  0  0  0  0
  5  6  2  0  0  0  0
  5  7  1  0  0  0  0
  2  3  1  0  0  0  0
  2  4  1  0  0  0  0
  2  5  1  0  0  0  0
  1  2  1  0  0  0  0
 22 23  2  0  0  0  0
 22 24  1  0  0  0  0
 20 21  1  0  0  0  0
 19 20  1  0  0  0  0
 17 18  1  0  0  0  0
 17 19  2  0  0  0  0
 15 16  1  0  0  0  0
 15 17  1  0  0  0  0
 14 15  1  0  0  0  0
 14 20  2  0  0  0  0
 11 12  1  0  0  0  0
 11 13  1  0  0  0  0
 11 14  1  0  0  0  0
  9 10  1  0  0  0  0
  9 11  1  0  0  0  0
  9 22  1  0  0  0  0
  7  8  1  0  0  0  0
  7  9  1  0  0  0  0
 26 27  1  0  0  0  0
 26 28  1  0  0  0  0
 26 29  1  0  0  0  0
 24 25  1  0  0  0  0
 24 26  1  0  0  0  0
M  END
$$$$
default_name
  -OEChem-02102213163D

 29 29  0     1  0  0  0  0  0999 V2000
   -3.6042   -3.5728    1.4576 H   0  0  0  0  0  0  0  0  0  0  0  0
   -3.5202   -2.6488    0.8866 C   0  0  0  0  0  0  0  0  0  0  0  0
   -4.2052   -1.9048    1.2896 H   0  0  0  0  0  0  0  0  0  0  0  0
   -3.7552   -2.8428   -0.1584 H   0  0  0  0  0  0  0  0  0  0  0  0
   -2.1052   -2.1358    0.9946 C   0  0  0  0  0  0  0  0  0  0  0  0
   -1.2852   -2.7288    1.6826 O   0  0  0  0  0  0  0  0  0  0  0  0
   -1.8202   -1.0288    0.3146 N   0  0  0  0  0  0  0  0  0  0  0  0
   -2.5542   -0.5788   -0.2104 H   0  0  0  0  0  0  0  0  0  0  0  0
   -0.5102   -0.3728    0.3086 C   0  0  1  0  0  0  0  0  0  0  0  0
    0.0719   -0.7468    1.1521 H   0  0  0  0  0  0  0  0  0  0  0  0
    0.2338   -0.7427   -0.9878 C   0  0  0  0  0  0  0  0  0  0  0  0
   -0.4469   -0.6338   -1.8340 H   0  0  0  0  0  0  0  0  0  0  0  0
    1.0631   -0.0479   -1.1327 H   0  0  0  0  0  0  0  0  0  0  0  0
    0.7807   -2.1467   -0.9903 C   0  0  0  0  0  0  0  0  0  0  0  0
    0.4582   -3.1463   -1.8829 N   0  0  0  0  0  0  0  0  0  0  0  0
   -0.2436   -3.0944   -2.6061 H   0  0  0  0  0  0  0  0  0  0  0  0
    1.2390   -4.2073   -1.6186 C   0  0  0  0  0  0  0  0  0  0  0  0
    1.2141   -5.1508   -2.1501 H   0  0  0  0  0  0  0  0  0  0  0  0
    2.0648   -3.9335   -0.5981 N   0  0  0  0  0  0  0  0  0  0  0  0
    1.7802   -2.6285   -0.1876 C   0  0  0  0  0  0  0  0  0  0  0  0
    2.2837   -2.0820    0.5993 H   0  0  0  0  0  0  0  0  0  0  0  0
   -0.6600    1.1486    0.4782 C   0  0  0  0  0  0  0  0  0  0  0  0
   -1.5001    1.7648   -0.1771 O   0  0  0  0  0  0  0  0  0  0  0  0
    0.1634    1.7559    1.3418 N   0  0  0  0  0  0  0  0  0  0  0  0
    0.8618    1.1897    1.8008 H   0  0  0  0  0  0  0  0  0  0  0  0
    0.1509    3.1886    1.6256 C   0  0  0  0  0  0  0  0  0  0  0  0
   -0.8272    3.4794    2.0152 H   0  0  0  0  0  0  0  0  0  0  0  0
    0.9172    3.4314    2.3624 H   0  0  0  0  0  0  0  0  0  0  0  0
    0.3414    3.7499    0.7095 H   0  0  0  0  0  0  0  0  0  0  0  0
  5  6  2  0  0  0  0
  5  7  1  0  0  0  0
  2  3  1  0  0  0  0
  2  4  1  0  0  0  0
  2  5  1  0  0  0  0
  1  2  1  0  0  0  0
 22 23  2  0  0  0  0
 22 24  1  0  0  0  0
 20 21  1  0  0  0  0
 19 20  1  0  0  0  0
 17 18  1  0  0  0  0
 17 19  2  0  0  0  0
 15 16  1  0  0  0  0
 15 17  1  0  0  0  0
 14 15  1  0  0  0  0
 14 20  2  0  0  0  0
 11 12  1  0  0  0  0
 11 13  1  0  0  0  0
 11 14  1  0  0  0  0
  9 10  1  0  0  0  0
  9 11  1  0  0  0  0
  9 22  1  0  0  0  0
  7  8  1  0  0  0  0
  7  9  1  0  0  0  0
 26 27  1  0  0  0  0
 26 28  1  0  0  0  0
 26 29  1  0  0  0  0
 24 25  1  0  0  0  0
 24 26  1  0  0  0  0
M  END
$$$$
default_name
  -OEChem-02102213163D

 29 29  0     1  0  0  0  0  0999 V2000
   -3.6042   -3.5728    1.4576 H   0  0  0  0  0  0  0  0  0  0  0  0
   -3.5202   -2.6488    0.8866 C   0  0  0  0  0  0  0  0  0  0  0  0
   -4.2052   -1.9048    1.2896 H   0  0  0  0  0  0  0  0  0  0  0  0
   -3.7552   -2.8428   -0.1584 H   0  0  0  0  0  0  0  0  0  0  0  0
   -2.1052   -2.1358    0.9946 C   0  0  0  0  0  0  0  0  0  0  0  0
   -1.2852   -2.7288    1.6826 O   0  0  0  0  0  0  0  0  0  0  0  0
   -1.8202   -1.0288    0.3146 N   0  0  0  0  0  0  0  0  0  0  0  0
   -2.5542   -0.5788   -0.2104 H   0  0  0  0  0  0  0  0  0  0  0  0
   -0.5102   -0.3728    0.3086 C   0  0  1  0  0  0  0  0  0  0  0  0
    0.0719   -0.7468    1.1521 H   0  0  0  0  0  0  0  0  0  0  0  0
    0.2338   -0.7427   -0.9878 C   0  0  0  0  0  0  0  0  0  0  0  0
   -0.4469   -0.6338   -1.8340 H   0  0  0  0  0  0  0  0  0  0  0  0
    1.0631   -0.0479   -1.1327 H   0  0  0  0  0  0  0  0  0  0  0  0
    0.7807   -2.1467   -0.9903 C   0  0  0  0  0  0  0  0  0  0  0  0
    0.6941   -3.0541   -2.0242 N   0  0  0  0  0  0  0  0  0  0  0  0
    0.1870   -2.9262   -2.8871 H   0  0  0  0  0  0  0  0  0  0  0  0
    1.3999   -4.1445   -1.6804 C   0  0  0  0  0  0  0  0  0  0  0  0
    1.5144   -5.0336   -2.2884 H   0  0  0  0  0  0  0  0  0  0  0  0
    1.9521   -3.9776   -0.4697 N   0  0  0  0  0  0  0  0  0  0  0  0
    1.5623   -2.7137   -0.0192 C   0  0  0  0  0  0  0  0  0  0  0  0
    1.8551   -2.2495    0.9137 H   0  0  0  0  0  0  0  0  0  0  0  0
   -0.6600    1.1486    0.4782 C   0  0  0  0  0  0  0  0  0  0  0  0
   -1.5001    1.7648   -0.1771 O   0  0  0  0  0  0  0  0  0  0  0  0
    0.1634    1.7559    1.3418 N   0  0  0  0  0  0  0  0  0  0  0  0
    0.8618    1.1897    1.8008 H   0  0  0  0  0  0  0  0  0  0  0  0
    0.1509    3.1886    1.6256 C   0  0  0  0  0  0  0  0  0  0  0  0
   -0.8272    3.4794    2.0152 H   0  0  0  0  0  0  0  0  0  0  0  0
    0.9172    3.4314    2.3624 H   0  0  0  0  0  0  0  0  0  0  0  0
    0.3414    3.7499    0.7095 H   0  0  0  0  0  0  0  0  0  0  0  0
  5  6  2  0  0  0  0
  5  7  1  0  0  0  0
  2  3  1  0  0  0  0
  2  4  1  0  0  0  0
  2  5  1  0  0  0  0
  1  2  1  0  0  0  0
 22 23  2  0  0  0  0
 22 24  1  0  0  0  0
 20 21  1  0  0  0  0
 19 20  1  0  0  0  0
 17 18  1  0  0  0  0
 17 19  2  0  0  0  0
 15 16  1  0  0  0  0
 15 17  1  0  0  0  0
 14 15  1  0  0  0  0
 14 20  2  0  0  0  0
 11 12  1  0  0  0  0
 11 13  1  0  0  0  0
 11 14  1  0  0  0  0
  9 10  1  0  0  0  0
  9 11  1  0  0  0  0
  9 22  1  0  0  0  0
  7  8  1  0  0  0  0
  7  9  1  0  0  0  0
 26 27  1  0  0  0  0
 26 28  1  0  0  0  0
 26 29  1  0  0  0  0
 24 25  1  0  0  0  0
 24 26  1  0  0  0  0
M  END
$$$$
default_name
  -OEChem-02102213163D

 29 29  0     1  0  0  0  0  0999 V2000
   -3.6042   -3.5728    1.4576 H   0  0  0  0  0  0  0  0  0  0  0  0
   -3.5202   -2.6488    0.8866 C   0  0  0  0  0  0  0  0  0  0  0  0
   -4.2052   -1.9048    1.2896 H   0  0  0  0  0  0  0  0  0  0  0  0
   -3.7552   -2.8428   -0.1584 H   0  0  0  0  0  0  0  0  0  0  0  0
   -2.1052   -2.1358    0.9946 C   0  0  0  0  0  0  0  0  0  0  0  0
   -1.2852   -2.7288    1.6826 O   0  0  0  0  0  0  0  0  0  0  0  0
   -1.8202   -1.0288    0.3146 N   0  0  0  0  0  0  0  0  0  0  0  0
   -2.5542   -0.5788   -0.2104 H   0  0  0  0  0  0  0  0  0  0  0  0
   -0.5102   -0.3728    0.3086 C   0  0  1  0  0  0  0  0  0  0  0  0
    0.0719   -0.7468    1.1521 H   0  0  0  0  0  0  0  0  0  0  0  0
    0.2338   -0.7427   -0.9878 C   0  0  0  0  0  0  0  0  0  0  0  0
   -0.4469   -0.6338   -1.8340 H   0  0  0  0  0  0  0  0  0  0  0  0
    1.0631   -0.0479   -1.1327 H   0  0  0  0  0  0  0  0  0  0  0  0
    0.7807   -2.1467   -0.9903 C   0  0  0  0  0  0  0  0  0  0  0  0
    0.9561   -2.9519   -2.0952 N   0  0  0  0  0  0  0  0  0  0  0  0
    0.6707   -2.7375   -3.0390 H   0  0  0  0  0  0  0  0  0  0  0  0
    1.5702   -4.0782   -1.6953 C   0  0  0  0  0  0  0  0  0  0  0  0
    1.8379   -4.9075   -2.3386 H   0  0  0  0  0  0  0  0  0  0  0  0
    1.8122   -4.0323   -0.3771 N   0  0  0  0  0  0  0  0  0  0  0  0
    1.3113   -2.8116    0.0829 C   0  0  0  0  0  0  0  0  0  0  0  0
    1.3653   -2.4406    1.0982 H   0  0  0  0  0  0  0  0  0  0  0  0
   -0.6600    1.1486    0.4782 C   0  0  0  0  0  0  0  0  0  0  0  0
   -1.5001    1.7648   -0.1771 O   0  0  0  0  0  0  0  0  0  0  0  0
    0.1634    1.7559    1.3418 N   0  0  0  0  0  0  0  0  0  0  0  0
    0.8618    1.1897    1.8008 H   0  0  0  0  0  0  0  0  0  0  0  0
    0.1509    3.1886    1.6256 C   0  0  0  0  0  0  0  0  0  0  0  0
   -0.8272    3.4794    2.0152 H   0  0  0  0  0  0  0  0  0  0  0  0
    0.9172    3.4314    2.3624 H   0  0  0  0  0  0  0  0  0  0  0  0
    0.3414    3.7499    0.7095 H   0  0  0  0  0  0  0  0  0  0  0  0
  5  6  2  0  0  0  0
  5  7  1  0  0  0  0
  2  3  1  0  0  0  0
  2  4  1  0  0  0  0
  2  5  1  0  0  0  0
  1  2  1  0  0  0  0
 22 23  2  0  0  0  0
 22 24  1  0  0  0  0
 20 21  1  0  0  0  0
 19 20  1  0  0  0  0
 17 18  1  0  0  0  0
 17 19  2  0  0  0  0
 15 16  1  0  0  0  0
 15 17  1  0  0  0  0
 14 15  1  0  0  0  0
 14 20  2  0  0  0  0
 11 12  1  0  0  0  0
 11 13  1  0  0  0  0
 11 14  1  0  0  0  0
  9 10  1  0  0  0  0
  9 11  1  0  0  0  0
  9 22  1  0  0  0  0
  7  8  1  0  0  0  0
  7  9  1  0  0  0  0
 26 27  1  0  0  0  0
 26 28  1  0  0  0  0
 26 29  1  0  0  0  0
 24 25  1  0  0  0  0
 24 26  1  0  0  0  0
M  END
$$$$
default_name
  -OEChem-02102213163D

 29 29  0     1  0  0  0  0  0999 V2000
   -3.6042   -3.5728    1.4576 H   0  0  0  0  0  0  0  0  0  0  0  0
   -3.5202   -2.6488    0.8866 C   0  0  0  0  0  0  0  0  0  0  0  0
   -4.2052   -1.9048    1.2896 H   0  0  0  0  0  0  0  0  0  0  0  0
   -3.7552   -2.8428   -0.1584 H   0  0  0  0  0  0  0  0  0  0  0  0
   -2.1052   -2.1358    0.9946 C   0  0  0  0  0  0  0  0  0  0  0  0
   -1.2852   -2.7288    1.6826 O   0  0  0  0  0  0  0  0  0  0  0  0
   -1.8202   -1.0288    0.3146 N   0  0  0  0  0  0  0  0  0  0  0  0
   -2.5542   -0.5788   -0.2104 H   0  0  0  0  0  0  0  0  0  0  0  0
   -0.5102   -0.3728    0.3086 C   0  0  1  0  0  0  0  0  0  0  0  0
    0.0719   -0.7468    1.1521 H   0  0  0  0  0  0  0  0  0  0  0  0
    0.2338   -0.7427   -0.9878 C   0  0  0  0  0  0  0  0  0  0  0  0
   -0.4469   -0.6338   -1.8340 H   0  0  0  0  0  0  0  0  0  0  0  0
    1.0631   -0.0479   -1.1327 H   0  0  0  0  0  0  0  0  0  0  0  0
    0.7807   -2.1467   -0.9903 C   0  0  0  0  0  0  0  0  0  0  0  0
    1.2264   -2.8467   -2.0909 N   0  0  0  0  0  0  0  0  0  0  0  0
    1.1746   -2.5412   -3.0512 H   0  0  0  0  0  0  0  0  0  0  0  0
    1.7384   -4.0127   -1.6624 C   0  0  0  0  0  0  0  0  0  0  0  0
    2.1625   -4.7811   -2.2972 H   0  0  0  0  0  0  0  0  0  0  0  0
    1.6548   -4.0937   -0.3265 N   0  0  0  0  0  0  0  0  0  0  0  0
    1.0442   -2.9157    0.1118 C   0  0  0  0  0  0  0  0  0  0  0  0
    0.8475   -2.6423    1.1404 H   0  0  0  0  0  0  0  0  0  0  0  0
   -0.6600    1.1486    0.4782 C   0  0  0  0  0  0  0  0  0  0  0  0
   -1.5001    1.7648   -0.1771 O   0  0  0  0  0  0  0  0  0  0  0  0
    0.1634    1.7559    1.3418 N   0  0  0  0  0  0  0  0  0  0  0  0
    0.8618    1.1897    1.8008 H   0  0  0  0  0  0  0  0  0  0  0  0
    0.1509    3.1886    1.6256 C   0  0  0  0  0  0  0  0  0  0  0  0
   -0.8272    3.4794    2.0152 H   0  0  0  0  0  0  0  0  0  0  0  0
    0.9172    3.4314    2.3624 H   0  0  0  0  0  0  0  0  0  0  0  0
    0.3414    3.7499    0.7095 H   0  0  0  0  0  0  0  0  0  0  0  0
  5  6  2  0  0  0  0
  5  7  1  0  0  0  0
  2  3  1  0  0  0  0
  2  4  1  0  0  0  0
  2  5  1  0  0  0  0
  1  2  1  0  0  0  0
 22 23  2  0  0  0  0
 22 24  1  0  0  0  0
 20 21  1  0  0  0  0
 19 20  1  0  0  0  0
 17 18  1  0  0  0  0
 17 19  2  0  0  0  0
 15 16  1  0  0  0  0
 15 17  1  0  0  0  0
 14 15  1  0  0  0  0
 14 20  2  0  0  0  0
 11 12  1  0  0  0  0
 11 13  1  0  0  0  0
 11 14  1  0  0  0  0
  9 10  1  0  0  0  0
  9 11  1  0  0  0  0
  9 22  1  0  0  0  0
  7  8  1  0  0  0  0
  7  9  1  0  0  0  0
 26 27  1  0  0  0  0
 26 28  1  0  0  0  0
 26 29  1  0  0  0  0
 24 25  1  0  0  0  0
 24 26  1  0  0  0  0
M  END
$$$$
default_name
  -OEChem-02102213163D

 29 29  0     1  0  0  0  0  0999 V2000
   -3.6042   -3.5728    1.4576 H   0  0  0  0  0  0  0  0  0  0  0  0
   -3.5202   -2.6488    0.8866 C   0  0  0  0  0  0  0  0  0  0  0  0
   -4.2052   -1.9048    1.2896 H   0  0  0  0  0  0  0  0  0  0  0  0
   -3.7552   -2.8428   -0.1584 H   0  0  0  0  0  0  0  0  0  0  0  0
   -2.1052   -2.1358    0.9946 C   0  0  0  0  0  0  0  0  0  0  0  0
   -1.2852   -2.7288    1.6826 O   0  0  0  0  0  0  0  0  0  0  0  0
   -1.8202   -1.0288    0.3146 N   0  0  0  0  0  0  0  0  0  0  0  0
   -2.5542   -0.5788   -0.2104 H   0  0  0  0  0  0  0  0  0  0  0  0
   -0.5102   -0.3728    0.3086 C   0  0  1  0  0  0  0  0  0  0  0  0
    0.0719   -0.7468    1.1521 H   0  0  0  0  0  0  0  0  0  0  0  0
    0.2338   -0.7427   -0.9878 C   0  0  0  0  0  0  0  0  0  0  0  0
   -0.3415   -0.3863   -1.8441 H   0  0  0  0  0  0  0  0  0  0  0  0
    1.2011   -0.2370   -0.9995 H   0  0  0  0  0  0  0  0  0  0  0  0
    0.4662   -2.2226   -1.1491 C   0  0  0  0  0  0  0  0  0  0  0  0
    1.1031   -2.8381   -2.2053 N   0  0  0  0  0  0  0  0  0  0  0  0
    1.4302   -2.3877   -3.0469 H   0  0  0  0  0  0  0  0  0  0  0  0
    1.2081   -4.1472   -1.9215 C   0  0  0  0  0  0  0  0  0  0  0  0
    1.6587   -4.8931   -2.5648 H   0  0  0  0  0  0  0  0  0  0  0  0
    0.6763   -4.4056   -0.7178 N   0  0  0  0  0  0  0  0  0  0  0  0
    0.1978   -3.1913   -0.2190 C   0  0  0  0  0  0  0  0  0  0  0  0
   -0.2685   -3.0358    0.7453 H   0  0  0  0  0  0  0  0  0  0  0  0
   -0.6600    1.1486    0.4782 C   0  0  0  0  0  0  0  0  0  0  0  0
   -1.5001    1.7648   -0.1771 O   0  0  0  0  0  0  0  0  0  0  0  0
    0.1634    1.7559    1.3418 N   0  0  0  0  0  0  0  0  0  0  0  0
    0.8618    1.1897    1.8008 H   0  0  0  0  0  0  0  0  0  0  0  0
    0.1509    3.1886    1.6256 C   0  0  0  0  0  0  0  0  0  0  0  0
   -0.8272    3.4794    2.0152 H   0  0  0  0  0  0  0  0  0  0  0  0
    0.9172    3.4314    2.3624 H   0  0  0  0  0  0  0  0  0  0  0  0
    0.3414    3.7499    0.7095 H   0  0  0  0  0  0  0  0  0  0  0  0
  5  6  2  0  0  0  0
  5  7  1  0  0  0  0
  2  3  1  0  0  0  0
  2  4  1  0  0  0  0
  2  5  1  0  0  0  0
  1  2  1  0  0  0  0
 22 23  2  0  0  0  0
 22 24  1  0  0  0  0
 20 21  1  0  0  0  0
 19 20  1  0  0  0  0
 17 18  1  0  0  0  0
 17 19  2  0  0  0  0
 15 16  1  0  0  0  0
 15 17  1  0  0  0  0
 14 15  1  0  0  0  0
 14 20  2  0  0  0  0
 11 12  1  0  0  0  0
 11 13  1  0  0  0  0
 11 14  1  0  0  0  0
  9 10  1  0  0  0  0
  9 11  1  0  0  0  0
  9 22  1  0  0  0  0
  7  8  1  0  0  0  0
  7  9  1  0  0  0  0
 26 27  1  0  0  0  0
 26 28  1  0  0  0  0
 26 29  1  0  0  0  0
 24 25  1  0  0  0  0
 24 26  1  0  0  0  0
M  END
$$$$
default_name
  -OEChem-02102213163D

 29 29  0     1  0  0  0  0  0999 V2000
   -3.6042   -3.5728    1.4576 H   0  0  0  0  0  0  0  0  0  0  0  0
   -3.5202   -2.6488    0.8866 C   0  0  0  0  0  0  0  0  0  0  0  0
   -4.2052   -1.9048    1.2896 H   0  0  0  0  0  0  0  0  0  0  0  0
   -3.7552   -2.8428   -0.1584 H   0  0  0  0  0  0  0  0  0  0  0  0
   -2.1052   -2.1358    0.9946 C   0  0  0  0  0  0  0  0  0  0  0  0
   -1.2852   -2.7288    1.6826 O   0  0  0  0  0  0  0  0  0  0  0  0
   -1.8202   -1.0288    0.3146 N   0  0  0  0  0  0  0  0  0  0  0  0
   -2.5542   -0.5788   -0.2104 H   0  0  0  0  0  0  0  0  0  0  0  0
   -0.5102   -0.3728    0.3086 C   0  0  1  0  0  0  0  0  0  0  0  0
    0.0719   -0.7468    1.1521 H   0  0  0  0  0  0  0  0  0  0  0  0
    0.2338   -0.7427   -0.9878 C   0  0  0  0  0  0  0  0  0  0  0  0
   -0.3415   -0.3863   -1.8441 H   0  0  0  0  0  0  0  0  0  0  0  0
    1.2011   -0.2370   -0.9995 H   0  0  0  0  0  0  0  0  0  0  0  0
    0.4662   -2.2226   -1.1491 C   0  0  0  0  0  0  0  0  0  0  0  0
    1.3371   -2.8199   -2.0350 N   0  0  0  0  0  0  0  0  0  0  0  0
    1.8780   -2.3502   -2.7456 H   0  0  0  0  0  0  0  0  0  0  0  0
    1.3369   -4.1412   -1.7910 C   0  0  0  0  0  0  0  0  0  0  0  0
    1.9196   -4.8776   -2.3308 H   0  0  0  0  0  0  0  0  0  0  0  0
    0.5103   -4.4256   -0.7741 N   0  0  0  0  0  0  0  0  0  0  0  0
   -0.0521   -3.2151   -0.3605 C   0  0  0  0  0  0  0  0  0  0  0  0
   -0.7450   -3.0796    0.4598 H   0  0  0  0  0  0  0  0  0  0  0  0
   -0.6600    1.1486    0.4782 C   0  0  0  0  0  0  0  0  0  0  0  0
   -1.5001    1.7648   -0.1771 O   0  0  0  0  0  0  0  0  0  0  0  0
    0.1634    1.7559    1.3418 N   0  0  0  0  0  0  0  0  0  0  0  0
    0.8618    1.1897    1.8008 H   0  0  0  0  0  0  0  0  0  0  0  0
    0.1509    3.1886    1.6256 C   0  0  0  0  0  0  0  0  0  0  0  0
   -0.8272    3.4794    2.0152 H   0  0  0  0  0  0  0  0  0  0  0  0
    0.9172    3.4314    2.3624 H   0  0  0  0  0  0  0  0  0  0  0  0
    0.3414    3.7499    0.7095 H   0  0  0  0  0  0  0  0  0  0  0  0
  5  6  2  0  0  0  0
  5  7  1  0  0  0  0
  2  3  1  0  0  0  0
  2  4  1  0  0  0  0
  2  5  1  0  0  0  0
  1  2  1  0  0  0  0
 22 23  2  0  0  0  0
 22 24  1  0  0  0  0
 20 21  1  0  0  0  0
 19 20  1  0  0  0  0
 17 18  1  0  0  0  0
 17 19  2  0  0  0  0
 15 16  1  0  0  0  0
 15 17  1  0  0  0  0
 14 15  1  0  0  0  0
 14 20  2  0  0  0  0
 11 12  1  0  0  0  0
 11 13  1  0  0  0  0
 11 14  1  0  0  0  0
  9 10  1  0  0  0  0
  9 11  1  0  0  0  0
  9 22  1  0  0  0  0
  7  8  1  0  0  0  0
  7  9  1  0  0  0  0
 26 27  1  0  0  0  0
 26 28  1  0  0  0  0
 26 29  1  0  0  0  0
 24 25  1  0  0  0  0
 24 26  1  0  0  0  0
M  END
$$$$
default_name
  -OEChem-02102213163D

 29 29  0     1  0  0  0  0  0999 V2000
   -3.6042   -3.5728    1.4576 H   0  0  0  0  0  0  0  0  0  0  0  0
   -3.5202   -2.6488    0.8866 C   0  0  0  0  0  0  0  0  0  0  0  0
   -4.2052   -1.9048    1.2896 H   0  0  0  0  0  0  0  0  0  0  0  0
   -3.7552   -2.8428   -0.1584 H   0  0  0  0  0  0  0  0  0  0  0  0
   -2.1052   -2.1358    0.9946 C   0  0  0  0  0  0  0  0  0  0  0  0
   -1.2852   -2.7288    1.6826 O   0  0  0  0  0  0  0  0  0  0  0  0
   -1.8202   -1.0288    0.3146 N   0  0  0  0  0  0  0  0  0  0  0  0
   -2.5542   -0.5788   -0.2104 H   0  0  0  0  0  0  0  0  0  0  0  0
   -0.5102   -0.3728    0.3086 C   0  0  1  0  0  0  0  0  0  0  0  0
    0.0719   -0.7468    1.1521 H   0  0  0  0  0  0  0  0  0  0  0  0
    0.2338   -0.7427   -0.9878 C   0  0  0  0  0  0  0  0  0  0  0  0
   -0.3415   -0.3863   -1.8441 H   0  0  0  0  0  0  0  0  0  0  0  0
    1.2011   -0.2370   -0.9995 H   0  0  0  0  0  0  0  0  0  0  0  0
    0.4662   -2.2226   -1.1491 C   0  0  0  0  0  0  0  0  0  0  0  0
    1.5204   -2.8156   -1.8102 N   0  0  0  0  0  0  0  0  0  0  0  0
    2.2349   -2.3384   -2.3393 H   0  0  0  0  0  0  0  0  0  0  0  0
    1.4283   -4.1442   -1.6320 C   0  0  0  0  0  0  0  0  0  0  0  0
    2.1125   -4.8792   -2.0379 H   0  0  0  0  0  0  0  0  0  0  0  0
    0.3636   -4.4380   -0.8714 N   0  0  0  0  0  0  0  0  0  0  0  0
   -0.2581   -3.2255   -0.5617 C   0  0  0  0  0  0  0  0  0  0  0  0
   -1.1339   -3.0972    0.0611 H   0  0  0  0  0  0  0  0  0  0  0  0
   -0.6600    1.1486    0.4782 C   0  0  0  0  0  0  0  0  0  0  0  0
   -1.5001    1.7648   -0.1771 O   0  0  0  0  0  0  0  0  0  0  0  0
    0.1634    1.7559    1.3418 N   0  0  0  0  0  0  0  0  0  0  0  0
    0.8618    1.1897    1.8008 H   0  0  0  0  0  0  0  0  0  0  0  0
    0.1509    3.1886    1.6256 C   0  0  0  0  0  0  0  0  0  0  0  0
   -0.8272    3.4794    2.0152 H   0  0  0  0  0  0  0  0  0  0  0  0
    0.9172    3.4314    2.3624 H   0  0  0  0  0  0  0  0  0  0  0  0
    0.3414    3.7499    0.7095 H   0  0  0  0  0  0  0  0  0  0  0  0
  5  6  2  0  0  0  0
  5  7  1  0  0  0  0
  2  3  1  0  0  0  0
  2  4  1  0  0  0  0
  2  5  1  0  0  0  0
  1  2  1  0  0  0  0
 22 23  2  0  0  0  0
 22 24  1  0  0  0  0
 20 21  1  0  0  0  0
 19 20  1  0  0  0  0
 17 18  1  0  0  0  0
 17 19  2  0  0  0  0
 15 16  1  0  0  0  0
 15 17  1  0  0  0  0
 14 15  1  0  0  0  0
 14 20  2  0  0  0  0
 11 12  1  0  0  0  0
 11 13  1  0  0  0  0
 11 14  1  0  0  0  0
  9 10  1  0  0  0  0
  9 11  1  0  0  0  0
  9 22  1  0  0  0  0
  7  8  1  0  0  0  0
  7  9  1  0  0  0  0
 26 27  1  0  0  0  0
 26 28  1  0  0  0  0
 26 29  1  0  0  0  0
 24 25  1  0  0  0  0
 24 26  1  0  0  0  0
M  END
$$$$
default_name
  -OEChem-02102213163D

 29 29  0     1  0  0  0  0  0999 V2000
   -3.6042   -3.5728    1.4576 H   0  0  0  0  0  0  0  0  0  0  0  0
   -3.5202   -2.6488    0.8866 C   0  0  0  0  0  0  0  0  0  0  0  0
   -4.2052   -1.9048    1.2896 H   0  0  0  0  0  0  0  0  0  0  0  0
   -3.7552   -2.8428   -0.1584 H   0  0  0  0  0  0  0  0  0  0  0  0
   -2.1052   -2.1358    0.9946 C   0  0  0  0  0  0  0  0  0  0  0  0
   -1.2852   -2.7288    1.6826 O   0  0  0  0  0  0  0  0  0  0  0  0
   -1.8202   -1.0288    0.3146 N   0  0  0  0  0  0  0  0  0  0  0  0
   -2.5542   -0.5788   -0.2104 H   0  0  0  0  0  0  0  0  0  0  0  0
   -0.5102   -0.3728    0.3086 C   0  0  1  0  0  0  0  0  0  0  0  0
    0.0719   -0.7468    1.1521 H   0  0  0  0  0  0  0  0  0  0  0  0
    0.2338   -0.7427   -0.9878 C   0  0  0  0  0  0  0  0  0  0  0  0
   -0.3415   -0.3863   -1.8441 H   0  0  0  0  0  0  0  0  0  0  0  0
    1.2011   -0.2370   -0.9995 H   0  0  0  0  0  0  0  0  0  0  0  0
    0.4662   -2.2226   -1.1491 C   0  0  0  0  0  0  0  0  0  0  0  0
    1.6404   -2.8255   -1.5463 N   0  0  0  0  0  0  0  0  0  0  0  0
    2.4767   -2.3532   -1.8556 H   0  0  0  0  0  0  0  0  0  0  0  0
    1.4760   -4.1560   -1.4553 C   0  0  0  0  0  0  0  0  0  0  0  0
    2.2243   -4.8978   -1.7060 H   0  0  0  0  0  0  0  0  0  0  0  0
    0.2463   -4.4421   -1.0031 N   0  0  0  0  0  0  0  0  0  0  0  0
   -0.4062   -3.2219   -0.8089 C   0  0  0  0  0  0  0  0  0  0  0  0
   -1.4087   -3.0876   -0.4236 H   0  0  0  0  0  0  0  0  0  0  0  0
   -0.6600    1.1486    0.4782 C   0  0  0  0  0  0  0  0  0  0  0  0
   -1.5001    1.7648   -0.1771 O   0  0  0  0  0  0  0  0  0  0  0  0
    0.1634    1.7559    1.3418 N   0  0  0  0  0  0  0  0  0  0  0  0
    0.8618    1.1897    1.8008 H   0  0  0  0  0  0  0  0  0  0  0  0
    0.1509    3.1886    1.6256 C   0  0  0  0  0  0  0  0  0  0  0  0
   -0.8272    3.4794    2.0152 H   0  0  0  0  0  0  0  0  0  0  0  0
    0.9172    3.4314    2.3624 H   0  0  0  0  0  0  0  0  0  0  0  0
    0.3414    3.7499    0.7095 H   0  0  0  0  0  0  0  0  0  0  0  0
  5  6  2  0  0  0  0
  5  7  1  0  0  0  0
  2  3  1  0  0  0  0
  2  4  1  0  0  0  0
  2  5  1  0  0  0  0
  1  2  1  0  0  0  0
 22 23  2  0  0  0  0
 22 24  1  0  0  0  0
 20 21  1  0  0  0  0
 19 20  1  0  0  0  0
 17 18  1  0  0  0  0
 17 19  2  0  0  0  0
 15 16  1  0  0  0  0
 15 17  1  0  0  0  0
 14 15  1  0  0  0  0
 14 20  2  0  0  0  0
 11 12  1  0  0  0  0
 11 13  1  0  0  0  0
 11 14  1  0  0  0  0
  9 10  1  0  0  0  0
  9 11  1  0  0  0  0
  9 22  1  0  0  0  0
  7  8  1  0  0  0  0
  7  9  1  0  0  0  0
 26 27  1  0  0  0  0
 26 28  1  0  0  0  0
 26 29  1  0  0  0  0
 24 25  1  0  0  0  0
 24 26  1  0  0  0  0
M  END
$$$$
default_name
  -OEChem-02102213163D

 29 29  0     1  0  0  0  0  0999 V2000
   -3.6042   -3.5728    1.4576 H   0  0  0  0  0  0  0  0  0  0  0  0
   -3.5202   -2.6488    0.8866 C   0  0  0  0  0  0  0  0  0  0  0  0
   -4.2052   -1.9048    1.2896 H   0  0  0  0  0  0  0  0  0  0  0  0
   -3.7552   -2.8428   -0.1584 H   0  0  0  0  0  0  0  0  0  0  0  0
   -2.1052   -2.1358    0.9946 C   0  0  0  0  0  0  0  0  0  0  0  0
   -1.2852   -2.7288    1.6826 O   0  0  0  0  0  0  0  0  0  0  0  0
   -1.8202   -1.0288    0.3146 N   0  0  0  0  0  0  0  0  0  0  0  0
   -2.5542   -0.5788   -0.2104 H   0  0  0  0  0  0  0  0  0  0  0  0
   -0.5102   -0.3728    0.3086 C   0  0  1  0  0  0  0  0  0  0  0  0
    0.0719   -0.7468    1.1521 H   0  0  0  0  0  0  0  0  0  0  0  0
    0.2338   -0.7427   -0.9878 C   0  0  0  0  0  0  0  0  0  0  0  0
   -0.3415   -0.3863   -1.8441 H   0  0  0  0  0  0  0  0  0  0  0  0
    1.2011   -0.2370   -0.9995 H   0  0  0  0  0  0  0  0  0  0  0  0
    0.4662   -2.2226   -1.1491 C   0  0  0  0  0  0  0  0  0  0  0  0
    1.6890   -2.8489   -1.2613 N   0  0  0  0  0  0  0  0  0  0  0  0
    2.5869   -2.3934   -1.3275 H   0  0  0  0  0  0  0  0  0  0  0  0
    1.4769   -4.1757   -1.2730 C   0  0  0  0  0  0  0  0  0  0  0  0
    2.2474   -4.9322   -1.3576 H   0  0  0  0  0  0  0  0  0  0  0  0
    0.1665   -4.4375   -1.1604 N   0  0  0  0  0  0  0  0  0  0  0  0
   -0.4864   -3.2043   -1.0851 C   0  0  0  0  0  0  0  0  0  0  0  0
   -1.5507   -3.0513   -0.9613 H   0  0  0  0  0  0  0  0  0  0  0  0
   -0.6600    1.1486    0.4782 C   0  0  0  0  0  0  0  0  0  0  0  0
   -1.5001    1.7648   -0.1771 O   0  0  0  0  0  0  0  0  0  0  0  0
    0.1634    1.7559    1.3418 N   0  0  0  0  0  0  0  0  0  0  0  0
    0.8618    1.1897    1.8008 H   0  0  0  0  0  0  0  0  0  0  0  0
    0.1509    3.1886    1.6256 C   0  0  0  0  0  0  0  0  0  0  0  0
   -0.8272    3.4794    2.0152 H   0  0  0  0  0  0  0  0  0  0  0  0
    0.9172    3.4314    2.3624 H   0  0  0  0  0  0  0  0  0  0  0  0
    0.3414    3.7499    0.7095 H   0  0  0  0  0  0  0  0  0  0  0  0
  5  6  2  0  0  0  0
  5  7  1  0  0  0  0
  2  3  1  0  0  0  0
  2  4  1  0  0  0  0
  2  5  1  0  0  0  0
  1  2  1  0  0  0  0
 22 23  2  0  0  0  0
 22 24  1  0  0  0  0
 20 21  1  0  0  0  0
 19 20  1  0  0  0  0
 17 18  1  0  0  0  0
 17 19  2  0  0  0  0
 15 16  1  0  0  0  0
 15 17  1  0  0  0  0
 14 15  1  0  0  0  0
 14 20  2  0  0  0  0
 11 12  1  0  0  0  0
 11 13  1  0  0  0  0
 11 14  1  0  0  0  0
  9 10  1  0  0  0  0
  9 11  1  0  0  0  0
  9 22  1  0  0  0  0
  7  8  1  0  0  0  0
  7  9  1  0  0  0  0
 26 27  1  0  0  0  0
 26 28  1  0  0  0  0
 26 29  1  0  0  0  0
 24 25  1  0  0  0  0
 24 26  1  0  0  0  0
M  END
$$$$
default_name
  -OEChem-02102213163D

 29 29  0     1  0  0  0  0  0999 V2000
   -3.6042   -3.5728    1.4576 H   0  0  0  0  0  0  0  0  0  0  0  0
   -3.5202   -2.6488    0.8866 C   0  0  0  0  0  0  0  0  0  0  0  0
   -4.2052   -1.9048    1.2896 H   0  0  0  0  0  0  0  0  0  0  0  0
   -3.7552   -2.8428   -0.1584 H   0  0  0  0  0  0  0  0  0  0  0  0
   -2.1052   -2.1358    0.9946 C   0  0  0  0  0  0  0  0  0  0  0  0
   -1.2852   -2.7288    1.6826 O   0  0  0  0  0  0  0  0  0  0  0  0
   -1.8202   -1.0288    0.3146 N   0  0  0  0  0  0  0  0  0  0  0  0
   -2.5542   -0.5788   -0.2104 H   0  0  0  0  0  0  0  0  0  0  0  0
   -0.5102   -0.3728    0.3086 C   0  0  1  0  0  0  0  0  0  0  0  0
    0.0719   -0.7468    1.1521 H   0  0  0  0  0  0  0  0  0  0  0  0
    0.2338   -0.7427   -0.9878 C   0  0  0  0  0  0  0  0  0  0  0  0
   -0.3415   -0.3863   -1.8441 H   0  0  0  0  0  0  0  0  0  0  0  0
    1.2011   -0.2370   -0.9995 H   0  0  0  0  0  0  0  0  0  0  0  0
    0.4662   -2.2226   -1.1491 C   0  0  0  0  0  0  0  0  0  0  0  0
    1.6628   -2.8843   -0.9746 N   0  0  0  0  0  0  0  0  0  0  0  0
    2.5580   -2.4564   -0.7910 H   0  0  0  0  0  0  0  0  0  0  0  0
    1.4308   -4.2020   -1.0974 C   0  0  0  0  0  0  0  0  0  0  0  0
    2.1803   -4.9798   -1.0167 H   0  0  0  0  0  0  0  0  0  0  0  0
    0.1294   -4.4245   -1.3324 N   0  0  0  0  0  0  0  0  0  0  0  0
   -0.4931   -3.1742   -1.3716 C   0  0  0  0  0  0  0  0  0  0  0  0
   -1.5501   -2.9908   -1.5152 H   0  0  0  0  0  0  0  0  0  0  0  0
   -0.6600    1.1486    0.4782 C   0  0  0  0  0  0  0  0  0  0  0  0
   -1.5001    1.7648   -0.1771 O   0  0  0  0  0  0  0  0  0  0  0  0
    0.1634    1.7559    1.3418 N   0  0  0  0  0  0  0  0  0  0  0  0
    0.8618    1.1897    1.8008 H   0  0  0  0  0  0  0  0  0  0  0  0
    0.1509    3.1886    1.6256 C   0  0  0  0  0  0  0  0  0  0  0  0
   -0.8272    3.4794    2.0152 H   0  0  0  0  0  0  0  0  0  0  0  0
    0.9172    3.4314    2.3624 H   0  0  0  0  0  0  0  0  0  0  0  0
    0.3414    3.7499    0.7095 H   0  0  0  0  0  0  0  0  0  0  0  0
  5  6  2  0  0  0  0
  5  7  1  0  0  0  0
  2  3  1  0  0  0  0
  2  4  1  0  0  0  0
  2  5  1  0  0  0  0
  1  2  1  0  0  0  0
 22 23  2  0  0  0  0
 22 24  1  0  0  0  0
 20 21  1  0  0  0  0
 19 20  1  0  0  0  0
 17 18  1  0  0  0  0
 17 19  2  0  0  0  0
 15 16  1  0  0  0  0
 15 17  1  0  0  0  0
 14 15  1  0  0  0  0
 14 20  2  0  0  0  0
 11 12  1  0  0  0  0
 11 13  1  0  0  0  0
 11 14  1  0  0  0  0
  9 10  1  0  0  0  0
  9 11  1  0  0  0  0
  9 22  1  0  0  0  0
  7  8  1  0  0  0  0
  7  9  1  0  0  0  0
 26 27  1  0  0  0  0
 26 28  1  0  0  0  0
 26 29  1  0  0  0  0
 24 25  1  0  0  0  0
 24 26  1  0  0  0  0
M  END
$$$$
default_name
  -OEChem-02102213163D

 29 29  0     1  0  0  0  0  0999 V2000
   -3.6042   -3.5728    1.4576 H   0  0  0  0  0  0  0  0  0  0  0  0
   -3.5202   -2.6488    0.8866 C   0  0  0  0  0  0  0  0  0  0  0  0
   -4.2052   -1.9048    1.2896 H   0  0  0  0  0  0  0  0  0  0  0  0
   -3.7552   -2.8428   -0.1584 H   0  0  0  0  0  0  0  0  0  0  0  0
   -2.1052   -2.1358    0.9946 C   0  0  0  0  0  0  0  0  0  0  0  0
   -1.2852   -2.7288    1.6826 O   0  0  0  0  0  0  0  0  0  0  0  0
   -1.8202   -1.0288    0.3146 N   0  0  0  0  0  0  0  0  0  0  0  0
   -2.5542   -0.5788   -0.2104 H   0  0  0  0  0  0  0  0  0  0  0  0
   -0.5102   -0.3728    0.3086 C   0  0  1  0  0  0  0  0  0  0  0  0
    0.0719   -0.7468    1.1521 H   0  0  0  0  0  0  0  0  0  0  0  0
    0.2338   -0.7427   -0.9878 C   0  0  0  0  0  0  0  0  0  0  0  0
   -0.3415   -0.3863   -1.8441 H   0  0  0  0  0  0  0  0  0  0  0  0
    1.2011   -0.2370   -0.9995 H   0  0  0  0  0  0  0  0  0  0  0  0
    0.4662   -2.2226   -1.1491 C   0  0  0  0  0  0  0  0  0  0  0  0
    1.5637   -2.9291   -0.7058 N   0  0  0  0  0  0  0  0  0  0  0  0
    2.3919   -2.5378   -0.2827 H   0  0  0  0  0  0  0  0  0  0  0  0
    1.3410   -4.2332   -0.9406 C   0  0  0  0  0  0  0  0  0  0  0  0
    2.0274   -5.0377   -0.7063 H   0  0  0  0  0  0  0  0  0  0  0  0
    0.1377   -4.4042   -1.5074 N   0  0  0  0  0  0  0  0  0  0  0  0
   -0.4260   -3.1334   -1.6489 C   0  0  0  0  0  0  0  0  0  0  0  0
   -1.4070   -2.9103   -2.0478 H   0  0  0  0  0  0  0  0  0  0  0  0
   -0.6600    1.1486    0.4782 C   0  0  0  0  0  0  0  0  0  0  0  0
   -1.5001    1.7648   -0.1771 O   0  0  0  0  0  0  0  0  0  0  0  0
    0.1634    1.7559    1.3418 N   0  0  0  0  0  0  0  0  0  0  0  0
    0.8618    1.1897    1.8008 H   0  0  0  0  0  0  0  0  0  0  0  0
    0.1509    3.1886    1.6256 C   0  0  0  0  0  0  0  0  0  0  0  0
   -0.8272    3.4794    2.0152 H   0  0  0  0  0  0  0  0  0  0  0  0
    0.9172    3.4314    2.3624 H   0  0  0  0  0  0  0  0  0  0  0  0
    0.3414    3.7499    0.7095 H   0  0  0  0  0  0  0  0  0  0  0  0
  5  6  2  0  0  0  0
  5  7  1  0  0  0  0
  2  3  1  0  0  0  0
  2  4  1  0  0  0  0
  2  5  1  0  0  0  0
  1  2  1  0  0  0  0
 22 23  2  0  0  0  0
 22 24  1  0  0  0  0
 20 21  1  0  0  0  0
 19 20  1  0  0  0  0
 17 18  1  0  0  0  0
 17 19  2  0  0  0  0
 15 16  1  0  0  0  0
 15 17  1  0  0  0  0
 14 15  1  0  0  0  0
 14 20  2  0  0  0  0
 11 12  1  0  0  0  0
 11 13  1  0  0  0  0
 11 14  1  0  0  0  0
  9 10  1  0  0  0  0
  9 11  1  0  0  0  0
  9 22  1  0  0  0  0
  7  8  1  0  0  0  0
  7  9  1  0  0  0  0
 26 27  1  0  0  0  0
 26 28  1  0  0  0  0
 26 29  1  0  0  0  0
 24 25  1  0  0  0  0
 24 26  1  0  0  0  0
M  END
$$$$
default_name
  -OEChem-02102213163D

 29 29  0     1  0  0  0  0  0999 V2000
   -3.6042   -3.5728    1.4576 H   0  0  0  0  0  0  0  0  0  0  0  0
   -3.5202   -2.6488    0.8866 C   0  0  0  0  0  0  0  0  0  0  0  0
   -4.2052   -1.9048    1.2896 H   0  0  0  0  0  0  0  0  0  0  0  0
   -3.7552   -2.8428   -0.1584 H   0  0  0  0  0  0  0  0  0  0  0  0
   -2.1052   -2.1358    0.9946 C   0  0  0  0  0  0  0  0  0  0  0  0
   -1.2852   -2.7288    1.6826 O   0  0  0  0  0  0  0  0  0  0  0  0
   -1.8202   -1.0288    0.3146 N   0  0  0  0  0  0  0  0  0  0  0  0
   -2.5542   -0.5788   -0.2104 H   0  0  0  0  0  0  0  0  0  0  0  0
   -0.5102   -0.3728    0.3086 C   0  0  1  0  0  0  0  0  0  0  0  0
    0.0719   -0.7468    1.1521 H   0  0  0  0  0  0  0  0  0  0  0  0
    0.2338   -0.7427   -0.9878 C   0  0  0  0  0  0  0  0  0  0  0  0
   -0.3415   -0.3863   -1.8441 H   0  0  0  0  0  0  0  0  0  0  0  0
    1.2011   -0.2370   -0.9995 H   0  0  0  0  0  0  0  0  0  0  0  0
    0.4662   -2.2226   -1.1491 C   0  0  0  0  0  0  0  0  0  0  0  0
    1.3983   -2.9805   -0.4731 N   0  0  0  0  0  0  0  0  0  0  0  0
    2.1000   -2.6322    0.1629 H   0  0  0  0  0  0  0  0  0  0  0  0
    1.2134   -4.2671   -0.8132 C   0  0  0  0  0  0  0  0  0  0  0  0
    1.7993   -5.1017   -0.4477 H   0  0  0  0  0  0  0  0  0  0  0  0
    0.1908   -4.3777   -1.6736 N   0  0  0  0  0  0  0  0  0  0  0  0
   -0.2895   -3.0849   -1.8980 C   0  0  0  0  0  0  0  0  0  0  0  0
   -1.1313   -2.8153   -2.5226 H   0  0  0  0  0  0  0  0  0  0  0  0
   -0.6600    1.1486    0.4782 C   0  0  0  0  0  0  0  0  0  0  0  0
   -1.5001    1.7648   -0.1771 O   0  0  0  0  0  0  0  0  0  0  0  0
    0.1634    1.7559    1.3418 N   0  0  0  0  0  0  0  0  0  0  0  0
    0.8618    1.1897    1.8008 H   0  0  0  0  0  0  0  0  0  0  0  0
    0.1509    3.1886    1.6256 C   0  0  0  0  0  0  0  0  0  0  0  0
   -0.8272    3.4794    2.0152 H   0  0  0  0  0  0  0  0  0  0  0  0
    0.9172    3.4314    2.3624 H   0  0  0  0  0  0  0  0  0  0  0  0
    0.3414    3.7499    0.7095 H   0  0  0  0  0  0  0  0  0  0  0  0
  5  6  2  0  0  0  0
  5  7  1  0  0  0  0
  2  3  1  0  0  0  0
  2  4  1  0  0  0  0
  2  5  1  0  0  0  0
  1  2  1  0  0  0  0
 22 23  2  0  0  0  0
 22 24  1  0  0  0  0
 20 21  1  0  0  0  0
 19 20  1  0  0  0  0
 17 18  1  0  0  0  0
 17 19  2  0  0  0  0
 15 16  1  0  0  0  0
 15 17  1  0  0  0  0
 14 15  1  0  0  0  0
 14 20  2  0  0  0  0
 11 12  1  0  0  0  0
 11 13  1  0  0  0  0
 11 14  1  0  0  0  0
  9 10  1  0  0  0  0
  9 11  1  0  0  0  0
  9 22  1  0  0  0  0
  7  8  1  0  0  0  0
  7  9  1  0  0  0  0
 26 27  1  0  0  0  0
 26 28  1  0  0  0  0
 26 29  1  0  0  0  0
 24 25  1  0  0  0  0
 24 26  1  0  0  0  0
M  END
$$$$
default_name
  -OEChem-02102213163D

 29 29  0     1  0  0  0  0  0999 V2000
   -3.6042   -3.5728    1.4576 H   0  0  0  0  0  0  0  0  0  0  0  0
   -3.5202   -2.6488    0.8866 C   0  0  0  0  0  0  0  0  0  0  0  0
   -4.2052   -1.9048    1.2896 H   0  0  0  0  0  0  0  0  0  0  0  0
   -3.7552   -2.8428   -0.1584 H   0  0  0  0  0  0  0  0  0  0  0  0
   -2.1052   -2.1358    0.9946 C   0  0  0  0  0  0  0  0  0  0  0  0
   -1.2852   -2.7288    1.6826 O   0  0  0  0  0  0  0  0  0  0  0  0
   -1.8202   -1.0288    0.3146 N   0  0  0  0  0  0  0  0  0  0  0  0
   -2.5542   -0.5788   -0.2104 H   0  0  0  0  0  0  0  0  0  0  0  0
   -0.5102   -0.3728    0.3086 C   0  0  1  0  0  0  0  0  0  0  0  0
    0.0719   -0.7468    1.1521 H   0  0  0  0  0  0  0  0  0  0  0  0
    0.2338   -0.7427   -0.9878 C   0  0  0  0  0  0  0  0  0  0  0  0
   -0.3415   -0.3863   -1.8441 H   0  0  0  0  0  0  0  0  0  0  0  0
    1.2011   -0.2370   -0.9995 H   0  0  0  0  0  0  0  0  0  0  0  0
    0.4662   -2.2226   -1.1491 C   0  0  0  0  0  0  0  0  0  0  0  0
    1.1780   -3.0348   -0.2924 N   0  0  0  0  0  0  0  0  0  0  0  0
    1.7022   -2.7331    0.5153 H   0  0  0  0  0  0  0  0  0  0  0  0
    1.0570   -4.3014   -0.7239 C   0  0  0  0  0  0  0  0  0  0  0  0
    1.5113   -5.1675   -0.2585 H   0  0  0  0  0  0  0  0  0  0  0  0
    0.2850   -4.3470   -1.8196 N   0  0  0  0  0  0  0  0  0  0  0  0
   -0.0929   -3.0318   -2.1019 C   0  0  0  0  0  0  0  0  0  0  0  0
   -0.7415   -2.7122   -2.9073 H   0  0  0  0  0  0  0  0  0  0  0  0
   -0.6600    1.1486    0.4782 C   0  0  0  0  0  0  0  0  0  0  0  0
   -1.5001    1.7648   -0.1771 O   0  0  0  0  0  0  0  0  0  0  0  0
    0.1634    1.7559    1.3418 N   0  0  0  0  0  0  0  0  0  0  0  0
    0.8618    1.1897    1.8008 H   0  0  0  0  0  0  0  0  0  0  0  0
    0.1509    3.1886    1.6256 C   0  0  0  0  0  0  0  0  0  0  0  0
   -0.8272    3.4794    2.0152 H   0  0  0  0  0  0  0  0  0  0  0  0
    0.9172    3.4314    2.3624 H   0  0  0  0  0  0  0  0  0  0  0  0
    0.3414    3.7499    0.7095 H   0  0  0  0  0  0  0  0  0  0  0  0
  5  6  2  0  0  0  0
  5  7  1  0  0  0  0
  2  3  1  0  0  0  0
  2  4  1  0  0  0  0
  2  5  1  0  0  0  0
  1  2  1  0  0  0  0
 22 23  2  0  0  0  0
 22 24  1  0  0  0  0
 20 21  1  0  0  0  0
 19 20  1  0  0  0  0
 17 18  1  0  0  0  0
 17 19  2  0  0  0  0
 15 16  1  0  0  0  0
 15 17  1  0  0  0  0
 14 15  1  0  0  0  0
 14 20  2  0  0  0  0
 11 12  1  0  0  0  0
 11 13  1  0  0  0  0
 11 14  1  0  0  0  0
  9 10  1  0  0  0  0
  9 11  1  0  0  0  0
  9 22  1  0  0  0  0
  7  8  1  0  0  0  0
  7  9  1  0  0  0  0
 26 27  1  0  0  0  0
 26 28  1  0  0  0  0
 26 29  1  0  0  0  0
 24 25  1  0  0  0  0
 24 26  1  0  0  0  0
M  END
$$$$
default_name
  -OEChem-02102213163D

 29 29  0     1  0  0  0  0  0999 V2000
   -3.6042   -3.5728    1.4576 H   0  0  0  0  0  0  0  0  0  0  0  0
   -3.5202   -2.6488    0.8866 C   0  0  0  0  0  0  0  0  0  0  0  0
   -4.2052   -1.9048    1.2896 H   0  0  0  0  0  0  0  0  0  0  0  0
   -3.7552   -2.8428   -0.1584 H   0  0  0  0  0  0  0  0  0  0  0  0
   -2.1052   -2.1358    0.9946 C   0  0  0  0  0  0  0  0  0  0  0  0
   -1.2852   -2.7288    1.6826 O   0  0  0  0  0  0  0  0  0  0  0  0
   -1.8202   -1.0288    0.3146 N   0  0  0  0  0  0  0  0  0  0  0  0
   -2.5542   -0.5788   -0.2104 H   0  0  0  0  0  0  0  0  0  0  0  0
   -0.5102   -0.3728    0.3086 C   0  0  1  0  0  0  0  0  0  0  0  0
    0.0719   -0.7468    1.1521 H   0  0  0  0  0  0  0  0  0  0  0  0
    0.2338   -0.7427   -0.9878 C   0  0  0  0  0  0  0  0  0  0  0  0
   -0.3415   -0.3863   -1.8441 H   0  0  0  0  0  0  0  0  0  0  0  0
    1.2011   -0.2370   -0.9995 H   0  0  0  0  0  0  0  0  0  0  0  0
    0.4662   -2.2226   -1.1491 C   0  0  0  0  0  0  0  0  0  0  0  0
    0.9178   -3.0883   -0.1760 N   0  0  0  0  0  0  0  0  0  0  0  0
    1.2255   -2.8336    0.7505 H   0  0  0  0  0  0  0  0  0  0  0  0
    0.8821   -4.3338   -0.6789 C   0  0  0  0  0  0  0  0  0  0  0  0
    1.1833   -5.2307   -0.1515 H   0  0  0  0  0  0  0  0  0  0  0  0
    0.4140   -4.3142   -1.9354 N   0  0  0  0  0  0  0  0  0  0  0  0
    0.1502   -2.9778   -2.2469 C   0  0  0  0  0  0  0  0  0  0  0  0
   -0.2644   -2.6080   -3.1757 H   0  0  0  0  0  0  0  0  0  0  0  0
   -0.6600    1.1486    0.4782 C   0  0  0  0  0  0  0  0  0  0  0  0
   -1.5001    1.7648   -0.1771 O   0  0  0  0  0  0  0  0  0  0  0  0
    0.1634    1.7559    1.3418 N   0  0  0  0  0  0  0  0  0  0  0  0
    0.8618    1.1897    1.8008 H   0  0  0  0  0  0  0  0  0  0  0  0
    0.1509    3.1886    1.6256 C   0  0  0  0  0  0  0  0  0  0  0  0
   -0.8272    3.4794    2.0152 H   0  0  0  0  0  0  0  0  0  0  0  0
    0.9172    3.4314    2.3624 H   0  0  0  0  0  0  0  0  0  0  0  0
    0.3414    3.7499    0.7095 H   0  0  0  0  0  0  0  0  0  0  0  0
  5  6  2  0  0  0  0
  5  7  1  0  0  0  0
  2  3  1  0  0  0  0
  2  4  1  0  0  0  0
  2  5  1  0  0  0  0
  1  2  1  0  0  0  0
 22 23  2  0  0  0  0
 22 24  1  0  0  0  0
 20 21  1  0  0  0  0
 19 20  1  0  0  0  0
 17 18  1  0  0  0  0
 17 19  2  0  0  0  0
 15 16  1  0  0  0  0
 15 17  1  0  0  0  0
 14 15  1  0  0  0  0
 14 20  2  0  0  0  0
 11 12  1  0  0  0  0
 11 13  1  0  0  0  0
 11 14  1  0  0  0  0
  9 10  1  0  0  0  0
  9 11  1  0  0  0  0
  9 22  1  0  0  0  0
  7  8  1  0  0  0  0
  7  9  1  0  0  0  0
 26 27  1  0  0  0  0
 26 28  1  0  0  0  0
 26 29  1  0  0  0  0
 24 25  1  0  0  0  0
 24 26  1  0  0  0  0
M  END
$$$$
default_name
  -OEChem-02102213163D

 29 29  0     1  0  0  0  0  0999 V2000
   -3.6042   -3.5728    1.4576 H   0  0  0  0  0  0  0  0  0  0  0  0
   -3.5202   -2.6488    0.8866 C   0  0  0  0  0  0  0  0  0  0  0  0
   -4.2052   -1.9048    1.2896 H   0  0  0  0  0  0  0  0  0  0  0  0
   -3.7552   -2.8428   -0.1584 H   0  0  0  0  0  0  0  0  0  0  0  0
   -2.1052   -2.1358    0.9946 C   0  0  0  0  0  0  0  0  0  0  0  0
   -1.2852   -2.7288    1.6826 O   0  0  0  0  0  0  0  0  0  0  0  0
   -1.8202   -1.0288    0.3146 N   0  0  0  0  0  0  0  0  0  0  0  0
   -2.5542   -0.5788   -0.2104 H   0  0  0  0  0  0  0  0  0  0  0  0
   -0.5102   -0.3728    0.3086 C   0  0  1  0  0  0  0  0  0  0  0  0
    0.0719   -0.7468    1.1521 H   0  0  0  0  0  0  0  0  0  0  0  0
    0.2338   -0.7427   -0.9878 C   0  0  0  0  0  0  0  0  0  0  0  0
   -0.3415   -0.3863   -1.8441 H   0  0  0  0  0  0  0  0  0  0  0  0
    1.2011   -0.2370   -0.9995 H   0  0  0  0  0  0  0  0  0  0  0  0
    0.4662   -2.2226   -1.1491 C   0  0  0  0  0  0  0  0  0  0  0  0
    0.6353   -3.1375   -0.1319 N   0  0  0  0  0  0  0  0  0  0  0  0
    0.7025   -2.9268    0.8526 H   0  0  0  0  0  0  0  0  0  0  0  0
    0.7009   -4.3620   -0.6811 C   0  0  0  0  0  0  0  0  0  0  0  0
    0.8375   -5.2869   -0.1341 H   0  0  0  0  0  0  0  0  0  0  0  0
    0.5690   -4.2814   -2.0131 N   0  0  0  0  0  0  0  0  0  0  0  0
    0.4234   -2.9266   -2.3229 C   0  0  0  0  0  0  0  0  0  0  0  0
    0.2676   -2.5099   -3.3096 H   0  0  0  0  0  0  0  0  0  0  0  0
   -0.6600    1.1486    0.4782 C   0  0  0  0  0  0  0  0  0  0  0  0
   -1.5001    1.7648   -0.1771 O   0  0  0  0  0  0  0  0  0  0  0  0
    0.1634    1.7559    1.3418 N   0  0  0  0  0  0  0  0  0  0  0  0
    0.8618    1.1897    1.8008 H   0  0  0  0  0  0  0  0  0  0  0  0
    0.1509    3.1886    1.6256 C   0  0  0  0  0  0  0  0  0  0  0  0
   -0.8272    3.4794    2.0152 H   0  0  0  0  0  0  0  0  0  0  0  0
    0.9172    3.4314    2.3624 H   0  0  0  0  0  0  0  0  0  0  0  0
    0.3414    3.7499    0.7095 H   0  0  0  0  0  0  0  0  0  0  0  0
  5  6  2  0  0  0  0
  5  7  1  0  0  0  0
  2  3  1  0  0  0  0
  2  4  1  0  0  0  0
  2  5  1  0  0  0  0
  1  2  1  0  0  0  0
 22 23  2  0  0  0  0
 22 24  1  0  0  0  0
 20 21  1  0  0  0  0
 19 20  1  0  0  0  0
 17 18  1  0  0  0  0
 17 19  2  0  0  0  0
 15 16  1  0  0  0  0
 15 17  1  0  0  0  0
 14 15  1  0  0  0  0
 14 20  2  0  0  0  0
 11 12  1  0  0  0  0
 11 13  1  0  0  0  0
 11 14  1  0  0  0  0
  9 10  1  0  0  0  0
  9 11  1  0  0  0  0
  9 22  1  0  0  0  0
  7  8  1  0  0  0  0
  7  9  1  0  0  0  0
 26 27  1  0  0  0  0
 26 28  1  0  0  0  0
 26 29  1  0  0  0  0
 24 25  1  0  0  0  0
 24 26  1  0  0  0  0
M  END
$$$$
default_name
  -OEChem-02102213163D

 29 29  0     1  0  0  0  0  0999 V2000
   -3.6042   -3.5728    1.4576 H   0  0  0  0  0  0  0  0  0  0  0  0
   -3.5202   -2.6488    0.8866 C   0  0  0  0  0  0  0  0  0  0  0  0
   -4.2052   -1.9048    1.2896 H   0  0  0  0  0  0  0  0  0  0  0  0
   -3.7552   -2.8428   -0.1584 H   0  0  0  0  0  0  0  0  0  0  0  0
   -2.1052   -2.1358    0.9946 C   0  0  0  0  0  0  0  0  0  0  0  0
   -1.2852   -2.7288    1.6826 O   0  0  0  0  0  0  0  0  0  0  0  0
   -1.8202   -1.0288    0.3146 N   0  0  0  0  0  0  0  0  0  0  0  0
   -2.5542   -0.5788   -0.2104 H   0  0  0  0  0  0  0  0  0  0  0  0
   -0.5102   -0.3728    0.3086 C   0  0  1  0  0  0  0  0  0  0  0  0
    0.0719   -0.7468    1.1521 H   0  0  0  0  0  0  0  0  0  0  0  0
    0.2338   -0.7427   -0.9878 C   0  0  0  0  0  0  0  0  0  0  0  0
   -0.3415   -0.3863   -1.8441 H   0  0  0  0  0  0  0  0  0  0  0  0
    1.2011   -0.2370   -0.9995 H   0  0  0  0  0  0  0  0  0  0  0  0
    0.4662   -2.2226   -1.1491 C   0  0  0  0  0  0  0  0  0  0  0  0
    0.3500   -3.1789   -0.1631 N   0  0  0  0  0  0  0  0  0  0  0  0
    0.1688   -3.0065    0.8145 H   0  0  0  0  0  0  0  0  0  0  0  0
    0.5257   -4.3842   -0.7304 C   0  0  0  0  0  0  0  0  0  0  0  0
    0.4975   -5.3323   -0.2074 H   0  0  0  0  0  0  0  0  0  0  0  0
    0.7393   -4.2509   -2.0475 N   0  0  0  0  0  0  0  0  0  0  0  0
    0.7080   -2.8817   -2.3249 C   0  0  0  0  0  0  0  0  0  0  0  0
    0.8181   -2.4245   -3.2997 H   0  0  0  0  0  0  0  0  0  0  0  0
   -0.6600    1.1486    0.4782 C   0  0  0  0  0  0  0  0  0  0  0  0
   -1.5001    1.7648   -0.1771 O   0  0  0  0  0  0  0  0  0  0  0  0
    0.1634    1.7559    1.3418 N   0  0  0  0  0  0  0  0  0  0  0  0
    0.8618    1.1897    1.8008 H   0  0  0  0  0  0  0  0  0  0  0  0
    0.1509    3.1886    1.6256 C   0  0  0  0  0  0  0  0  0  0  0  0
   -0.8272    3.4794    2.0152 H   0  0  0  0  0  0  0  0  0  0  0  0
    0.9172    3.4314    2.3624 H   0  0  0  0  0  0  0  0  0  0  0  0
    0.3414    3.7499    0.7095 H   0  0  0  0  0  0  0  0  0  0  0  0
  5  6  2  0  0  0  0
  5  7  1  0  0  0  0
  2  3  1  0  0  0  0
  2  4  1  0  0  0  0
  2  5  1  0  0  0  0
  1  2  1  0  0  0  0
 22 23  2  0  0  0  0
 22 24  1  0  0  0  0
 20 21  1  0  0  0  0
 19 20  1  0  0  0  0
 17 18  1  0  0  0  0
 17 19  2  0  0  0  0
 15 16  1  0  0  0  0
 15 17  1  0  0  0  0
 14 15  1  0  0  0  0
 14 20  2  0  0  0  0
 11 12  1  0  0  0  0
 11 13  1  0  0  0  0
 11 14  1  0  0  0  0
  9 10  1  0  0  0  0
  9 11  1  0  0  0  0
  9 22  1  0  0  0  0
  7  8  1  0  0  0  0
  7  9  1  0  0  0  0
 26 27  1  0  0  0  0
 26 28  1  0  0  0  0
 26 29  1  0  0  0  0
 24 25  1  0  0  0  0
 24 26  1  0  0  0  0
M  END
$$$$
default_name
  -OEChem-02102213163D

 29 29  0     1  0  0  0  0  0999 V2000
   -3.6042   -3.5728    1.4576 H   0  0  0  0  0  0  0  0  0  0  0  0
   -3.5202   -2.6488    0.8866 C   0  0  0  0  0  0  0  0  0  0  0  0
   -4.2052   -1.9048    1.2896 H   0  0  0  0  0  0  0  0  0  0  0  0
   -3.7552   -2.8428   -0.1584 H   0  0  0  0  0  0  0  0  0  0  0  0
   -2.1052   -2.1358    0.9946 C   0  0  0  0  0  0  0  0  0  0  0  0
   -1.2852   -2.7288    1.6826 O   0  0  0  0  0  0  0  0  0  0  0  0
   -1.8202   -1.0288    0.3146 N   0  0  0  0  0  0  0  0  0  0  0  0
   -2.5542   -0.5788   -0.2104 H   0  0  0  0  0  0  0  0  0  0  0  0
   -0.5102   -0.3728    0.3086 C   0  0  1  0  0  0  0  0  0  0  0  0
    0.0719   -0.7468    1.1521 H   0  0  0  0  0  0  0  0  0  0  0  0
    0.2338   -0.7427   -0.9878 C   0  0  0  0  0  0  0  0  0  0  0  0
   -0.3415   -0.3863   -1.8441 H   0  0  0  0  0  0  0  0  0  0  0  0
    1.2011   -0.2370   -0.9995 H   0  0  0  0  0  0  0  0  0  0  0  0
    0.4662   -2.2226   -1.1491 C   0  0  0  0  0  0  0  0  0  0  0  0
    0.0811   -3.2098   -0.2674 N   0  0  0  0  0  0  0  0  0  0  0  0
   -0.3392   -3.0671    0.6388 H   0  0  0  0  0  0  0  0  0  0  0  0
    0.3683   -4.3987   -0.8234 C   0  0  0  0  0  0  0  0  0  0  0  0
    0.1865   -5.3638   -0.3665 H   0  0  0  0  0  0  0  0  0  0  0  0
    0.9134   -4.2247   -2.0362 N   0  0  0  0  0  0  0  0  0  0  0  0
    0.9847   -2.8461   -2.2526 C   0  0  0  0  0  0  0  0  0  0  0  0
    1.3498   -2.3576   -3.1468 H   0  0  0  0  0  0  0  0  0  0  0  0
   -0.6600    1.1486    0.4782 C   0  0  0  0  0  0  0  0  0  0  0  0
   -1.5001    1.7648   -0.1771 O   0  0  0  0  0  0  0  0  0  0  0  0
    0.1634    1.7559    1.3418 N   0  0  0  0  0  0  0  0  0  0  0  0
    0.8618    1.1897    1.8008 H   0  0  0  0  0  0  0  0  0  0  0  0
    0.1509    3.1886    1.6256 C   0  0  0  0  0  0  0  0  0  0  0  0
   -0.8272    3.4794    2.0152 H   0  0  0  0  0  0  0  0  0  0  0  0
    0.9172    3.4314    2.3624 H   0  0  0  0  0  0  0  0  0  0  0  0
    0.3414    3.7499    0.7095 H   0  0  0  0  0  0  0  0  0  0  0  0
  5  6  2  0  0  0  0
  5  7  1  0  0  0  0
  2  3  1  0  0  0  0
  2  4  1  0  0  0  0
  2  5  1  0  0  0  0
  1  2  1  0  0  0  0
 22 23  2  0  0  0  0
 22 24  1  0  0  0  0
 20 21  1  0  0  0  0
 19 20  1  0  0  0  0
 17 18  1  0  0  0  0
 17 19  2  0  0  0  0
 15 16  1  0  0  0  0
 15 17  1  0  0  0  0
 14 15  1  0  0  0  0
 14 20  2  0  0  0  0
 11 12  1  0  0  0  0
 11 13  1  0  0  0  0
 11 14  1  0  0  0  0
  9 10  1  0  0  0  0
  9 11  1  0  0  0  0
  9 22  1  0  0  0  0
  7  8  1  0  0  0  0
  7  9  1  0  0  0  0
 26 27  1  0  0  0  0
 26 28  1  0  0  0  0
 26 29  1  0  0  0  0
 24 25  1  0  0  0  0
 24 26  1  0  0  0  0
M  END
$$$$
default_name
  -OEChem-02102213163D

 29 29  0     1  0  0  0  0  0999 V2000
   -3.6042   -3.5728    1.4576 H   0  0  0  0  0  0  0  0  0  0  0  0
   -3.5202   -2.6488    0.8866 C   0  0  0  0  0  0  0  0  0  0  0  0
   -4.2052   -1.9048    1.2896 H   0  0  0  0  0  0  0  0  0  0  0  0
   -3.7552   -2.8428   -0.1584 H   0  0  0  0  0  0  0  0  0  0  0  0
   -2.1052   -2.1358    0.9946 C   0  0  0  0  0  0  0  0  0  0  0  0
   -1.2852   -2.7288    1.6826 O   0  0  0  0  0  0  0  0  0  0  0  0
   -1.8202   -1.0288    0.3146 N   0  0  0  0  0  0  0  0  0  0  0  0
   -2.5542   -0.5788   -0.2104 H   0  0  0  0  0  0  0  0  0  0  0  0
   -0.5102   -0.3728    0.3086 C   0  0  1  0  0  0  0  0  0  0  0  0
    0.0719   -0.7468    1.1521 H   0  0  0  0  0  0  0  0  0  0  0  0
    0.2338   -0.7427   -0.9878 C   0  0  0  0  0  0  0  0  0  0  0  0
   -0.3415   -0.3863   -1.8441 H   0  0  0  0  0  0  0  0  0  0  0  0
    1.2011   -0.2370   -0.9995 H   0  0  0  0  0  0  0  0  0  0  0  0
    0.4662   -2.2226   -1.1491 C   0  0  0  0  0  0  0  0  0  0  0  0
   -0.1530   -3.2280   -0.4377 N   0  0  0  0  0  0  0  0  0  0  0  0
   -0.7870   -3.1046    0.3375 H   0  0  0  0  0  0  0  0  0  0  0  0
    0.2396   -4.4048   -0.9539 C   0  0  0  0  0  0  0  0  0  0  0  0
   -0.0744   -5.3793   -0.6004 H   0  0  0  0  0  0  0  0  0  0  0  0
    1.0795   -4.2048   -1.9800 N   0  0  0  0  0  0  0  0  0  0  0  0
    1.2346   -2.8223   -2.1111 C   0  0  0  0  0  0  0  0  0  0  0  0
    1.8264   -2.3139   -2.8612 H   0  0  0  0  0  0  0  0  0  0  0  0
   -0.6600    1.1486    0.4782 C   0  0  0  0  0  0  0  0  0  0  0  0
   -1.5001    1.7648   -0.1771 O   0  0  0  0  0  0  0  0  0  0  0  0
    0.1634    1.7559    1.3418 N   0  0  0  0  0  0  0  0  0  0  0  0
    0.8618    1.1897    1.8008 H   0  0  0  0  0  0  0  0  0  0  0  0
    0.1509    3.1886    1.6256 C   0  0  0  0  0  0  0  0  0  0  0  0
   -0.8272    3.4794    2.0152 H   0  0  0  0  0  0  0  0  0  0  0  0
    0.9172    3.4314    2.3624 H   0  0  0  0  0  0  0  0  0  0  0  0
    0.3414    3.7499    0.7095 H   0  0  0  0  0  0  0  0  0  0  0  0
  5  6  2  0  0  0  0
  5  7  1  0  0  0  0
  2  3  1  0  0  0  0
  2  4  1  0  0  0  0
  2  5  1  0  0  0  0
  1  2  1  0  0  0  0
 22 23  2  0  0  0  0
 22 24  1  0  0  0  0
 20 21  1  0  0  0  0
 19 20  1  0  0  0  0
 17 18  1  0  0  0  0
 17 19  2  0  0  0  0
 15 16  1  0  0  0  0
 15 17  1  0  0  0  0
 14 15  1  0  0  0  0
 14 20  2  0  0  0  0
 11 12  1  0  0  0  0
 11 13  1  0  0  0  0
 11 14  1  0  0  0  0
  9 10  1  0  0  0  0
  9 11  1  0  0  0  0
  9 22  1  0  0  0  0
  7  8  1  0  0  0  0
  7  9  1  0  0  0  0
 26 27  1  0  0  0  0
 26 28  1  0  0  0  0
 26 29  1  0  0  0  0
 24 25  1  0  0  0  0
 24 26  1  0  0  0  0
M  END
$$$$
default_name
  -OEChem-02102213163D

 29 29  0     1  0  0  0  0  0999 V2000
   -3.6042   -3.5728    1.4576 H   0  0  0  0  0  0  0  0  0  0  0  0
   -3.5202   -2.6488    0.8866 C   0  0  0  0  0  0  0  0  0  0  0  0
   -4.2052   -1.9048    1.2896 H   0  0  0  0  0  0  0  0  0  0  0  0
   -3.7552   -2.8428   -0.1584 H   0  0  0  0  0  0  0  0  0  0  0  0
   -2.1052   -2.1358    0.9946 C   0  0  0  0  0  0  0  0  0  0  0  0
   -1.2852   -2.7288    1.6826 O   0  0  0  0  0  0  0  0  0  0  0  0
   -1.8202   -1.0288    0.3146 N   0  0  0  0  0  0  0  0  0  0  0  0
   -2.5542   -0.5788   -0.2104 H   0  0  0  0  0  0  0  0  0  0  0  0
   -0.5102   -0.3728    0.3086 C   0  0  1  0  0  0  0  0  0  0  0  0
    0.0719   -0.7468    1.1521 H   0  0  0  0  0  0  0  0  0  0  0  0
    0.2338   -0.7427   -0.9878 C   0  0  0  0  0  0  0  0  0  0  0  0
   -0.3415   -0.3863   -1.8441 H   0  0  0  0  0  0  0  0  0  0  0  0
    1.2011   -0.2370   -0.9995 H   0  0  0  0  0  0  0  0  0  0  0  0
    0.4662   -2.2226   -1.1491 C   0  0  0  0  0  0  0  0  0  0  0  0
   -0.3363   -3.2323   -0.6625 N   0  0  0  0  0  0  0  0  0  0  0  0
   -1.1439   -3.1164   -0.0688 H   0  0  0  0  0  0  0  0  0  0  0  0
    0.1482   -4.4018   -1.1129 C   0  0  0  0  0  0  0  0  0  0  0  0
   -0.2673   -5.3777   -0.8934 H   0  0  0  0  0  0  0  0  0  0  0  0
    1.2261   -4.1924   -1.8827 N   0  0  0  0  0  0  0  0  0  0  0  0
    1.4406   -2.8119   -1.9098 C   0  0  0  0  0  0  0  0  0  0  0  0
    2.2153   -2.2963   -2.4625 H   0  0  0  0  0  0  0  0  0  0  0  0
   -0.6600    1.1486    0.4782 C   0  0  0  0  0  0  0  0  0  0  0  0
   -1.5001    1.7648   -0.1771 O   0  0  0  0  0  0  0  0  0  0  0  0
    0.1634    1.7559    1.3418 N   0  0  0  0  0  0  0  0  0  0  0  0
    0.8618    1.1897    1.8008 H   0  0  0  0  0  0  0  0  0  0  0  0
    0.1509    3.1886    1.6256 C   0  0  0  0  0  0  0  0  0  0  0  0
   -0.8272    3.4794    2.0152 H   0  0  0  0  0  0  0  0  0  0  0  0
    0.9172    3.4314    2.3624 H   0  0  0  0  0  0  0  0  0  0  0  0
    0.3414    3.7499    0.7095 H   0  0  0  0  0  0  0  0  0  0  0  0
  5  6  2  0  0  0  0
  5  7  1  0  0  0  0
  2  3  1  0  0  0  0
  2  4  1  0  0  0  0
  2  5  1  0  0  0  0
  1  2  1  0  0  0  0
 22 23  2  0  0  0  0
 22 24  1  0  0  0  0
 20 21  1  0  0  0  0
 19 20  1  0  0  0  0
 17 18  1  0  0  0  0
 17 19  2  0  0  0  0
 15 16  1  0  0  0  0
 15 17  1  0  0  0  0
 14 15  1  0  0  0  0
 14 20  2  0  0  0  0
 11 12  1  0  0  0  0
 11 13  1  0  0  0  0
 11 14  1  0  0  0  0
  9 10  1  0  0  0  0
  9 11  1  0  0  0  0
  9 22  1  0  0  0  0
  7  8  1  0  0  0  0
  7  9  1  0  0  0  0
 26 27  1  0  0  0  0
 26 28  1  0  0  0  0
 26 29  1  0  0  0  0
 24 25  1  0  0  0  0
 24 26  1  0  0  0  0
M  END
$$$$
default_name
  -OEChem-02102213163D

 29 29  0     1  0  0  0  0  0999 V2000
   -3.6042   -3.5728    1.4576 H   0  0  0  0  0  0  0  0  0  0  0  0
   -3.5202   -2.6488    0.8866 C   0  0  0  0  0  0  0  0  0  0  0  0
   -4.2052   -1.9048    1.2896 H   0  0  0  0  0  0  0  0  0  0  0  0
   -3.7552   -2.8428   -0.1584 H   0  0  0  0  0  0  0  0  0  0  0  0
   -2.1052   -2.1358    0.9946 C   0  0  0  0  0  0  0  0  0  0  0  0
   -1.2852   -2.7288    1.6826 O   0  0  0  0  0  0  0  0  0  0  0  0
   -1.8202   -1.0288    0.3146 N   0  0  0  0  0  0  0  0  0  0  0  0
   -2.5542   -0.5788   -0.2104 H   0  0  0  0  0  0  0  0  0  0  0  0
   -0.5102   -0.3728    0.3086 C   0  0  1  0  0  0  0  0  0  0  0  0
    0.0719   -0.7468    1.1521 H   0  0  0  0  0  0  0  0  0  0  0  0
    0.2338   -0.7427   -0.9878 C   0  0  0  0  0  0  0  0  0  0  0  0
   -0.3415   -0.3863   -1.8441 H   0  0  0  0  0  0  0  0  0  0  0  0
    1.2011   -0.2370   -0.9995 H   0  0  0  0  0  0  0  0  0  0  0  0
    0.4662   -2.2226   -1.1491 C   0  0  0  0  0  0  0  0  0  0  0  0
   -0.4563   -3.2224   -0.9264 N   0  0  0  0  0  0  0  0  0  0  0  0
   -1.3857   -3.1017   -0.5525 H   0  0  0  0  0  0  0  0  0  0  0  0
    0.1005   -4.3900   -1.2896 C   0  0  0  0  0  0  0  0  0  0  0  0
   -0.3791   -5.3591   -1.2253 H   0  0  0  0  0  0  0  0  0  0  0  0
    1.3434   -4.1883   -1.7509 N   0  0  0  0  0  0  0  0  0  0  0  0
    1.5887   -2.8155   -1.6627 C   0  0  0  0  0  0  0  0  0  0  0  0
    2.4901   -2.3059   -1.9778 H   0  0  0  0  0  0  0  0  0  0  0  0
   -0.6600    1.1486    0.4782 C   0  0  0  0  0  0  0  0  0  0  0  0
   -1.5001    1.7648   -0.1771 O   0  0  0  0  0  0  0  0  0  0  0  0
    0.1634    1.7559    1.3418 N   0  0  0  0  0  0  0  0  0  0  0  0
    0.8618    1.1897    1.8008 H   0  0  0  0  0  0  0  0  0  0  0  0
    0.1509    3.1886    1.6256 C   0  0  0  0  0  0  0  0  0  0  0  0
   -0.8272    3.4794    2.0152 H   0  0  0  0  0  0  0  0  0  0  0  0
    0.9172    3.4314    2.3624 H   0  0  0  0  0  0  0  0  0  0  0  0
    0.3414    3.7499    0.7095 H   0  0  0  0  0  0  0  0  0  0  0  0
  5  6  2  0  0  0  0
  5  7  1  0  0  0  0
  2  3  1  0  0  0  0
  2  4  1  0  0  0  0
  2  5  1  0  0  0  0
  1  2  1  0  0  0  0
 22 23  2  0  0  0  0
 22 24  1  0  0  0  0
 20 21  1  0  0  0  0
 19 20  1  0  0  0  0
 17 18  1  0  0  0  0
 17 19  2  0  0  0  0
 15 16  1  0  0  0  0
 15 17  1  0  0  0  0
 14 15  1  0  0  0  0
 14 20  2  0  0  0  0
 11 12  1  0  0  0  0
 11 13  1  0  0  0  0
 11 14  1  0  0  0  0
  9 10  1  0  0  0  0
  9 11  1  0  0  0  0
  9 22  1  0  0  0  0
  7  8  1  0  0  0  0
  7  9  1  0  0  0  0
 26 27  1  0  0  0  0
 26 28  1  0  0  0  0
 26 29  1  0  0  0  0
 24 25  1  0  0  0  0
 24 26  1  0  0  0  0
M  END
$$$$
default_name
  -OEChem-02102213163D

 29 29  0     1  0  0  0  0  0999 V2000
   -3.6042   -3.5728    1.4576 H   0  0  0  0  0  0  0  0  0  0  0  0
   -3.5202   -2.6488    0.8866 C   0  0  0  0  0  0  0  0  0  0  0  0
   -4.2052   -1.9048    1.2896 H   0  0  0  0  0  0  0  0  0  0  0  0
   -3.7552   -2.8428   -0.1584 H   0  0  0  0  0  0  0  0  0  0  0  0
   -2.1052   -2.1358    0.9946 C   0  0  0  0  0  0  0  0  0  0  0  0
   -1.2852   -2.7288    1.6826 O   0  0  0  0  0  0  0  0  0  0  0  0
   -1.8202   -1.0288    0.3146 N   0  0  0  0  0  0  0  0  0  0  0  0
   -2.5542   -0.5788   -0.2104 H   0  0  0  0  0  0  0  0  0  0  0  0
   -0.5102   -0.3728    0.3086 C   0  0  1  0  0  0  0  0  0  0  0  0
    0.0719   -0.7468    1.1521 H   0  0  0  0  0  0  0  0  0  0  0  0
    0.2338   -0.7427   -0.9878 C   0  0  0  0  0  0  0  0  0  0  0  0
   -0.3415   -0.3863   -1.8441 H   0  0  0  0  0  0  0  0  0  0  0  0
    1.2011   -0.2370   -0.9995 H   0  0  0  0  0  0  0  0  0  0  0  0
    0.4662   -2.2226   -1.1491 C   0  0  0  0  0  0  0  0  0  0  0  0
   -0.5049   -3.1989   -1.2114 N   0  0  0  0  0  0  0  0  0  0  0  0
   -1.4959   -3.0615   -1.0806 H   0  0  0  0  0  0  0  0  0  0  0  0
    0.0996   -4.3703   -1.4719 C   0  0  0  0  0  0  0  0  0  0  0  0
   -0.4023   -5.3248   -1.5736 H   0  0  0  0  0  0  0  0  0  0  0  0
    1.4233   -4.1929   -1.5937 N   0  0  0  0  0  0  0  0  0  0  0  0
    1.6689   -2.8330   -1.3865 C   0  0  0  0  0  0  0  0  0  0  0  0
    2.6320   -2.3422   -1.4402 H   0  0  0  0  0  0  0  0  0  0  0  0
   -0.6600    1.1486    0.4782 C   0  0  0  0  0  0  0  0  0  0  0  0
   -1.5001    1.7648   -0.1771 O   0  0  0  0  0  0  0  0  0  0  0  0
    0.1634    1.7559    1.3418 N   0  0  0  0  0  0  0  0  0  0  0  0
    0.8618    1.1897    1.8008 H   0  0  0  0  0  0  0  0  0  0  0  0
    0.1509    3.1886    1.6256 C   0  0  0  0  0  0  0  0  0  0  0  0
   -0.8272    3.4794    2.0152 H   0  0  0  0  0  0  0  0  0  0  0  0
    0.9172    3.4314    2.3624 H   0  0  0  0  0  0  0  0  0  0  0  0
    0.3414    3.7499    0.7095 H   0  0  0  0  0  0  0  0  0  0  0  0
  5  6  2  0  0  0  0
  5  7  1  0  0  0  0
  2  3  1  0  0  0  0
  2  4  1  0  0  0  0
  2  5  1  0  0  0  0
  1  2  1  0  0  0  0
 22 23  2  0  0  0  0
 22 24  1  0  0  0  0
 20 21  1  0  0  0  0
 19 20  1  0  0  0  0
 17 18  1  0  0  0  0
 17 19  2  0  0  0  0
 15 16  1  0  0  0  0
 15 17  1  0  0  0  0
 14 15  1  0  0  0  0
 14 20  2  0  0  0  0
 11 12  1  0  0  0  0
 11 13  1  0  0  0  0
 11 14  1  0  0  0  0
  9 10  1  0  0  0  0
  9 11  1  0  0  0  0
  9 22  1  0  0  0  0
  7  8  1  0  0  0  0
  7  9  1  0  0  0  0
 26 27  1  0  0  0  0
 26 28  1  0  0  0  0
 26 29  1  0  0  0  0
 24 25  1  0  0  0  0
 24 26  1  0  0  0  0
M  END
$$$$
default_name
  -OEChem-02102213163D

 29 29  0     1  0  0  0  0  0999 V2000
   -3.6042   -3.5728    1.4576 H   0  0  0  0  0  0  0  0  0  0  0  0
   -3.5202   -2.6488    0.8866 C   0  0  0  0  0  0  0  0  0  0  0  0
   -4.2052   -1.9048    1.2896 H   0  0  0  0  0  0  0  0  0  0  0  0
   -3.7552   -2.8428   -0.1584 H   0  0  0  0  0  0  0  0  0  0  0  0
   -2.1052   -2.1358    0.9946 C   0  0  0  0  0  0  0  0  0  0  0  0
   -1.2852   -2.7288    1.6826 O   0  0  0  0  0  0  0  0  0  0  0  0
   -1.8202   -1.0288    0.3146 N   0  0  0  0  0  0  0  0  0  0  0  0
   -2.5542   -0.5788   -0.2104 H   0  0  0  0  0  0  0  0  0  0  0  0
   -0.5102   -0.3728    0.3086 C   0  0  1  0  0  0  0  0  0  0  0  0
    0.0719   -0.7468    1.1521 H   0  0  0  0  0  0  0  0  0  0  0  0
    0.2338   -0.7427   -0.9878 C   0  0  0  0  0  0  0  0  0  0  0  0
   -0.3415   -0.3863   -1.8441 H   0  0  0  0  0  0  0  0  0  0  0  0
    1.2011   -0.2370   -0.9995 H   0  0  0  0  0  0  0  0  0  0  0  0
    0.4662   -2.2226   -1.1491 C   0  0  0  0  0  0  0  0  0  0  0  0
   -0.4787   -3.1636   -1.4981 N   0  0  0  0  0  0  0  0  0  0  0  0
   -1.4670   -2.9985   -1.6171 H   0  0  0  0  0  0  0  0  0  0  0  0
    0.1457   -4.3439   -1.6475 C   0  0  0  0  0  0  0  0  0  0  0  0
   -0.3351   -5.2771   -1.9146 H   0  0  0  0  0  0  0  0  0  0  0  0
    1.4603   -4.2058   -1.4217 N   0  0  0  0  0  0  0  0  0  0  0  0
    1.6756   -2.8632   -1.1000 C   0  0  0  0  0  0  0  0  0  0  0  0
    2.6315   -2.4026   -0.8862 H   0  0  0  0  0  0  0  0  0  0  0  0
   -0.6600    1.1486    0.4782 C   0  0  0  0  0  0  0  0  0  0  0  0
   -1.5001    1.7648   -0.1771 O   0  0  0  0  0  0  0  0  0  0  0  0
    0.1634    1.7559    1.3418 N   0  0  0  0  0  0  0  0  0  0  0  0
    0.8618    1.1897    1.8008 H   0  0  0  0  0  0  0  0  0  0  0  0
    0.1509    3.1886    1.6256 C   0  0  0  0  0  0  0  0  0  0  0  0
   -0.8272    3.4794    2.0152 H   0  0  0  0  0  0  0  0  0  0  0  0
    0.9172    3.4314    2.3624 H   0  0  0  0  0  0  0  0  0  0  0  0
    0.3414    3.7499    0.7095 H   0  0  0  0  0  0  0  0  0  0  0  0
  5  6  2  0  0  0  0
  5  7  1  0  0  0  0
  2  3  1  0  0  0  0
  2  4  1  0  0  0  0
  2  5  1  0  0  0  0
  1  2  1  0  0  0  0
 22 23  2  0  0  0  0
 22 24  1  0  0  0  0
 20 21  1  0  0  0  0
 19 20  1  0  0  0  0
 17 18  1  0  0  0  0
 17 19  2  0  0  0  0
 15 16  1  0  0  0  0
 15 17  1  0  0  0  0
 14 15  1  0  0  0  0
 14 20  2  0  0  0  0
 11 12  1  0  0  0  0
 11 13  1  0  0  0  0
 11 14  1  0  0  0  0
  9 10  1  0  0  0  0
  9 11  1  0  0  0  0
  9 22  1  0  0  0  0
  7  8  1  0  0  0  0
  7  9  1  0  0  0  0
 26 27  1  0  0  0  0
 26 28  1  0  0  0  0
 26 29  1  0  0  0  0
 24 25  1  0  0  0  0
 24 26  1  0  0  0  0
M  END
$$$$
default_name
  -OEChem-02102213163D

 29 29  0     1  0  0  0  0  0999 V2000
   -3.6042   -3.5728    1.4576 H   0  0  0  0  0  0  0  0  0  0  0  0
   -3.5202   -2.6488    0.8866 C   0  0  0  0  0  0  0  0  0  0  0  0
   -4.2052   -1.9048    1.2896 H   0  0  0  0  0  0  0  0  0  0  0  0
   -3.7552   -2.8428   -0.1584 H   0  0  0  0  0  0  0  0  0  0  0  0
   -2.1052   -2.1358    0.9946 C   0  0  0  0  0  0  0  0  0  0  0  0
   -1.2852   -2.7288    1.6826 O   0  0  0  0  0  0  0  0  0  0  0  0
   -1.8202   -1.0288    0.3146 N   0  0  0  0  0  0  0  0  0  0  0  0
   -2.5542   -0.5788   -0.2104 H   0  0  0  0  0  0  0  0  0  0  0  0
   -0.5102   -0.3728    0.3086 C   0  0  1  0  0  0  0  0  0  0  0  0
    0.0719   -0.7468    1.1521 H   0  0  0  0  0  0  0  0  0  0  0  0
    0.2338   -0.7427   -0.9878 C   0  0  0  0  0  0  0  0  0  0  0  0
   -0.3415   -0.3863   -1.8441 H   0  0  0  0  0  0  0  0  0  0  0  0
    1.2011   -0.2370   -0.9995 H   0  0  0  0  0  0  0  0  0  0  0  0
    0.4662   -2.2226   -1.1491 C   0  0  0  0  0  0  0  0  0  0  0  0
   -0.3795   -3.1187   -1.7670 N   0  0  0  0  0  0  0  0  0  0  0  0
   -1.3009   -2.9170   -2.1255 H   0  0  0  0  0  0  0  0  0  0  0  0
    0.2355   -4.3127   -1.8043 C   0  0  0  0  0  0  0  0  0  0  0  0
   -0.1822   -5.2192   -2.2250 H   0  0  0  0  0  0  0  0  0  0  0  0
    1.4520   -4.2262   -1.2466 N   0  0  0  0  0  0  0  0  0  0  0  0
    1.6085   -2.9039   -0.8227 C   0  0  0  0  0  0  0  0  0  0  0  0
    2.4884   -2.4831   -0.3537 H   0  0  0  0  0  0  0  0  0  0  0  0
   -0.6600    1.1486    0.4782 C   0  0  0  0  0  0  0  0  0  0  0  0
   -1.5001    1.7648   -0.1771 O   0  0  0  0  0  0  0  0  0  0  0  0
    0.1634    1.7559    1.3418 N   0  0  0  0  0  0  0  0  0  0  0  0
    0.8618    1.1897    1.8008 H   0  0  0  0  0  0  0  0  0  0  0  0
    0.1509    3.1886    1.6256 C   0  0  0  0  0  0  0  0  0  0  0  0
   -0.8272    3.4794    2.0152 H   0  0  0  0  0  0  0  0  0  0  0  0
    0.9172    3.4314    2.3624 H   0  0  0  0  0  0  0  0  0  0  0  0
    0.3414    3.7499    0.7095 H   0  0  0  0  0  0  0  0  0  0  0  0
  5  6  2  0  0  0  0
  5  7  1  0  0  0  0
  2  3  1  0  0  0  0
  2  4  1  0  0  0  0
  2  5  1  0  0  0  0
  1  2  1  0  0  0  0
 22 23  2  0  0  0  0
 22 24  1  0  0  0  0
 20 21  1  0  0  0  0
 19 20  1  0  0  0  0
 17 18  1  0  0  0  0
 17 19  2  0  0  0  0
 15 16  1  0  0  0  0
 15 17  1  0  0  0  0
 14 15  1  0  0  0  0
 14 20  2  0  0  0  0
 11 12  1  0  0  0  0
 11 13  1  0  0  0  0
 11 14  1  0  0  0  0
  9 10  1  0  0  0  0
  9 11  1  0  0  0  0
  9 22  1  0  0  0  0
  7  8  1  0  0  0  0
  7  9  1  0  0  0  0
 26 27  1  0  0  0  0
 26 28  1  0  0  0  0
 26 29  1  0  0  0  0
 24 25  1  0  0  0  0
 24 26  1  0  0  0  0
M  END
$$$$
default_name
  -OEChem-02102213163D

 29 29  0     1  0  0  0  0  0999 V2000
   -3.6042   -3.5728    1.4576 H   0  0  0  0  0  0  0  0  0  0  0  0
   -3.5202   -2.6488    0.8866 C   0  0  0  0  0  0  0  0  0  0  0  0
   -4.2052   -1.9048    1.2896 H   0  0  0  0  0  0  0  0  0  0  0  0
   -3.7552   -2.8428   -0.1584 H   0  0  0  0  0  0  0  0  0  0  0  0
   -2.1052   -2.1358    0.9946 C   0  0  0  0  0  0  0  0  0  0  0  0
   -1.2852   -2.7288    1.6826 O   0  0  0  0  0  0  0  0  0  0  0  0
   -1.8202   -1.0288    0.3146 N   0  0  0  0  0  0  0  0  0  0  0  0
   -2.5542   -0.5788   -0.2104 H   0  0  0  0  0  0  0  0  0  0  0  0
   -0.5102   -0.3728    0.3086 C   0  0  1  0  0  0  0  0  0  0  0  0
    0.0719   -0.7468    1.1521 H   0  0  0  0  0  0  0  0  0  0  0  0
    0.2338   -0.7427   -0.9878 C   0  0  0  0  0  0  0  0  0  0  0  0
   -0.3415   -0.3863   -1.8441 H   0  0  0  0  0  0  0  0  0  0  0  0
    1.2011   -0.2370   -0.9995 H   0  0  0  0  0  0  0  0  0  0  0  0
    0.4662   -2.2226   -1.1491 C   0  0  0  0  0  0  0  0  0  0  0  0
   -0.2142   -3.0674   -1.9997 N   0  0  0  0  0  0  0  0  0  0  0  0
   -1.0090   -2.8227   -2.5710 H   0  0  0  0  0  0  0  0  0  0  0  0
    0.3630   -4.2788   -1.9317 C   0  0  0  0  0  0  0  0  0  0  0  0
    0.0459   -5.1552   -2.4836 H   0  0  0  0  0  0  0  0  0  0  0  0
    1.3989   -4.2526   -1.0805 N   0  0  0  0  0  0  0  0  0  0  0  0
    1.4720   -2.9525   -0.5736 C   0  0  0  0  0  0  0  0  0  0  0  0
    2.2126   -2.5782    0.1212 H   0  0  0  0  0  0  0  0  0  0  0  0
   -0.6600    1.1486    0.4782 C   0  0  0  0  0  0  0  0  0  0  0  0
   -1.5001    1.7648   -0.1771 O   0  0  0  0  0  0  0  0  0  0  0  0
    0.1634    1.7559    1.3418 N   0  0  0  0  0  0  0  0  0  0  0  0
    0.8618    1.1897    1.8008 H   0  0  0  0  0  0  0  0  0  0  0  0
    0.1509    3.1886    1.6256 C   0  0  0  0  0  0  0  0  0  0  0  0
   -0.8272    3.4794    2.0152 H   0  0  0  0  0  0  0  0  0  0  0  0
    0.9172    3.4314    2.3624 H   0  0  0  0  0  0  0  0  0  0  0  0
    0.3414    3.7499    0.7095 H   0  0  0  0  0  0  0  0  0  0  0  0
  5  6  2  0  0  0  0
  5  7  1  0  0  0  0
  2  3  1  0  0  0  0
  2  4  1  0  0  0  0
  2  5  1  0  0  0  0
  1  2  1  0  0  0  0
 22 23  2  0  0  0  0
 22 24  1  0  0  0  0
 20 21  1  0  0  0  0
 19 20  1  0  0  0  0
 17 18  1  0  0  0  0
 17 19  2  0  0  0  0
 15 16  1  0  0  0  0
 15 17  1  0  0  0  0
 14 15  1  0  0  0  0
 14 20  2  0  0  0  0
 11 12  1  0  0  0  0
 11 13  1  0  0  0  0
 11 14  1  0  0  0  0
  9 10  1  0  0  0  0
  9 11  1  0  0  0  0
  9 22  1  0  0  0  0
  7  8  1  0  0  0  0
  7  9  1  0  0  0  0
 26 27  1  0  0  0  0
 26 28  1  0  0  0  0
 26 29  1  0  0  0  0
 24 25  1  0  0  0  0
 24 26  1  0  0  0  0
M  END
$$$$
default_name
  -OEChem-02102213163D

 29 29  0     1  0  0  0  0  0999 V2000
   -3.6042   -3.5728    1.4576 H   0  0  0  0  0  0  0  0  0  0  0  0
   -3.5202   -2.6488    0.8866 C   0  0  0  0  0  0  0  0  0  0  0  0
   -4.2052   -1.9048    1.2896 H   0  0  0  0  0  0  0  0  0  0  0  0
   -3.7552   -2.8428   -0.1584 H   0  0  0  0  0  0  0  0  0  0  0  0
   -2.1052   -2.1358    0.9946 C   0  0  0  0  0  0  0  0  0  0  0  0
   -1.2852   -2.7288    1.6826 O   0  0  0  0  0  0  0  0  0  0  0  0
   -1.8202   -1.0288    0.3146 N   0  0  0  0  0  0  0  0  0  0  0  0
   -2.5542   -0.5788   -0.2104 H   0  0  0  0  0  0  0  0  0  0  0  0
   -0.5102   -0.3728    0.3086 C   0  0  1  0  0  0  0  0  0  0  0  0
    0.0719   -0.7468    1.1521 H   0  0  0  0  0  0  0  0  0  0  0  0
    0.2338   -0.7427   -0.9878 C   0  0  0  0  0  0  0  0  0  0  0  0
   -0.3415   -0.3863   -1.8441 H   0  0  0  0  0  0  0  0  0  0  0  0
    1.2011   -0.2370   -0.9995 H   0  0  0  0  0  0  0  0  0  0  0  0
    0.4662   -2.2226   -1.1491 C   0  0  0  0  0  0  0  0  0  0  0  0
    0.0061   -3.0131   -2.1803 N   0  0  0  0  0  0  0  0  0  0  0  0
   -0.6112   -2.7218   -2.9234 H   0  0  0  0  0  0  0  0  0  0  0  0
    0.5195   -4.2445   -2.0209 C   0  0  0  0  0  0  0  0  0  0  0  0
    0.3338   -5.0894   -2.6728 H   0  0  0  0  0  0  0  0  0  0  0  0
    1.3047   -4.2833   -0.9345 N   0  0  0  0  0  0  0  0  0  0  0  0
    1.2755   -3.0056   -0.3696 C   0  0  0  0  0  0  0  0  0  0  0  0
    1.8229   -2.6813    0.5059 H   0  0  0  0  0  0  0  0  0  0  0  0
   -0.6600    1.1486    0.4782 C   0  0  0  0  0  0  0  0  0  0  0  0
   -1.5001    1.7648   -0.1771 O   0  0  0  0  0  0  0  0  0  0  0  0
    0.1634    1.7559    1.3418 N   0  0  0  0  0  0  0  0  0  0  0  0
    0.8618    1.1897    1.8008 H   0  0  0  0  0  0  0  0  0  0  0  0
    0.1509    3.1886    1.6256 C   0  0  0  0  0  0  0  0  0  0  0  0
   -0.8272    3.4794    2.0152 H   0  0  0  0  0  0  0  0  0  0  0  0
    0.9172    3.4314    2.3624 H   0  0  0  0  0  0  0  0  0  0  0  0
    0.3414    3.7499    0.7095 H   0  0  0  0  0  0  0  0  0  0  0  0
  5  6  2  0  0  0  0
  5  7  1  0  0  0  0
  2  3  1  0  0  0  0
  2  4  1  0  0  0  0
  2  5  1  0  0  0  0
  1  2  1  0  0  0  0
 22 23  2  0  0  0  0
 22 24  1  0  0  0  0
 20 21  1  0  0  0  0
 19 20  1  0  0  0  0
 17 18  1  0  0  0  0
 17 19  2  0  0  0  0
 15 16  1  0  0  0  0
 15 17  1  0  0  0  0
 14 15  1  0  0  0  0
 14 20  2  0  0  0  0
 11 12  1  0  0  0  0
 11 13  1  0  0  0  0
 11 14  1  0  0  0  0
  9 10  1  0  0  0  0
  9 11  1  0  0  0  0
  9 22  1  0  0  0  0
  7  8  1  0  0  0  0
  7  9  1  0  0  0  0
 26 27  1  0  0  0  0
 26 28  1  0  0  0  0
 26 29  1  0  0  0  0
 24 25  1  0  0  0  0
 24 26  1  0  0  0  0
M  END
$$$$
default_name
  -OEChem-02102213163D

 29 29  0     1  0  0  0  0  0999 V2000
   -3.6042   -3.5728    1.4576 H   0  0  0  0  0  0  0  0  0  0  0  0
   -3.5202   -2.6488    0.8866 C   0  0  0  0  0  0  0  0  0  0  0  0
   -4.2052   -1.9048    1.2896 H   0  0  0  0  0  0  0  0  0  0  0  0
   -3.7552   -2.8428   -0.1584 H   0  0  0  0  0  0  0  0  0  0  0  0
   -2.1052   -2.1358    0.9946 C   0  0  0  0  0  0  0  0  0  0  0  0
   -1.2852   -2.7288    1.6826 O   0  0  0  0  0  0  0  0  0  0  0  0
   -1.8202   -1.0288    0.3146 N   0  0  0  0  0  0  0  0  0  0  0  0
   -2.5542   -0.5788   -0.2104 H   0  0  0  0  0  0  0  0  0  0  0  0
   -0.5102   -0.3728    0.3086 C   0  0  1  0  0  0  0  0  0  0  0  0
    0.0719   -0.7468    1.1521 H   0  0  0  0  0  0  0  0  0  0  0  0
    0.2338   -0.7427   -0.9878 C   0  0  0  0  0  0  0  0  0  0  0  0
   -0.3415   -0.3863   -1.8441 H   0  0  0  0  0  0  0  0  0  0  0  0
    1.2011   -0.2370   -0.9995 H   0  0  0  0  0  0  0  0  0  0  0  0
    0.4662   -2.2226   -1.1491 C   0  0  0  0  0  0  0  0  0  0  0  0
    0.2664   -2.9596   -2.2967 N   0  0  0  0  0  0  0  0  0  0  0  0
   -0.1345   -2.6213   -3.1587 H   0  0  0  0  0  0  0  0  0  0  0  0
    0.6943   -4.2122   -2.0660 C   0  0  0  0  0  0  0  0  0  0  0  0
    0.6619   -5.0262   -2.7798 H   0  0  0  0  0  0  0  0  0  0  0  0
    1.1757   -4.3162   -0.8187 N   0  0  0  0  0  0  0  0  0  0  0  0
    1.0323   -3.0596   -0.2247 C   0  0  0  0  0  0  0  0  0  0  0  0
    1.3458   -2.7855    0.7743 H   0  0  0  0  0  0  0  0  0  0  0  0
   -0.6600    1.1486    0.4782 C   0  0  0  0  0  0  0  0  0  0  0  0
   -1.5001    1.7648   -0.1771 O   0  0  0  0  0  0  0  0  0  0  0  0
    0.1634    1.7559    1.3418 N   0  0  0  0  0  0  0  0  0  0  0  0
    0.8618    1.1897    1.8008 H   0  0  0  0  0  0  0  0  0  0  0  0
    0.1509    3.1886    1.6256 C   0  0  0  0  0  0  0  0  0  0  0  0
   -0.8272    3.4794    2.0152 H   0  0  0  0  0  0  0  0  0  0  0  0
    0.9172    3.4314    2.3624 H   0  0  0  0  0  0  0  0  0  0  0  0
    0.3414    3.7499    0.7095 H   0  0  0  0  0  0  0  0  0  0  0  0
  5  6  2  0  0  0  0
  5  7  1  0  0  0  0
  2  3  1  0  0  0  0
  2  4  1  0  0  0  0
  2  5  1  0  0  0  0
  1  2  1  0  0  0  0
 22 23  2  0  0  0  0
 22 24  1  0  0  0  0
 20 21  1  0  0  0  0
 19 20  1  0  0  0  0
 17 18  1  0  0  0  0
 17 19  2  0  0  0  0
 15 16  1  0  0  0  0
 15 17  1  0  0  0  0
 14 15  1  0  0  0  0
 14 20  2  0  0  0  0
 11 12  1  0  0  0  0
 11 13  1  0  0  0  0
 11 14  1  0  0  0  0
  9 10  1  0  0  0  0
  9 11  1  0  0  0  0
  9 22  1  0  0  0  0
  7  8  1  0  0  0  0
  7  9  1  0  0  0  0
 26 27  1  0  0  0  0
 26 28  1  0  0  0  0
 26 29  1  0  0  0  0
 24 25  1  0  0  0  0
 24 26  1  0  0  0  0
M  END
$$$$
default_name
  -OEChem-02102213163D

 29 29  0     1  0  0  0  0  0999 V2000
   -3.6042   -3.5728    1.4576 H   0  0  0  0  0  0  0  0  0  0  0  0
   -3.5202   -2.6488    0.8866 C   0  0  0  0  0  0  0  0  0  0  0  0
   -4.2052   -1.9048    1.2896 H   0  0  0  0  0  0  0  0  0  0  0  0
   -3.7552   -2.8428   -0.1584 H   0  0  0  0  0  0  0  0  0  0  0  0
   -2.1052   -2.1358    0.9946 C   0  0  0  0  0  0  0  0  0  0  0  0
   -1.2852   -2.7288    1.6826 O   0  0  0  0  0  0  0  0  0  0  0  0
   -1.8202   -1.0288    0.3146 N   0  0  0  0  0  0  0  0  0  0  0  0
   -2.5542   -0.5788   -0.2104 H   0  0  0  0  0  0  0  0  0  0  0  0
   -0.5102   -0.3728    0.3086 C   0  0  1  0  0  0  0  0  0  0  0  0
    0.0719   -0.7468    1.1521 H   0  0  0  0  0  0  0  0  0  0  0  0
    0.2338   -0.7427   -0.9878 C   0  0  0  0  0  0  0  0  0  0  0  0
   -0.3415   -0.3863   -1.8441 H   0  0  0  0  0  0  0  0  0  0  0  0
    1.2011   -0.2370   -0.9995 H   0  0  0  0  0  0  0  0  0  0  0  0
    0.4662   -2.2226   -1.1491 C   0  0  0  0  0  0  0  0  0  0  0  0
    0.5488   -2.9104   -2.3408 N   0  0  0  0  0  0  0  0  0  0  0  0
    0.3885   -2.5280   -3.2607 H   0  0  0  0  0  0  0  0  0  0  0  0
    0.8755   -4.1840   -2.0638 C   0  0  0  0  0  0  0  0  0  0  0  0
    1.0077   -4.9700   -2.7972 H   0  0  0  0  0  0  0  0  0  0  0  0
    1.0208   -4.3490   -0.7410 N   0  0  0  0  0  0  0  0  0  0  0  0
    0.7591   -3.1108   -0.1487 C   0  0  0  0  0  0  0  0  0  0  0  0
    0.8138   -2.8836    0.9081 H   0  0  0  0  0  0  0  0  0  0  0  0
   -0.6600    1.1486    0.4782 C   0  0  0  0  0  0  0  0  0  0  0  0
   -1.5001    1.7648   -0.1771 O   0  0  0  0  0  0  0  0  0  0  0  0
    0.1634    1.7559    1.3418 N   0  0  0  0  0  0  0  0  0  0  0  0
    0.8618    1.1897    1.8008 H   0  0  0  0  0  0  0  0  0  0  0  0
    0.1509    3.1886    1.6256 C   0  0  0  0  0  0  0  0  0  0  0  0
   -0.8272    3.4794    2.0152 H   0  0  0  0  0  0  0  0  0  0  0  0
    0.9172    3.4314    2.3624 H   0  0  0  0  0  0  0  0  0  0  0  0
    0.3414    3.7499    0.7095 H   0  0  0  0  0  0  0  0  0  0  0  0
  5  6  2  0  0  0  0
  5  7  1  0  0  0  0
  2  3  1  0  0  0  0
  2  4  1  0  0  0  0
  2  5  1  0  0  0  0
  1  2  1  0  0  0  0
 22 23  2  0  0  0  0
 22 24  1  0  0  0  0
 20 21  1  0  0  0  0
 19 20  1  0  0  0  0
 17 18  1  0  0  0  0
 17 19  2  0  0  0  0
 15 16  1  0  0  0  0
 15 17  1  0  0  0  0
 14 15  1  0  0  0  0
 14 20  2  0  0  0  0
 11 12  1  0  0  0  0
 11 13  1  0  0  0  0
 11 14  1  0  0  0  0
  9 10  1  0  0  0  0
  9 11  1  0  0  0  0
  9 22  1  0  0  0  0
  7  8  1  0  0  0  0
  7  9  1  0  0  0  0
 26 27  1  0  0  0  0
 26 28  1  0  0  0  0
 26 29  1  0  0  0  0
 24 25  1  0  0  0  0
 24 26  1  0  0  0  0
M  END
$$$$
default_name
  -OEChem-02102213163D

 29 29  0     1  0  0  0  0  0999 V2000
   -3.6042   -3.5728    1.4576 H   0  0  0  0  0  0  0  0  0  0  0  0
   -3.5202   -2.6488    0.8866 C   0  0  0  0  0  0  0  0  0  0  0  0
   -4.2052   -1.9048    1.2896 H   0  0  0  0  0  0  0  0  0  0  0  0
   -3.7552   -2.8428   -0.1584 H   0  0  0  0  0  0  0  0  0  0  0  0
   -2.1052   -2.1358    0.9946 C   0  0  0  0  0  0  0  0  0  0  0  0
   -1.2852   -2.7288    1.6826 O   0  0  0  0  0  0  0  0  0  0  0  0
   -1.8202   -1.0288    0.3146 N   0  0  0  0  0  0  0  0  0  0  0  0
   -2.5542   -0.5788   -0.2104 H   0  0  0  0  0  0  0  0  0  0  0  0
   -0.5102   -0.3728    0.3086 C   0  0  1  0  0  0  0  0  0  0  0  0
    0.0719   -0.7468    1.1521 H   0  0  0  0  0  0  0  0  0  0  0  0
    0.2338   -0.7427   -0.9878 C   0  0  0  0  0  0  0  0  0  0  0  0
   -0.3415   -0.3863   -1.8441 H   0  0  0  0  0  0  0  0  0  0  0  0
    1.2011   -0.2370   -0.9995 H   0  0  0  0  0  0  0  0  0  0  0  0
    0.4662   -2.2226   -1.1491 C   0  0  0  0  0  0  0  0  0  0  0  0
    0.8342   -2.8690   -2.3096 N   0  0  0  0  0  0  0  0  0  0  0  0
    0.9222   -2.4484   -3.2226 H   0  0  0  0  0  0  0  0  0  0  0  0
    1.0508   -4.1618   -2.0145 C   0  0  0  0  0  0  0  0  0  0  0  0
    1.3477   -4.9246   -2.7239 H   0  0  0  0  0  0  0  0  0  0  0  0
    0.8504   -4.3795   -0.7066 N   0  0  0  0  0  0  0  0  0  0  0  0
    0.4745   -3.1557   -0.1467 C   0  0  0  0  0  0  0  0  0  0  0  0
    0.2632   -2.9690    0.8983 H   0  0  0  0  0  0  0  0  0  0  0  0
   -0.6600    1.1486    0.4782 C   0  0  0  0  0  0  0  0  0  0  0  0
   -1.5001    1.7648   -0.1771 O   0  0  0  0  0  0  0  0  0  0  0  0
    0.1634    1.7559    1.3418 N   0  0  0  0  0  0  0  0  0  0  0  0
    0.8618    1.1897    1.8008 H   0  0  0  0  0  0  0  0  0  0  0  0
    0.1509    3.1886    1.6256 C   0  0  0  0  0  0  0  0  0  0  0  0
   -0.8272    3.4794    2.0152 H   0  0  0  0  0  0  0  0  0  0  0  0
    0.9172    3.4314    2.3624 H   0  0  0  0  0  0  0  0  0  0  0  0
    0.3414    3.7499    0.7095 H   0  0  0  0  0  0  0  0  0  0  0  0
  5  6  2  0  0  0  0
  5  7  1  0  0  0  0
  2  3  1  0  0  0  0
  2  4  1  0  0  0  0
  2  5  1  0  0  0  0
  1  2  1  0  0  0  0
 22 23  2  0  0  0  0
 22 24  1  0  0  0  0
 20 21  1  0  0  0  0
 19 20  1  0  0  0  0
 17 18  1  0  0  0  0
 17 19  2  0  0  0  0
 15 16  1  0  0  0  0
 15 17  1  0  0  0  0
 14 15  1  0  0  0  0
 14 20  2  0  0  0  0
 11 12  1  0  0  0  0
 11 13  1  0  0  0  0
 11 14  1  0  0  0  0
  9 10  1  0  0  0  0
  9 11  1  0  0  0  0
  9 22  1  0  0  0  0
  7  8  1  0  0  0  0
  7  9  1  0  0  0  0
 26 27  1  0  0  0  0
 26 28  1  0  0  0  0
 26 29  1  0  0  0  0
 24 25  1  0  0  0  0
 24 26  1  0  0  0  0
M  END
$$$$
default_name
  -OEChem-02102213163D

 29 29  0     1  0  0  0  0  0999 V2000
   -3.6042   -3.5728    1.4576 H   0  0  0  0  0  0  0  0  0  0  0  0
   -3.5202   -2.6488    0.8866 C   0  0  0  0  0  0  0  0  0  0  0  0
   -4.2052   -1.9048    1.2896 H   0  0  0  0  0  0  0  0  0  0  0  0
   -3.7552   -2.8428   -0.1584 H   0  0  0  0  0  0  0  0  0  0  0  0
   -2.1052   -2.1358    0.9946 C   0  0  0  0  0  0  0  0  0  0  0  0
   -1.2852   -2.7288    1.6826 O   0  0  0  0  0  0  0  0  0  0  0  0
   -1.8202   -1.0288    0.3146 N   0  0  0  0  0  0  0  0  0  0  0  0
   -2.5542   -0.5788   -0.2104 H   0  0  0  0  0  0  0  0  0  0  0  0
   -0.5102   -0.3728    0.3086 C   0  0  1  0  0  0  0  0  0  0  0  0
    0.0719   -0.7468    1.1521 H   0  0  0  0  0  0  0  0  0  0  0  0
    0.2338   -0.7427   -0.9878 C   0  0  0  0  0  0  0  0  0  0  0  0
   -0.1851   -0.1689   -1.8164 H   0  0  0  0  0  0  0  0  0  0  0  0
    1.2849   -0.4665   -0.8859 H   0  0  0  0  0  0  0  0  0  0  0  0
    0.1558   -2.2076   -1.3315 C   0  0  0  0  0  0  0  0  0  0  0  0
    0.7247   -2.8198   -2.4277 N   0  0  0  0  0  0  0  0  0  0  0  0
    1.2036   -2.3570   -3.1857 H   0  0  0  0  0  0  0  0  0  0  0  0
    0.5253   -4.1438   -2.3144 C   0  0  0  0  0  0  0  0  0  0  0  0
    0.8534   -4.8896   -3.0280 H   0  0  0  0  0  0  0  0  0  0  0  0
   -0.1395   -4.4181   -1.1825 N   0  0  0  0  0  0  0  0  0  0  0  0
   -0.3836   -3.1955   -0.5514 C   0  0  0  0  0  0  0  0  0  0  0  0
   -0.8777   -3.0556    0.4013 H   0  0  0  0  0  0  0  0  0  0  0  0
   -0.6600    1.1486    0.4782 C   0  0  0  0  0  0  0  0  0  0  0  0
   -1.5001    1.7648   -0.1771 O   0  0  0  0  0  0  0  0  0  0  0  0
    0.1634    1.7559    1.3418 N   0  0  0  0  0  0  0  0  0  0  0  0
    0.8618    1.1897    1.8008 H   0  0  0  0  0  0  0  0  0  0  0  0
    0.1509    3.1886    1.6256 C   0  0  0  0  0  0  0  0  0  0  0  0
   -0.8272    3.4794    2.0152 H   0  0  0  0  0  0  0  0  0  0  0  0
    0.9172    3.4314    2.3624 H   0  0  0  0  0  0  0  0  0  0  0  0
    0.3414    3.7499    0.7095 H   0  0  0  0  0  0  0  0  0  0  0  0
  5  6  2  0  0  0  0
  5  7  1  0  0  0  0
  2  3  1  0  0  0  0
  2  4  1  0  0  0  0
  2  5  1  0  0  0  0
  1  2  1  0  0  0  0
 22 23  2  0  0  0  0
 22 24  1  0  0  0  0
 20 21  1  0  0  0  0
 19 20  1  0  0  0  0
 17 18  1  0  0  0  0
 17 19  2  0  0  0  0
 15 16  1  0  0  0  0
 15 17  1  0  0  0  0
 14 15  1  0  0  0  0
 14 20  2  0  0  0  0
 11 12  1  0  0  0  0
 11 13  1  0  0  0  0
 11 14  1  0  0  0  0
  9 10  1  0  0  0  0
  9 11  1  0  0  0  0
  9 22  1  0  0  0  0
  7  8  1  0  0  0  0
  7  9  1  0  0  0  0
 26 27  1  0  0  0  0
 26 28  1  0  0  0  0
 26 29  1  0  0  0  0
 24 25  1  0  0  0  0
 24 26  1  0  0  0  0
M  END
$$$$
default_name
  -OEChem-02102213163D

 29 29  0     1  0  0  0  0  0999 V2000
   -3.6042   -3.5728    1.4576 H   0  0  0  0  0  0  0  0  0  0  0  0
   -3.5202   -2.6488    0.8866 C   0  0  0  0  0  0  0  0  0  0  0  0
   -4.2052   -1.9048    1.2896 H   0  0  0  0  0  0  0  0  0  0  0  0
   -3.7552   -2.8428   -0.1584 H   0  0  0  0  0  0  0  0  0  0  0  0
   -2.1052   -2.1358    0.9946 C   0  0  0  0  0  0  0  0  0  0  0  0
   -1.2852   -2.7288    1.6826 O   0  0  0  0  0  0  0  0  0  0  0  0
   -1.8202   -1.0288    0.3146 N   0  0  0  0  0  0  0  0  0  0  0  0
   -2.5542   -0.5788   -0.2104 H   0  0  0  0  0  0  0  0  0  0  0  0
   -0.5102   -0.3728    0.3086 C   0  0  1  0  0  0  0  0  0  0  0  0
    0.0719   -0.7468    1.1521 H   0  0  0  0  0  0  0  0  0  0  0  0
    0.2338   -0.7427   -0.9878 C   0  0  0  0  0  0  0  0  0  0  0  0
   -0.1851   -0.1689   -1.8164 H   0  0  0  0  0  0  0  0  0  0  0  0
    1.2849   -0.4665   -0.8859 H   0  0  0  0  0  0  0  0  0  0  0  0
    0.1558   -2.2076   -1.3315 C   0  0  0  0  0  0  0  0  0  0  0  0
    0.9435   -2.8743   -2.2454 N   0  0  0  0  0  0  0  0  0  0  0  0
    1.6248   -2.4557   -2.8609 H   0  0  0  0  0  0  0  0  0  0  0  0
    0.6421   -4.1819   -2.1782 C   0  0  0  0  0  0  0  0  0  0  0  0
    1.0930   -4.9602   -2.7817 H   0  0  0  0  0  0  0  0  0  0  0  0
   -0.3012   -4.3939   -1.2488 N   0  0  0  0  0  0  0  0  0  0  0  0
   -0.6213   -3.1464   -0.7068 C   0  0  0  0  0  0  0  0  0  0  0  0
   -1.3295   -2.9584    0.0898 H   0  0  0  0  0  0  0  0  0  0  0  0
   -0.6600    1.1486    0.4782 C   0  0  0  0  0  0  0  0  0  0  0  0
   -1.5001    1.7648   -0.1771 O   0  0  0  0  0  0  0  0  0  0  0  0
    0.1634    1.7559    1.3418 N   0  0  0  0  0  0  0  0  0  0  0  0
    0.8618    1.1897    1.8008 H   0  0  0  0  0  0  0  0  0  0  0  0
    0.1509    3.1886    1.6256 C   0  0  0  0  0  0  0  0  0  0  0  0
   -0.8272    3.4794    2.0152 H   0  0  0  0  0  0  0  0  0  0  0  0
    0.9172    3.4314    2.3624 H   0  0  0  0  0  0  0  0  0  0  0  0
    0.3414    3.7499    0.7095 H   0  0  0  0  0  0  0  0  0  0  0  0
  5  6  2  0  0  0  0
  5  7  1  0  0  0  0
  2  3  1  0  0  0  0
  2  4  1  0  0  0  0
  2  5  1  0  0  0  0
  1  2  1  0  0  0  0
 22 23  2  0  0  0  0
 22 24  1  0  0  0  0
 20 21  1  0  0  0  0
 19 20  1  0  0  0  0
 17 18  1  0  0  0  0
 17 19  2  0  0  0  0
 15 16  1  0  0  0  0
 15 17  1  0  0  0  0
 14 15  1  0  0  0  0
 14 20  2  0  0  0  0
 11 12  1  0  0  0  0
 11 13  1  0  0  0  0
 11 14  1  0  0  0  0
  9 10  1  0  0  0  0
  9 11  1  0  0  0  0
  9 22  1  0  0  0  0
  7  8  1  0  0  0  0
  7  9  1  0  0  0  0
 26 27  1  0  0  0  0
 26 28  1  0  0  0  0
 26 29  1  0  0  0  0
 24 25  1  0  0  0  0
 24 26  1  0  0  0  0
M  END
$$$$
default_name
  -OEChem-02102213163D

 29 29  0     1  0  0  0  0  0999 V2000
   -3.6042   -3.5728    1.4576 H   0  0  0  0  0  0  0  0  0  0  0  0
   -3.5202   -2.6488    0.8866 C   0  0  0  0  0  0  0  0  0  0  0  0
   -4.2052   -1.9048    1.2896 H   0  0  0  0  0  0  0  0  0  0  0  0
   -3.7552   -2.8428   -0.1584 H   0  0  0  0  0  0  0  0  0  0  0  0
   -2.1052   -2.1358    0.9946 C   0  0  0  0  0  0  0  0  0  0  0  0
   -1.2852   -2.7288    1.6826 O   0  0  0  0  0  0  0  0  0  0  0  0
   -1.8202   -1.0288    0.3146 N   0  0  0  0  0  0  0  0  0  0  0  0
   -2.5542   -0.5788   -0.2104 H   0  0  0  0  0  0  0  0  0  0  0  0
   -0.5102   -0.3728    0.3086 C   0  0  1  0  0  0  0  0  0  0  0  0
    0.0719   -0.7468    1.1521 H   0  0  0  0  0  0  0  0  0  0  0  0
    0.2338   -0.7427   -0.9878 C   0  0  0  0  0  0  0  0  0  0  0  0
   -0.1851   -0.1689   -1.8164 H   0  0  0  0  0  0  0  0  0  0  0  0
    1.2849   -0.4665   -0.8859 H   0  0  0  0  0  0  0  0  0  0  0  0
    0.1558   -2.2076   -1.3315 C   0  0  0  0  0  0  0  0  0  0  0  0
    1.1059   -2.9373   -2.0134 N   0  0  0  0  0  0  0  0  0  0  0  0
    1.9440   -2.5715   -2.4398 H   0  0  0  0  0  0  0  0  0  0  0  0
    0.7183   -4.2239   -2.0167 C   0  0  0  0  0  0  0  0  0  0  0  0
    1.2583   -5.0391   -2.4825 H   0  0  0  0  0  0  0  0  0  0  0  0
   -0.4392   -4.3619   -1.3538 N   0  0  0  0  0  0  0  0  0  0  0  0
   -0.8088   -3.0870   -0.9173 C   0  0  0  0  0  0  0  0  0  0  0  0
   -1.6817   -2.8421   -0.3261 H   0  0  0  0  0  0  0  0  0  0  0  0
   -0.6600    1.1486    0.4782 C   0  0  0  0  0  0  0  0  0  0  0  0
   -1.5001    1.7648   -0.1771 O   0  0  0  0  0  0  0  0  0  0  0  0
    0.1634    1.7559    1.3418 N   0  0  0  0  0  0  0  0  0  0  0  0
    0.8618    1.1897    1.8008 H   0  0  0  0  0  0  0  0  0  0  0  0
    0.1509    3.1886    1.6256 C   0  0  0  0  0  0  0  0  0  0  0  0
   -0.8272    3.4794    2.0152 H   0  0  0  0  0  0  0  0  0  0  0  0
    0.9172    3.4314    2.3624 H   0  0  0  0  0  0  0  0  0  0  0  0
    0.3414    3.7499    0.7095 H   0  0  0  0  0  0  0  0  0  0  0  0
  5  6  2  0  0  0  0
  5  7  1  0  0  0  0
  2  3  1  0  0  0  0
  2  4  1  0  0  0  0
  2  5  1  0  0  0  0
  1  2  1  0  0  0  0
 22 23  2  0  0  0  0
 22 24  1  0  0  0  0
 20 21  1  0  0  0  0
 19 20  1  0  0  0  0
 17 18  1  0  0  0  0
 17 19  2  0  0  0  0
 15 16  1  0  0  0  0
 15 17  1  0  0  0  0
 14 15  1  0  0  0  0
 14 20  2  0  0  0  0
 11 12  1  0  0  0  0
 11 13  1  0  0  0  0
 11 14  1  0  0  0  0
  9 10  1  0  0  0  0
  9 11  1  0  0  0  0
  9 22  1  0  0  0  0
  7  8  1  0  0  0  0
  7  9  1  0  0  0  0
 26 27  1  0  0  0  0
 26 28  1  0  0  0  0
 26 29  1  0  0  0  0
 24 25  1  0  0  0  0
 24 26  1  0  0  0  0
M  END
$$$$
default_name
  -OEChem-02102213163D

 29 29  0     1  0  0  0  0  0999 V2000
   -3.6042   -3.5728    1.4576 H   0  0  0  0  0  0  0  0  0  0  0  0
   -3.5202   -2.6488    0.8866 C   0  0  0  0  0  0  0  0  0  0  0  0
   -4.2052   -1.9048    1.2896 H   0  0  0  0  0  0  0  0  0  0  0  0
   -3.7552   -2.8428   -0.1584 H   0  0  0  0  0  0  0  0  0  0  0  0
   -2.1052   -2.1358    0.9946 C   0  0  0  0  0  0  0  0  0  0  0  0
   -1.2852   -2.7288    1.6826 O   0  0  0  0  0  0  0  0  0  0  0  0
   -1.8202   -1.0288    0.3146 N   0  0  0  0  0  0  0  0  0  0  0  0
   -2.5542   -0.5788   -0.2104 H   0  0  0  0  0  0  0  0  0  0  0  0
   -0.5102   -0.3728    0.3086 C   0  0  1  0  0  0  0  0  0  0  0  0
    0.0719   -0.7468    1.1521 H   0  0  0  0  0  0  0  0  0  0  0  0
    0.2338   -0.7427   -0.9878 C   0  0  0  0  0  0  0  0  0  0  0  0
   -0.1851   -0.1689   -1.8164 H   0  0  0  0  0  0  0  0  0  0  0  0
    1.2849   -0.4665   -0.8859 H   0  0  0  0  0  0  0  0  0  0  0  0
    0.1558   -2.2076   -1.3315 C   0  0  0  0  0  0  0  0  0  0  0  0
    1.2006   -3.0047   -1.7477 N   0  0  0  0  0  0  0  0  0  0  0  0
    2.1396   -2.6965   -1.9511 H   0  0  0  0  0  0  0  0  0  0  0  0
    0.7488   -4.2667   -1.8410 C   0  0  0  0  0  0  0  0  0  0  0  0
    1.3380   -5.1212   -2.1509 H   0  0  0  0  0  0  0  0  0  0  0  0
   -0.5443   -4.3243   -1.4905 N   0  0  0  0  0  0  0  0  0  0  0  0
   -0.9335   -3.0214   -1.1687 C   0  0  0  0  0  0  0  0  0  0  0  0
   -1.9104   -2.7145   -0.8180 H   0  0  0  0  0  0  0  0  0  0  0  0
   -0.6600    1.1486    0.4782 C   0  0  0  0  0  0  0  0  0  0  0  0
   -1.5001    1.7648   -0.1771 O   0  0  0  0  0  0  0  0  0  0  0  0
    0.1634    1.7559    1.3418 N   0  0  0  0  0  0  0  0  0  0  0  0
    0.8618    1.1897    1.8008 H   0  0  0  0  0  0  0  0  0  0  0  0
    0.1509    3.1886    1.6256 C   0  0  0  0  0  0  0  0  0  0  0  0
   -0.8272    3.4794    2.0152 H   0  0  0  0  0  0  0  0  0  0  0  0
    0.9172    3.4314    2.3624 H   0  0  0  0  0  0  0  0  0  0  0  0
    0.3414    3.7499    0.7095 H   0  0  0  0  0  0  0  0  0  0  0  0
  5  6  2  0  0  0  0
  5  7  1  0  0  0  0
  2  3  1  0  0  0  0
  2  4  1  0  0  0  0
  2  5  1  0  0  0  0
  1  2  1  0  0  0  0
 22 23  2  0  0  0  0
 22 24  1  0  0  0  0
 20 21  1  0  0  0  0
 19 20  1  0  0  0  0
 17 18  1  0  0  0  0
 17 19  2  0  0  0  0
 15 16  1  0  0  0  0
 15 17  1  0  0  0  0
 14 15  1  0  0  0  0
 14 20  2  0  0  0  0
 11 12  1  0  0  0  0
 11 13  1  0  0  0  0
 11 14  1  0  0  0  0
  9 10  1  0  0  0  0
  9 11  1  0  0  0  0
  9 22  1  0  0  0  0
  7  8  1  0  0  0  0
  7  9  1  0  0  0  0
 26 27  1  0  0  0  0
 26 28  1  0  0  0  0
 26 29  1  0  0  0  0
 24 25  1  0  0  0  0
 24 26  1  0  0  0  0
M  END
$$$$
default_name
  -OEChem-02102213163D

 29 29  0     1  0  0  0  0  0999 V2000
   -3.6042   -3.5728    1.4576 H   0  0  0  0  0  0  0  0  0  0  0  0
   -3.5202   -2.6488    0.8866 C   0  0  0  0  0  0  0  0  0  0  0  0
   -4.2052   -1.9048    1.2896 H   0  0  0  0  0  0  0  0  0  0  0  0
   -3.7552   -2.8428   -0.1584 H   0  0  0  0  0  0  0  0  0  0  0  0
   -2.1052   -2.1358    0.9946 C   0  0  0  0  0  0  0  0  0  0  0  0
   -1.2852   -2.7288    1.6826 O   0  0  0  0  0  0  0  0  0  0  0  0
   -1.8202   -1.0288    0.3146 N   0  0  0  0  0  0  0  0  0  0  0  0
   -2.5542   -0.5788   -0.2104 H   0  0  0  0  0  0  0  0  0  0  0  0
   -0.5102   -0.3728    0.3086 C   0  0  1  0  0  0  0  0  0  0  0  0
    0.0719   -0.7468    1.1521 H   0  0  0  0  0  0  0  0  0  0  0  0
    0.2338   -0.7427   -0.9878 C   0  0  0  0  0  0  0  0  0  0  0  0
   -0.1851   -0.1689   -1.8164 H   0  0  0  0  0  0  0  0  0  0  0  0
    1.2849   -0.4665   -0.8859 H   0  0  0  0  0  0  0  0  0  0  0  0
    0.1558   -2.2076   -1.3315 C   0  0  0  0  0  0  0  0  0  0  0  0
    1.2212   -3.0718   -1.4662 N   0  0  0  0  0  0  0  0  0  0  0  0
    2.1981   -2.8223   -1.4283 H   0  0  0  0  0  0  0  0  0  0  0  0
    0.7316   -4.3075   -1.6631 C   0  0  0  0  0  0  0  0  0  0  0  0
    1.3267   -5.2007   -1.8095 H   0  0  0  0  0  0  0  0  0  0  0  0
   -0.6091   -4.2835   -1.6495 N   0  0  0  0  0  0  0  0  0  0  0  0
   -0.9868   -2.9540   -1.4438 C   0  0  0  0  0  0  0  0  0  0  0  0
   -2.0000   -2.5844   -1.3524 H   0  0  0  0  0  0  0  0  0  0  0  0
   -0.6600    1.1486    0.4782 C   0  0  0  0  0  0  0  0  0  0  0  0
   -1.5001    1.7648   -0.1771 O   0  0  0  0  0  0  0  0  0  0  0  0
    0.1634    1.7559    1.3418 N   0  0  0  0  0  0  0  0  0  0  0  0
    0.8618    1.1897    1.8008 H   0  0  0  0  0  0  0  0  0  0  0  0
    0.1509    3.1886    1.6256 C   0  0  0  0  0  0  0  0  0  0  0  0
   -0.8272    3.4794    2.0152 H   0  0  0  0  0  0  0  0  0  0  0  0
    0.9172    3.4314    2.3624 H   0  0  0  0  0  0  0  0  0  0  0  0
    0.3414    3.7499    0.7095 H   0  0  0  0  0  0  0  0  0  0  0  0
  5  6  2  0  0  0  0
  5  7  1  0  0  0  0
  2  3  1  0  0  0  0
  2  4  1  0  0  0  0
  2  5  1  0  0  0  0
  1  2  1  0  0  0  0
 22 23  2  0  0  0  0
 22 24  1  0  0  0  0
 20 21  1  0  0  0  0
 19 20  1  0  0  0  0
 17 18  1  0  0  0  0
 17 19  2  0  0  0  0
 15 16  1  0  0  0  0
 15 17  1  0  0  0  0
 14 15  1  0  0  0  0
 14 20  2  0  0  0  0
 11 12  1  0  0  0  0
 11 13  1  0  0  0  0
 11 14  1  0  0  0  0
  9 10  1  0  0  0  0
  9 11  1  0  0  0  0
  9 22  1  0  0  0  0
  7  8  1  0  0  0  0
  7  9  1  0  0  0  0
 26 27  1  0  0  0  0
 26 28  1  0  0  0  0
 26 29  1  0  0  0  0
 24 25  1  0  0  0  0
 24 26  1  0  0  0  0
M  END
$$$$
default_name
  -OEChem-02102213163D

 29 29  0     1  0  0  0  0  0999 V2000
   -3.6042   -3.5728    1.4576 H   0  0  0  0  0  0  0  0  0  0  0  0
   -3.5202   -2.6488    0.8866 C   0  0  0  0  0  0  0  0  0  0  0  0
   -4.2052   -1.9048    1.2896 H   0  0  0  0  0  0  0  0  0  0  0  0
   -3.7552   -2.8428   -0.1584 H   0  0  0  0  0  0  0  0  0  0  0  0
   -2.1052   -2.1358    0.9946 C   0  0  0  0  0  0  0  0  0  0  0  0
   -1.2852   -2.7288    1.6826 O   0  0  0  0  0  0  0  0  0  0  0  0
   -1.8202   -1.0288    0.3146 N   0  0  0  0  0  0  0  0  0  0  0  0
   -2.5542   -0.5788   -0.2104 H   0  0  0  0  0  0  0  0  0  0  0  0
   -0.5102   -0.3728    0.3086 C   0  0  1  0  0  0  0  0  0  0  0  0
    0.0719   -0.7468    1.1521 H   0  0  0  0  0  0  0  0  0  0  0  0
    0.2338   -0.7427   -0.9878 C   0  0  0  0  0  0  0  0  0  0  0  0
   -0.1851   -0.1689   -1.8164 H   0  0  0  0  0  0  0  0  0  0  0  0
    1.2849   -0.4665   -0.8859 H   0  0  0  0  0  0  0  0  0  0  0  0
    0.1558   -2.2076   -1.3315 C   0  0  0  0  0  0  0  0  0  0  0  0
    1.1663   -3.1341   -1.1883 N   0  0  0  0  0  0  0  0  0  0  0  0
    2.1157   -2.9402   -0.9068 H   0  0  0  0  0  0  0  0  0  0  0  0
    0.6678   -4.3436   -1.4949 C   0  0  0  0  0  0  0  0  0  0  0  0
    1.2251   -5.2722   -1.4814 H   0  0  0  0  0  0  0  0  0  0  0  0
   -0.6294   -4.2425   -1.8198 N   0  0  0  0  0  0  0  0  0  0  0  0
   -0.9652   -2.8895   -1.7238 C   0  0  0  0  0  0  0  0  0  0  0  0
   -1.9444   -2.4606   -1.8928 H   0  0  0  0  0  0  0  0  0  0  0  0
   -0.6600    1.1486    0.4782 C   0  0  0  0  0  0  0  0  0  0  0  0
   -1.5001    1.7648   -0.1771 O   0  0  0  0  0  0  0  0  0  0  0  0
    0.1634    1.7559    1.3418 N   0  0  0  0  0  0  0  0  0  0  0  0
    0.8618    1.1897    1.8008 H   0  0  0  0  0  0  0  0  0  0  0  0
    0.1509    3.1886    1.6256 C   0  0  0  0  0  0  0  0  0  0  0  0
   -0.8272    3.4794    2.0152 H   0  0  0  0  0  0  0  0  0  0  0  0
    0.9172    3.4314    2.3624 H   0  0  0  0  0  0  0  0  0  0  0  0
    0.3414    3.7499    0.7095 H   0  0  0  0  0  0  0  0  0  0  0  0
  5  6  2  0  0  0  0
  5  7  1  0  0  0  0
  2  3  1  0  0  0  0
  2  4  1  0  0  0  0
  2  5  1  0  0  0  0
  1  2  1  0  0  0  0
 22 23  2  0  0  0  0
 22 24  1  0  0  0  0
 20 21  1  0  0  0  0
 19 20  1  0  0  0  0
 17 18  1  0  0  0  0
 17 19  2  0  0  0  0
 15 16  1  0  0  0  0
 15 17  1  0  0  0  0
 14 15  1  0  0  0  0
 14 20  2  0  0  0  0
 11 12  1  0  0  0  0
 11 13  1  0  0  0  0
 11 14  1  0  0  0  0
  9 10  1  0  0  0  0
  9 11  1  0  0  0  0
  9 22  1  0  0  0  0
  7  8  1  0  0  0  0
  7  9  1  0  0  0  0
 26 27  1  0  0  0  0
 26 28  1  0  0  0  0
 26 29  1  0  0  0  0
 24 25  1  0  0  0  0
 24 26  1  0  0  0  0
M  END
$$$$
default_name
  -OEChem-02102213163D

 29 29  0     1  0  0  0  0  0999 V2000
   -3.6042   -3.5728    1.4576 H   0  0  0  0  0  0  0  0  0  0  0  0
   -3.5202   -2.6488    0.8866 C   0  0  0  0  0  0  0  0  0  0  0  0
   -4.2052   -1.9048    1.2896 H   0  0  0  0  0  0  0  0  0  0  0  0
   -3.7552   -2.8428   -0.1584 H   0  0  0  0  0  0  0  0  0  0  0  0
   -2.1052   -2.1358    0.9946 C   0  0  0  0  0  0  0  0  0  0  0  0
   -1.2852   -2.7288    1.6826 O   0  0  0  0  0  0  0  0  0  0  0  0
   -1.8202   -1.0288    0.3146 N   0  0  0  0  0  0  0  0  0  0  0  0
   -2.5542   -0.5788   -0.2104 H   0  0  0  0  0  0  0  0  0  0  0  0
   -0.5102   -0.3728    0.3086 C   0  0  1  0  0  0  0  0  0  0  0  0
    0.0719   -0.7468    1.1521 H   0  0  0  0  0  0  0  0  0  0  0  0
    0.2338   -0.7427   -0.9878 C   0  0  0  0  0  0  0  0  0  0  0  0
   -0.1851   -0.1689   -1.8164 H   0  0  0  0  0  0  0  0  0  0  0  0
    1.2849   -0.4665   -0.8859 H   0  0  0  0  0  0  0  0  0  0  0  0
    0.1558   -2.2076   -1.3315 C   0  0  0  0  0  0  0  0  0  0  0  0
    1.0397   -3.1873   -0.9328 N   0  0  0  0  0  0  0  0  0  0  0  0
    1.8979   -3.0423   -0.4223 H   0  0  0  0  0  0  0  0  0  0  0  0
    0.5617   -4.3724   -1.3482 C   0  0  0  0  0  0  0  0  0  0  0  0
    1.0403   -5.3310   -1.1892 H   0  0  0  0  0  0  0  0  0  0  0  0
   -0.6036   -4.2039   -1.9901 N   0  0  0  0  0  0  0  0  0  0  0  0
   -0.8699   -2.8322   -1.9896 C   0  0  0  0  0  0  0  0  0  0  0  0
   -1.7473   -2.3515   -2.4026 H   0  0  0  0  0  0  0  0  0  0  0  0
   -0.6600    1.1486    0.4782 C   0  0  0  0  0  0  0  0  0  0  0  0
   -1.5001    1.7648   -0.1771 O   0  0  0  0  0  0  0  0  0  0  0  0
    0.1634    1.7559    1.3418 N   0  0  0  0  0  0  0  0  0  0  0  0
    0.8618    1.1897    1.8008 H   0  0  0  0  0  0  0  0  0  0  0  0
    0.1509    3.1886    1.6256 C   0  0  0  0  0  0  0  0  0  0  0  0
   -0.8272    3.4794    2.0152 H   0  0  0  0  0  0  0  0  0  0  0  0
    0.9172    3.4314    2.3624 H   0  0  0  0  0  0  0  0  0  0  0  0
    0.3414    3.7499    0.7095 H   0  0  0  0  0  0  0  0  0  0  0  0
  5  6  2  0  0  0  0
  5  7  1  0  0  0  0
  2  3  1  0  0  0  0
  2  4  1  0  0  0  0
  2  5  1  0  0  0  0
  1  2  1  0  0  0  0
 22 23  2  0  0  0  0
 22 24  1  0  0  0  0
 20 21  1  0  0  0  0
 19 20  1  0  0  0  0
 17 18  1  0  0  0  0
 17 19  2  0  0  0  0
 15 16  1  0  0  0  0
 15 17  1  0  0  0  0
 14 15  1  0  0  0  0
 14 20  2  0  0  0  0
 11 12  1  0  0  0  0
 11 13  1  0  0  0  0
 11 14  1  0  0  0  0
  9 10  1  0  0  0  0
  9 11  1  0  0  0  0
  9 22  1  0  0  0  0
  7  8  1  0  0  0  0
  7  9  1  0  0  0  0
 26 27  1  0  0  0  0
 26 28  1  0  0  0  0
 26 29  1  0  0  0  0
 24 25  1  0  0  0  0
 24 26  1  0  0  0  0
M  END
$$$$
default_name
  -OEChem-02102213163D

 29 29  0     1  0  0  0  0  0999 V2000
   -3.6042   -3.5728    1.4576 H   0  0  0  0  0  0  0  0  0  0  0  0
   -3.5202   -2.6488    0.8866 C   0  0  0  0  0  0  0  0  0  0  0  0
   -4.2052   -1.9048    1.2896 H   0  0  0  0  0  0  0  0  0  0  0  0
   -3.7552   -2.8428   -0.1584 H   0  0  0  0  0  0  0  0  0  0  0  0
   -2.1052   -2.1358    0.9946 C   0  0  0  0  0  0  0  0  0  0  0  0
   -1.2852   -2.7288    1.6826 O   0  0  0  0  0  0  0  0  0  0  0  0
   -1.8202   -1.0288    0.3146 N   0  0  0  0  0  0  0  0  0  0  0  0
   -2.5542   -0.5788   -0.2104 H   0  0  0  0  0  0  0  0  0  0  0  0
   -0.5102   -0.3728    0.3086 C   0  0  1  0  0  0  0  0  0  0  0  0
    0.0719   -0.7468    1.1521 H   0  0  0  0  0  0  0  0  0  0  0  0
    0.2338   -0.7427   -0.9878 C   0  0  0  0  0  0  0  0  0  0  0  0
   -0.1851   -0.1689   -1.8164 H   0  0  0  0  0  0  0  0  0  0  0  0
    1.2849   -0.4665   -0.8859 H   0  0  0  0  0  0  0  0  0  0  0  0
    0.1558   -2.2076   -1.3315 C   0  0  0  0  0  0  0  0  0  0  0  0
    0.8500   -3.2278   -0.7172 N   0  0  0  0  0  0  0  0  0  0  0  0
    1.5595   -3.1216   -0.0077 H   0  0  0  0  0  0  0  0  0  0  0  0
    0.4205   -4.3919   -1.2327 C   0  0  0  0  0  0  0  0  0  0  0  0
    0.7847   -5.3728   -0.9526 H   0  0  0  0  0  0  0  0  0  0  0  0
   -0.5336   -4.1704   -2.1485 N   0  0  0  0  0  0  0  0  0  0  0  0
   -0.7077   -2.7860   -2.2233 C   0  0  0  0  0  0  0  0  0  0  0  0
   -1.4223   -2.2646   -2.8468 H   0  0  0  0  0  0  0  0  0  0  0  0
   -0.6600    1.1486    0.4782 C   0  0  0  0  0  0  0  0  0  0  0  0
   -1.5001    1.7648   -0.1771 O   0  0  0  0  0  0  0  0  0  0  0  0
    0.1634    1.7559    1.3418 N   0  0  0  0  0  0  0  0  0  0  0  0
    0.8618    1.1897    1.8008 H   0  0  0  0  0  0  0  0  0  0  0  0
    0.1509    3.1886    1.6256 C   0  0  0  0  0  0  0  0  0  0  0  0
   -0.8272    3.4794    2.0152 H   0  0  0  0  0  0  0  0  0  0  0  0
    0.9172    3.4314    2.3624 H   0  0  0  0  0  0  0  0  0  0  0  0
    0.3414    3.7499    0.7095 H   0  0  0  0  0  0  0  0  0  0  0  0
  5  6  2  0  0  0  0
  5  7  1  0  0  0  0
  2  3  1  0  0  0  0
  2  4  1  0  0  0  0
  2  5  1  0  0  0  0
  1  2  1  0  0  0  0
 22 23  2  0  0  0  0
 22 24  1  0  0  0  0
 20 21  1  0  0  0  0
 19 20  1  0  0  0  0
 17 18  1  0  0  0  0
 17 19  2  0  0  0  0
 15 16  1  0  0  0  0
 15 17  1  0  0  0  0
 14 15  1  0  0  0  0
 14 20  2  0  0  0  0
 11 12  1  0  0  0  0
 11 13  1  0  0  0  0
 11 14  1  0  0  0  0
  9 10  1  0  0  0  0
  9 11  1  0  0  0  0
  9 22  1  0  0  0  0
  7  8  1  0  0  0  0
  7  9  1  0  0  0  0
 26 27  1  0  0  0  0
 26 28  1  0  0  0  0
 26 29  1  0  0  0  0
 24 25  1  0  0  0  0
 24 26  1  0  0  0  0
M  END
$$$$
default_name
  -OEChem-02102213163D

 29 29  0     1  0  0  0  0  0999 V2000
   -3.6042   -3.5728    1.4576 H   0  0  0  0  0  0  0  0  0  0  0  0
   -3.5202   -2.6488    0.8866 C   0  0  0  0  0  0  0  0  0  0  0  0
   -4.2052   -1.9048    1.2896 H   0  0  0  0  0  0  0  0  0  0  0  0
   -3.7552   -2.8428   -0.1584 H   0  0  0  0  0  0  0  0  0  0  0  0
   -2.1052   -2.1358    0.9946 C   0  0  0  0  0  0  0  0  0  0  0  0
   -1.2852   -2.7288    1.6826 O   0  0  0  0  0  0  0  0  0  0  0  0
   -1.8202   -1.0288    0.3146 N   0  0  0  0  0  0  0  0  0  0  0  0
   -2.5542   -0.5788   -0.2104 H   0  0  0  0  0  0  0  0  0  0  0  0
   -0.5102   -0.3728    0.3086 C   0  0  1  0  0  0  0  0  0  0  0  0
    0.0719   -0.7468    1.1521 H   0  0  0  0  0  0  0  0  0  0  0  0
    0.2338   -0.7427   -0.9878 C   0  0  0  0  0  0  0  0  0  0  0  0
   -0.1851   -0.1689   -1.8164 H   0  0  0  0  0  0  0  0  0  0  0  0
    1.2849   -0.4665   -0.8859 H   0  0  0  0  0  0  0  0  0  0  0  0
    0.1558   -2.2076   -1.3315 C   0  0  0  0  0  0  0  0  0  0  0  0
    0.6101   -3.2528   -0.5561 N   0  0  0  0  0  0  0  0  0  0  0  0
    1.1237   -3.1726    0.3087 H   0  0  0  0  0  0  0  0  0  0  0  0
    0.2540   -4.4010   -1.1564 C   0  0  0  0  0  0  0  0  0  0  0  0
    0.4758   -5.3951   -0.7878 H   0  0  0  0  0  0  0  0  0  0  0  0
   -0.4242   -4.1444   -2.2844 N   0  0  0  0  0  0  0  0  0  0  0  0
   -0.4894   -2.7541   -2.4087 C   0  0  0  0  0  0  0  0  0  0  0  0
   -0.9914   -2.2057   -3.1953 H   0  0  0  0  0  0  0  0  0  0  0  0
   -0.6600    1.1486    0.4782 C   0  0  0  0  0  0  0  0  0  0  0  0
   -1.5001    1.7648   -0.1771 O   0  0  0  0  0  0  0  0  0  0  0  0
    0.1634    1.7559    1.3418 N   0  0  0  0  0  0  0  0  0  0  0  0
    0.8618    1.1897    1.8008 H   0  0  0  0  0  0  0  0  0  0  0  0
    0.1509    3.1886    1.6256 C   0  0  0  0  0  0  0  0  0  0  0  0
   -0.8272    3.4794    2.0152 H   0  0  0  0  0  0  0  0  0  0  0  0
    0.9172    3.4314    2.3624 H   0  0  0  0  0  0  0  0  0  0  0  0
    0.3414    3.7499    0.7095 H   0  0  0  0  0  0  0  0  0  0  0  0
  5  6  2  0  0  0  0
  5  7  1  0  0  0  0
  2  3  1  0  0  0  0
  2  4  1  0  0  0  0
  2  5  1  0  0  0  0
  1  2  1  0  0  0  0
 22 23  2  0  0  0  0
 22 24  1  0  0  0  0
 20 21  1  0  0  0  0
 19 20  1  0  0  0  0
 17 18  1  0  0  0  0
 17 19  2  0  0  0  0
 15 16  1  0  0  0  0
 15 17  1  0  0  0  0
 14 15  1  0  0  0  0
 14 20  2  0  0  0  0
 11 12  1  0  0  0  0
 11 13  1  0  0  0  0
 11 14  1  0  0  0  0
  9 10  1  0  0  0  0
  9 11  1  0  0  0  0
  9 22  1  0  0  0  0
  7  8  1  0  0  0  0
  7  9  1  0  0  0  0
 26 27  1  0  0  0  0
 26 28  1  0  0  0  0
 26 29  1  0  0  0  0
 24 25  1  0  0  0  0
 24 26  1  0  0  0  0
M  END
$$$$
default_name
  -OEChem-02102213163D

 29 29  0     1  0  0  0  0  0999 V2000
   -3.6042   -3.5728    1.4576 H   0  0  0  0  0  0  0  0  0  0  0  0
   -3.5202   -2.6488    0.8866 C   0  0  0  0  0  0  0  0  0  0  0  0
   -4.2052   -1.9048    1.2896 H   0  0  0  0  0  0  0  0  0  0  0  0
   -3.7552   -2.8428   -0.1584 H   0  0  0  0  0  0  0  0  0  0  0  0
   -2.1052   -2.1358    0.9946 C   0  0  0  0  0  0  0  0  0  0  0  0
   -1.2852   -2.7288    1.6826 O   0  0  0  0  0  0  0  0  0  0  0  0
   -1.8202   -1.0288    0.3146 N   0  0  0  0  0  0  0  0  0  0  0  0
   -2.5542   -0.5788   -0.2104 H   0  0  0  0  0  0  0  0  0  0  0  0
   -0.5102   -0.3728    0.3086 C   0  0  1  0  0  0  0  0  0  0  0  0
    0.0719   -0.7468    1.1521 H   0  0  0  0  0  0  0  0  0  0  0  0
    0.2338   -0.7427   -0.9878 C   0  0  0  0  0  0  0  0  0  0  0  0
   -0.1851   -0.1689   -1.8164 H   0  0  0  0  0  0  0  0  0  0  0  0
    1.2849   -0.4665   -0.8859 H   0  0  0  0  0  0  0  0  0  0  0  0
    0.1558   -2.2076   -1.3315 C   0  0  0  0  0  0  0  0  0  0  0  0
    0.3363   -3.2607   -0.4605 N   0  0  0  0  0  0  0  0  0  0  0  0
    0.6201   -3.1919    0.5053 H   0  0  0  0  0  0  0  0  0  0  0  0
    0.0734   -4.3988   -1.1245 C   0  0  0  0  0  0  0  0  0  0  0  0
    0.1347   -5.3961   -0.7061 H   0  0  0  0  0  0  0  0  0  0  0  0
   -0.2827   -4.1275   -2.3885 N   0  0  0  0  0  0  0  0  0  0  0  0
   -0.2301   -2.7387   -2.5334 C   0  0  0  0  0  0  0  0  0  0  0  0
   -0.4841   -2.1790   -3.4242 H   0  0  0  0  0  0  0  0  0  0  0  0
   -0.6600    1.1486    0.4782 C   0  0  0  0  0  0  0  0  0  0  0  0
   -1.5001    1.7648   -0.1771 O   0  0  0  0  0  0  0  0  0  0  0  0
    0.1634    1.7559    1.3418 N   0  0  0  0  0  0  0  0  0  0  0  0
    0.8618    1.1897    1.8008 H   0  0  0  0  0  0  0  0  0  0  0  0
    0.1509    3.1886    1.6256 C   0  0  0  0  0  0  0  0  0  0  0  0
   -0.8272    3.4794    2.0152 H   0  0  0  0  0  0  0  0  0  0  0  0
    0.9172    3.4314    2.3624 H   0  0  0  0  0  0  0  0  0  0  0  0
    0.3414    3.7499    0.7095 H   0  0  0  0  0  0  0  0  0  0  0  0
  5  6  2  0  0  0  0
  5  7  1  0  0  0  0
  2  3  1  0  0  0  0
  2  4  1  0  0  0  0
  2  5  1  0  0  0  0
  1  2  1  0  0  0  0
 22 23  2  0  0  0  0
 22 24  1  0  0  0  0
 20 21  1  0  0  0  0
 19 20  1  0  0  0  0
 17 18  1  0  0  0  0
 17 19  2  0  0  0  0
 15 16  1  0  0  0  0
 15 17  1  0  0  0  0
 14 15  1  0  0  0  0
 14 20  2  0  0  0  0
 11 12  1  0  0  0  0
 11 13  1  0  0  0  0
 11 14  1  0  0  0  0
  9 10  1  0  0  0  0
  9 11  1  0  0  0  0
  9 22  1  0  0  0  0
  7  8  1  0  0  0  0
  7  9  1  0  0  0  0
 26 27  1  0  0  0  0
 26 28  1  0  0  0  0
 26 29  1  0  0  0  0
 24 25  1  0  0  0  0
 24 26  1  0  0  0  0
M  END
$$$$
default_name
  -OEChem-02102213163D

 29 29  0     1  0  0  0  0  0999 V2000
   -3.6042   -3.5728    1.4576 H   0  0  0  0  0  0  0  0  0  0  0  0
   -3.5202   -2.6488    0.8866 C   0  0  0  0  0  0  0  0  0  0  0  0
   -4.2052   -1.9048    1.2896 H   0  0  0  0  0  0  0  0  0  0  0  0
   -3.7552   -2.8428   -0.1584 H   0  0  0  0  0  0  0  0  0  0  0  0
   -2.1052   -2.1358    0.9946 C   0  0  0  0  0  0  0  0  0  0  0  0
   -1.2852   -2.7288    1.6826 O   0  0  0  0  0  0  0  0  0  0  0  0
   -1.8202   -1.0288    0.3146 N   0  0  0  0  0  0  0  0  0  0  0  0
   -2.5542   -0.5788   -0.2104 H   0  0  0  0  0  0  0  0  0  0  0  0
   -0.5102   -0.3728    0.3086 C   0  0  1  0  0  0  0  0  0  0  0  0
    0.0719   -0.7468    1.1521 H   0  0  0  0  0  0  0  0  0  0  0  0
    0.2338   -0.7427   -0.9878 C   0  0  0  0  0  0  0  0  0  0  0  0
   -0.1851   -0.1689   -1.8164 H   0  0  0  0  0  0  0  0  0  0  0  0
    1.2849   -0.4665   -0.8859 H   0  0  0  0  0  0  0  0  0  0  0  0
    0.1558   -2.2076   -1.3315 C   0  0  0  0  0  0  0  0  0  0  0  0
    0.0474   -3.2508   -0.4370 N   0  0  0  0  0  0  0  0  0  0  0  0
    0.0831   -3.1782    0.5688 H   0  0  0  0  0  0  0  0  0  0  0  0
   -0.1089   -4.3857   -1.1391 C   0  0  0  0  0  0  0  0  0  0  0  0
   -0.2154   -5.3758   -0.7130 H   0  0  0  0  0  0  0  0  0  0  0  0
   -0.1189   -4.1209   -2.4537 N   0  0  0  0  0  0  0  0  0  0  0  0
    0.0527   -2.7408   -2.5887 C   0  0  0  0  0  0  0  0  0  0  0  0
    0.0652   -2.1863   -3.5181 H   0  0  0  0  0  0  0  0  0  0  0  0
   -0.6600    1.1486    0.4782 C   0  0  0  0  0  0  0  0  0  0  0  0
   -1.5001    1.7648   -0.1771 O   0  0  0  0  0  0  0  0  0  0  0  0
    0.1634    1.7559    1.3418 N   0  0  0  0  0  0  0  0  0  0  0  0
    0.8618    1.1897    1.8008 H   0  0  0  0  0  0  0  0  0  0  0  0
    0.1509    3.1886    1.6256 C   0  0  0  0  0  0  0  0  0  0  0  0
   -0.8272    3.4794    2.0152 H   0  0  0  0  0  0  0  0  0  0  0  0
    0.9172    3.4314    2.3624 H   0  0  0  0  0  0  0  0  0  0  0  0
    0.3414    3.7499    0.7095 H   0  0  0  0  0  0  0  0  0  0  0  0
  5  6  2  0  0  0  0
  5  7  1  0  0  0  0
  2  3  1  0  0  0  0
  2  4  1  0  0  0  0
  2  5  1  0  0  0  0
  1  2  1  0  0  0  0
 22 23  2  0  0  0  0
 22 24  1  0  0  0  0
 20 21  1  0  0  0  0
 19 20  1  0  0  0  0
 17 18  1  0  0  0  0
 17 19  2  0  0  0  0
 15 16  1  0  0  0  0
 15 17  1  0  0  0  0
 14 15  1  0  0  0  0
 14 20  2  0  0  0  0
 11 12  1  0  0  0  0
 11 13  1  0  0  0  0
 11 14  1  0  0  0  0
  9 10  1  0  0  0  0
  9 11  1  0  0  0  0
  9 22  1  0  0  0  0
  7  8  1  0  0  0  0
  7  9  1  0  0  0  0
 26 27  1  0  0  0  0
 26 28  1  0  0  0  0
 26 29  1  0  0  0  0
 24 25  1  0  0  0  0
 24 26  1  0  0  0  0
M  END
$$$$
default_name
  -OEChem-02102213163D

 29 29  0     1  0  0  0  0  0999 V2000
   -3.6042   -3.5728    1.4576 H   0  0  0  0  0  0  0  0  0  0  0  0
   -3.5202   -2.6488    0.8866 C   0  0  0  0  0  0  0  0  0  0  0  0
   -4.2052   -1.9048    1.2896 H   0  0  0  0  0  0  0  0  0  0  0  0
   -3.7552   -2.8428   -0.1584 H   0  0  0  0  0  0  0  0  0  0  0  0
   -2.1052   -2.1358    0.9946 C   0  0  0  0  0  0  0  0  0  0  0  0
   -1.2852   -2.7288    1.6826 O   0  0  0  0  0  0  0  0  0  0  0  0
   -1.8202   -1.0288    0.3146 N   0  0  0  0  0  0  0  0  0  0  0  0
   -2.5542   -0.5788   -0.2104 H   0  0  0  0  0  0  0  0  0  0  0  0
   -0.5102   -0.3728    0.3086 C   0  0  1  0  0  0  0  0  0  0  0  0
    0.0719   -0.7468    1.1521 H   0  0  0  0  0  0  0  0  0  0  0  0
    0.2338   -0.7427   -0.9878 C   0  0  0  0  0  0  0  0  0  0  0  0
   -0.1851   -0.1689   -1.8164 H   0  0  0  0  0  0  0  0  0  0  0  0
    1.2849   -0.4665   -0.8859 H   0  0  0  0  0  0  0  0  0  0  0  0
    0.1558   -2.2076   -1.3315 C   0  0  0  0  0  0  0  0  0  0  0  0
   -0.2370   -3.2239   -0.4871 N   0  0  0  0  0  0  0  0  0  0  0  0
   -0.4509   -3.1324    0.4947 H   0  0  0  0  0  0  0  0  0  0  0  0
   -0.2806   -4.3624   -1.1993 C   0  0  0  0  0  0  0  0  0  0  0  0
   -0.5506   -5.3357   -0.8080 H   0  0  0  0  0  0  0  0  0  0  0  0
    0.0561   -4.1251   -2.4755 N   0  0  0  0  0  0  0  0  0  0  0  0
    0.3397   -2.7602   -2.5709 C   0  0  0  0  0  0  0  0  0  0  0  0
    0.6189   -2.2269   -3.4704 H   0  0  0  0  0  0  0  0  0  0  0  0
   -0.6600    1.1486    0.4782 C   0  0  0  0  0  0  0  0  0  0  0  0
   -1.5001    1.7648   -0.1771 O   0  0  0  0  0  0  0  0  0  0  0  0
    0.1634    1.7559    1.3418 N   0  0  0  0  0  0  0  0  0  0  0  0
    0.8618    1.1897    1.8008 H   0  0  0  0  0  0  0  0  0  0  0  0
    0.1509    3.1886    1.6256 C   0  0  0  0  0  0  0  0  0  0  0  0
   -0.8272    3.4794    2.0152 H   0  0  0  0  0  0  0  0  0  0  0  0
    0.9172    3.4314    2.3624 H   0  0  0  0  0  0  0  0  0  0  0  0
    0.3414    3.7499    0.7095 H   0  0  0  0  0  0  0  0  0  0  0  0
  5  6  2  0  0  0  0
  5  7  1  0  0  0  0
  2  3  1  0  0  0  0
  2  4  1  0  0  0  0
  2  5  1  0  0  0  0
  1  2  1  0  0  0  0
 22 23  2  0  0  0  0
 22 24  1  0  0  0  0
 20 21  1  0  0  0  0
 19 20  1  0  0  0  0
 17 18  1  0  0  0  0
 17 19  2  0  0  0  0
 15 16  1  0  0  0  0
 15 17  1  0  0  0  0
 14 15  1  0  0  0  0
 14 20  2  0  0  0  0
 11 12  1  0  0  0  0
 11 13  1  0  0  0  0
 11 14  1  0  0  0  0
  9 10  1  0  0  0  0
  9 11  1  0  0  0  0
  9 22  1  0  0  0  0
  7  8  1  0  0  0  0
  7  9  1  0  0  0  0
 26 27  1  0  0  0  0
 26 28  1  0  0  0  0
 26 29  1  0  0  0  0
 24 25  1  0  0  0  0
 24 26  1  0  0  0  0
M  END
$$$$
default_name
  -OEChem-02102213163D

 29 29  0     1  0  0  0  0  0999 V2000
   -3.6042   -3.5728    1.4576 H   0  0  0  0  0  0  0  0  0  0  0  0
   -3.5202   -2.6488    0.8866 C   0  0  0  0  0  0  0  0  0  0  0  0
   -4.2052   -1.9048    1.2896 H   0  0  0  0  0  0  0  0  0  0  0  0
   -3.7552   -2.8428   -0.1584 H   0  0  0  0  0  0  0  0  0  0  0  0
   -2.1052   -2.1358    0.9946 C   0  0  0  0  0  0  0  0  0  0  0  0
   -1.2852   -2.7288    1.6826 O   0  0  0  0  0  0  0  0  0  0  0  0
   -1.8202   -1.0288    0.3146 N   0  0  0  0  0  0  0  0  0  0  0  0
   -2.5542   -0.5788   -0.2104 H   0  0  0  0  0  0  0  0  0  0  0  0
   -0.5102   -0.3728    0.3086 C   0  0  1  0  0  0  0  0  0  0  0  0
    0.0719   -0.7468    1.1521 H   0  0  0  0  0  0  0  0  0  0  0  0
    0.2338   -0.7427   -0.9878 C   0  0  0  0  0  0  0  0  0  0  0  0
   -0.1851   -0.1689   -1.8164 H   0  0  0  0  0  0  0  0  0  0  0  0
    1.2849   -0.4665   -0.8859 H   0  0  0  0  0  0  0  0  0  0  0  0
    0.1558   -2.2076   -1.3315 C   0  0  0  0  0  0  0  0  0  0  0  0
   -0.4975   -3.1818   -0.6075 N   0  0  0  0  0  0  0  0  0  0  0  0
   -0.9452   -3.0576    0.2882 H   0  0  0  0  0  0  0  0  0  0  0  0
   -0.4299   -4.3306   -1.3010 C   0  0  0  0  0  0  0  0  0  0  0  0
   -0.8482   -5.2784   -0.9847 H   0  0  0  0  0  0  0  0  0  0  0  0
    0.2304   -4.1398   -2.4524 N   0  0  0  0  0  0  0  0  0  0  0  0
    0.6113   -2.7957   -2.4813 C   0  0  0  0  0  0  0  0  0  0  0  0
    1.1393   -2.2983   -3.2845 H   0  0  0  0  0  0  0  0  0  0  0  0
   -0.6600    1.1486    0.4782 C   0  0  0  0  0  0  0  0  0  0  0  0
   -1.5001    1.7648   -0.1771 O   0  0  0  0  0  0  0  0  0  0  0  0
    0.1634    1.7559    1.3418 N   0  0  0  0  0  0  0  0  0  0  0  0
    0.8618    1.1897    1.8008 H   0  0  0  0  0  0  0  0  0  0  0  0
    0.1509    3.1886    1.6256 C   0  0  0  0  0  0  0  0  0  0  0  0
   -0.8272    3.4794    2.0152 H   0  0  0  0  0  0  0  0  0  0  0  0
    0.9172    3.4314    2.3624 H   0  0  0  0  0  0  0  0  0  0  0  0
    0.3414    3.7499    0.7095 H   0  0  0  0  0  0  0  0  0  0  0  0
  5  6  2  0  0  0  0
  5  7  1  0  0  0  0
  2  3  1  0  0  0  0
  2  4  1  0  0  0  0
  2  5  1  0  0  0  0
  1  2  1  0  0  0  0
 22 23  2  0  0  0  0
 22 24  1  0  0  0  0
 20 21  1  0  0  0  0
 19 20  1  0  0  0  0
 17 18  1  0  0  0  0
 17 19  2  0  0  0  0
 15 16  1  0  0  0  0
 15 17  1  0  0  0  0
 14 15  1  0  0  0  0
 14 20  2  0  0  0  0
 11 12  1  0  0  0  0
 11 13  1  0  0  0  0
 11 14  1  0  0  0  0
  9 10  1  0  0  0  0
  9 11  1  0  0  0  0
  9 22  1  0  0  0  0
  7  8  1  0  0  0  0
  7  9  1  0  0  0  0
 26 27  1  0  0  0  0
 26 28  1  0  0  0  0
 26 29  1  0  0  0  0
 24 25  1  0  0  0  0
 24 26  1  0  0  0  0
M  END
$$$$
default_name
  -OEChem-02102213163D

 29 29  0     1  0  0  0  0  0999 V2000
   -3.6042   -3.5728    1.4576 H   0  0  0  0  0  0  0  0  0  0  0  0
   -3.5202   -2.6488    0.8866 C   0  0  0  0  0  0  0  0  0  0  0  0
   -4.2052   -1.9048    1.2896 H   0  0  0  0  0  0  0  0  0  0  0  0
   -3.7552   -2.8428   -0.1584 H   0  0  0  0  0  0  0  0  0  0  0  0
   -2.1052   -2.1358    0.9946 C   0  0  0  0  0  0  0  0  0  0  0  0
   -1.2852   -2.7288    1.6826 O   0  0  0  0  0  0  0  0  0  0  0  0
   -1.8202   -1.0288    0.3146 N   0  0  0  0  0  0  0  0  0  0  0  0
   -2.5542   -0.5788   -0.2104 H   0  0  0  0  0  0  0  0  0  0  0  0
   -0.5102   -0.3728    0.3086 C   0  0  1  0  0  0  0  0  0  0  0  0
    0.0719   -0.7468    1.1521 H   0  0  0  0  0  0  0  0  0  0  0  0
    0.2338   -0.7427   -0.9878 C   0  0  0  0  0  0  0  0  0  0  0  0
   -0.1851   -0.1689   -1.8164 H   0  0  0  0  0  0  0  0  0  0  0  0
    1.2849   -0.4665   -0.8859 H   0  0  0  0  0  0  0  0  0  0  0  0
    0.1558   -2.2076   -1.3315 C   0  0  0  0  0  0  0  0  0  0  0  0
   -0.7164   -3.1273   -0.7898 N   0  0  0  0  0  0  0  0  0  0  0  0
   -1.3664   -2.9590   -0.0366 H   0  0  0  0  0  0  0  0  0  0  0  0
   -0.5466   -4.2925   -1.4372 C   0  0  0  0  0  0  0  0  0  0  0  0
   -1.0878   -5.2078   -1.2310 H   0  0  0  0  0  0  0  0  0  0  0  0
    0.3921   -4.1640   -2.3861 N   0  0  0  0  0  0  0  0  0  0  0  0
    0.8489   -2.8448   -2.3260 C   0  0  0  0  0  0  0  0  0  0  0  0
    1.5911   -2.3954   -2.9730 H   0  0  0  0  0  0  0  0  0  0  0  0
   -0.6600    1.1486    0.4782 C   0  0  0  0  0  0  0  0  0  0  0  0
   -1.5001    1.7648   -0.1771 O   0  0  0  0  0  0  0  0  0  0  0  0
    0.1634    1.7559    1.3418 N   0  0  0  0  0  0  0  0  0  0  0  0
    0.8618    1.1897    1.8008 H   0  0  0  0  0  0  0  0  0  0  0  0
    0.1509    3.1886    1.6256 C   0  0  0  0  0  0  0  0  0  0  0  0
   -0.8272    3.4794    2.0152 H   0  0  0  0  0  0  0  0  0  0  0  0
    0.9172    3.4314    2.3624 H   0  0  0  0  0  0  0  0  0  0  0  0
    0.3414    3.7499    0.7095 H   0  0  0  0  0  0  0  0  0  0  0  0
  5  6  2  0  0  0  0
  5  7  1  0  0  0  0
  2  3  1  0  0  0  0
  2  4  1  0  0  0  0
  2  5  1  0  0  0  0
  1  2  1  0  0  0  0
 22 23  2  0  0  0  0
 22 24  1  0  0  0  0
 20 21  1  0  0  0  0
 19 20  1  0  0  0  0
 17 18  1  0  0  0  0
 17 19  2  0  0  0  0
 15 16  1  0  0  0  0
 15 17  1  0  0  0  0
 14 15  1  0  0  0  0
 14 20  2  0  0  0  0
 11 12  1  0  0  0  0
 11 13  1  0  0  0  0
 11 14  1  0  0  0  0
  9 10  1  0  0  0  0
  9 11  1  0  0  0  0
  9 22  1  0  0  0  0
  7  8  1  0  0  0  0
  7  9  1  0  0  0  0
 26 27  1  0  0  0  0
 26 28  1  0  0  0  0
 26 29  1  0  0  0  0
 24 25  1  0  0  0  0
 24 26  1  0  0  0  0
M  END
$$$$
default_name
  -OEChem-02102213163D

 29 29  0     1  0  0  0  0  0999 V2000
   -3.6042   -3.5728    1.4576 H   0  0  0  0  0  0  0  0  0  0  0  0
   -3.5202   -2.6488    0.8866 C   0  0  0  0  0  0  0  0  0  0  0  0
   -4.2052   -1.9048    1.2896 H   0  0  0  0  0  0  0  0  0  0  0  0
   -3.7552   -2.8428   -0.1584 H   0  0  0  0  0  0  0  0  0  0  0  0
   -2.1052   -2.1358    0.9946 C   0  0  0  0  0  0  0  0  0  0  0  0
   -1.2852   -2.7288    1.6826 O   0  0  0  0  0  0  0  0  0  0  0  0
   -1.8202   -1.0288    0.3146 N   0  0  0  0  0  0  0  0  0  0  0  0
   -2.5542   -0.5788   -0.2104 H   0  0  0  0  0  0  0  0  0  0  0  0
   -0.5102   -0.3728    0.3086 C   0  0  1  0  0  0  0  0  0  0  0  0
    0.0719   -0.7468    1.1521 H   0  0  0  0  0  0  0  0  0  0  0  0
    0.2338   -0.7427   -0.9878 C   0  0  0  0  0  0  0  0  0  0  0  0
   -0.1851   -0.1689   -1.8164 H   0  0  0  0  0  0  0  0  0  0  0  0
    1.2849   -0.4665   -0.8859 H   0  0  0  0  0  0  0  0  0  0  0  0
    0.1558   -2.2076   -1.3315 C   0  0  0  0  0  0  0  0  0  0  0  0
   -0.8788   -3.0643   -1.0218 N   0  0  0  0  0  0  0  0  0  0  0  0
   -1.6856   -2.8432   -0.4577 H   0  0  0  0  0  0  0  0  0  0  0  0
   -0.6229   -4.2505   -1.5986 C   0  0  0  0  0  0  0  0  0  0  0  0
   -1.2530   -5.1288   -1.5301 H   0  0  0  0  0  0  0  0  0  0  0  0
    0.5302   -4.1960   -2.2811 N   0  0  0  0  0  0  0  0  0  0  0  0
    1.0365   -2.9042   -2.1154 C   0  0  0  0  0  0  0  0  0  0  0  0
    1.9433   -2.5117   -2.5571 H   0  0  0  0  0  0  0  0  0  0  0  0
   -0.6600    1.1486    0.4782 C   0  0  0  0  0  0  0  0  0  0  0  0
   -1.5001    1.7648   -0.1771 O   0  0  0  0  0  0  0  0  0  0  0  0
    0.1634    1.7559    1.3418 N   0  0  0  0  0  0  0  0  0  0  0  0
    0.8618    1.1897    1.8008 H   0  0  0  0  0  0  0  0  0  0  0  0
    0.1509    3.1886    1.6256 C   0  0  0  0  0  0  0  0  0  0  0  0
   -0.8272    3.4794    2.0152 H   0  0  0  0  0  0  0  0  0  0  0  0
    0.9172    3.4314    2.3624 H   0  0  0  0  0  0  0  0  0  0  0  0
    0.3414    3.7499    0.7095 H   0  0  0  0  0  0  0  0  0  0  0  0
  5  6  2  0  0  0  0
  5  7  1  0  0  0  0
  2  3  1  0  0  0  0
  2  4  1  0  0  0  0
  2  5  1  0  0  0  0
  1  2  1  0  0  0  0
 22 23  2  0  0  0  0
 22 24  1  0  0  0  0
 20 21  1  0  0  0  0
 19 20  1  0  0  0  0
 17 18  1  0  0  0  0
 17 19  2  0  0  0  0
 15 16  1  0  0  0  0
 15 17  1  0  0  0  0
 14 15  1  0  0  0  0
 14 20  2  0  0  0  0
 11 12  1  0  0  0  0
 11 13  1  0  0  0  0
 11 14  1  0  0  0  0
  9 10  1  0  0  0  0
  9 11  1  0  0  0  0
  9 22  1  0  0  0  0
  7  8  1  0  0  0  0
  7  9  1  0  0  0  0
 26 27  1  0  0  0  0
 26 28  1  0  0  0  0
 26 29  1  0  0  0  0
 24 25  1  0  0  0  0
 24 26  1  0  0  0  0
M  END
$$$$
default_name
  -OEChem-02102213163D

 29 29  0     1  0  0  0  0  0999 V2000
   -3.6042   -3.5728    1.4576 H   0  0  0  0  0  0  0  0  0  0  0  0
   -3.5202   -2.6488    0.8866 C   0  0  0  0  0  0  0  0  0  0  0  0
   -4.2052   -1.9048    1.2896 H   0  0  0  0  0  0  0  0  0  0  0  0
   -3.7552   -2.8428   -0.1584 H   0  0  0  0  0  0  0  0  0  0  0  0
   -2.1052   -2.1358    0.9946 C   0  0  0  0  0  0  0  0  0  0  0  0
   -1.2852   -2.7288    1.6826 O   0  0  0  0  0  0  0  0  0  0  0  0
   -1.8202   -1.0288    0.3146 N   0  0  0  0  0  0  0  0  0  0  0  0
   -2.5542   -0.5788   -0.2104 H   0  0  0  0  0  0  0  0  0  0  0  0
   -0.5102   -0.3728    0.3086 C   0  0  1  0  0  0  0  0  0  0  0  0
    0.0719   -0.7468    1.1521 H   0  0  0  0  0  0  0  0  0  0  0  0
    0.2338   -0.7427   -0.9878 C   0  0  0  0  0  0  0  0  0  0  0  0
   -0.1851   -0.1689   -1.8164 H   0  0  0  0  0  0  0  0  0  0  0  0
    1.2849   -0.4665   -0.8859 H   0  0  0  0  0  0  0  0  0  0  0  0
    0.1558   -2.2076   -1.3315 C   0  0  0  0  0  0  0  0  0  0  0  0
   -0.9735   -2.9969   -1.2875 N   0  0  0  0  0  0  0  0  0  0  0  0
   -1.8812   -2.7181   -0.9463 H   0  0  0  0  0  0  0  0  0  0  0  0
   -0.6534   -4.2077   -1.7743 C   0  0  0  0  0  0  0  0  0  0  0  0
   -1.3327   -5.0468   -1.8617 H   0  0  0  0  0  0  0  0  0  0  0  0
    0.6353   -4.2337   -2.1444 N   0  0  0  0  0  0  0  0  0  0  0  0
    1.1612   -2.9698   -1.8640 C   0  0  0  0  0  0  0  0  0  0  0  0
    2.1720   -2.6393   -2.0652 H   0  0  0  0  0  0  0  0  0  0  0  0
   -0.6600    1.1486    0.4782 C   0  0  0  0  0  0  0  0  0  0  0  0
   -1.5001    1.7648   -0.1771 O   0  0  0  0  0  0  0  0  0  0  0  0
    0.1634    1.7559    1.3418 N   0  0  0  0  0  0  0  0  0  0  0  0
    0.8618    1.1897    1.8008 H   0  0  0  0  0  0  0  0  0  0  0  0
    0.1509    3.1886    1.6256 C   0  0  0  0  0  0  0  0  0  0  0  0
   -0.8272    3.4794    2.0152 H   0  0  0  0  0  0  0  0  0  0  0  0
    0.9172    3.4314    2.3624 H   0  0  0  0  0  0  0  0  0  0  0  0
    0.3414    3.7499    0.7095 H   0  0  0  0  0  0  0  0  0  0  0  0
  5  6  2  0  0  0  0
  5  7  1  0  0  0  0
  2  3  1  0  0  0  0
  2  4  1  0  0  0  0
  2  5  1  0  0  0  0
  1  2  1  0  0  0  0
 22 23  2  0  0  0  0
 22 24  1  0  0  0  0
 20 21  1  0  0  0  0
 19 20  1  0  0  0  0
 17 18  1  0  0  0  0
 17 19  2  0  0  0  0
 15 16  1  0  0  0  0
 15 17  1  0  0  0  0
 14 15  1  0  0  0  0
 14 20  2  0  0  0  0
 11 12  1  0  0  0  0
 11 13  1  0  0  0  0
 11 14  1  0  0  0  0
  9 10  1  0  0  0  0
  9 11  1  0  0  0  0
  9 22  1  0  0  0  0
  7  8  1  0  0  0  0
  7  9  1  0  0  0  0
 26 27  1  0  0  0  0
 26 28  1  0  0  0  0
 26 29  1  0  0  0  0
 24 25  1  0  0  0  0
 24 26  1  0  0  0  0
M  END
$$$$
default_name
  -OEChem-02102213163D

 29 29  0     1  0  0  0  0  0999 V2000
   -3.6042   -3.5728    1.4576 H   0  0  0  0  0  0  0  0  0  0  0  0
   -3.5202   -2.6488    0.8866 C   0  0  0  0  0  0  0  0  0  0  0  0
   -4.2052   -1.9048    1.2896 H   0  0  0  0  0  0  0  0  0  0  0  0
   -3.7552   -2.8428   -0.1584 H   0  0  0  0  0  0  0  0  0  0  0  0
   -2.1052   -2.1358    0.9946 C   0  0  0  0  0  0  0  0  0  0  0  0
   -1.2852   -2.7288    1.6826 O   0  0  0  0  0  0  0  0  0  0  0  0
   -1.8202   -1.0288    0.3146 N   0  0  0  0  0  0  0  0  0  0  0  0
   -2.5542   -0.5788   -0.2104 H   0  0  0  0  0  0  0  0  0  0  0  0
   -0.5102   -0.3728    0.3086 C   0  0  1  0  0  0  0  0  0  0  0  0
    0.0719   -0.7468    1.1521 H   0  0  0  0  0  0  0  0  0  0  0  0
    0.2338   -0.7427   -0.9878 C   0  0  0  0  0  0  0  0  0  0  0  0
   -0.1851   -0.1689   -1.8164 H   0  0  0  0  0  0  0  0  0  0  0  0
    1.2849   -0.4665   -0.8859 H   0  0  0  0  0  0  0  0  0  0  0  0
    0.1558   -2.2076   -1.3315 C   0  0  0  0  0  0  0  0  0  0  0  0
   -0.9941   -2.9298   -1.5690 N   0  0  0  0  0  0  0  0  0  0  0  0
   -1.9398   -2.5923   -1.4692 H   0  0  0  0  0  0  0  0  0  0  0  0
   -0.6362   -4.1669   -1.9523 C   0  0  0  0  0  0  0  0  0  0  0  0
   -1.3214   -4.9673   -2.2032 H   0  0  0  0  0  0  0  0  0  0  0  0
    0.7001   -4.2744   -1.9855 N   0  0  0  0  0  0  0  0  0  0  0  0
    1.2145   -3.0372   -1.5890 C   0  0  0  0  0  0  0  0  0  0  0  0
    2.2616   -2.7695   -1.5309 H   0  0  0  0  0  0  0  0  0  0  0  0
   -0.6600    1.1486    0.4782 C   0  0  0  0  0  0  0  0  0  0  0  0
   -1.5001    1.7648   -0.1771 O   0  0  0  0  0  0  0  0  0  0  0  0
    0.1634    1.7559    1.3418 N   0  0  0  0  0  0  0  0  0  0  0  0
    0.8618    1.1897    1.8008 H   0  0  0  0  0  0  0  0  0  0  0  0
    0.1509    3.1886    1.6256 C   0  0  0  0  0  0  0  0  0  0  0  0
   -0.8272    3.4794    2.0152 H   0  0  0  0  0  0  0  0  0  0  0  0
    0.9172    3.4314    2.3624 H   0  0  0  0  0  0  0  0  0  0  0  0
    0.3414    3.7499    0.7095 H   0  0  0  0  0  0  0  0  0  0  0  0
  5  6  2  0  0  0  0
  5  7  1  0  0  0  0
  2  3  1  0  0  0  0
  2  4  1  0  0  0  0
  2  5  1  0  0  0  0
  1  2  1  0  0  0  0
 22 23  2  0  0  0  0
 22 24  1  0  0  0  0
 20 21  1  0  0  0  0
 19 20  1  0  0  0  0
 17 18  1  0  0  0  0
 17 19  2  0  0  0  0
 15 16  1  0  0  0  0
 15 17  1  0  0  0  0
 14 15  1  0  0  0  0
 14 20  2  0  0  0  0
 11 12  1  0  0  0  0
 11 13  1  0  0  0  0
 11 14  1  0  0  0  0
  9 10  1  0  0  0  0
  9 11  1  0  0  0  0
  9 22  1  0  0  0  0
  7  8  1  0  0  0  0
  7  9  1  0  0  0  0
 26 27  1  0  0  0  0
 26 28  1  0  0  0  0
 26 29  1  0  0  0  0
 24 25  1  0  0  0  0
 24 26  1  0  0  0  0
M  END
$$$$
default_name
  -OEChem-02102213163D

 29 29  0     1  0  0  0  0  0999 V2000
   -3.6042   -3.5728    1.4576 H   0  0  0  0  0  0  0  0  0  0  0  0
   -3.5202   -2.6488    0.8866 C   0  0  0  0  0  0  0  0  0  0  0  0
   -4.2052   -1.9048    1.2896 H   0  0  0  0  0  0  0  0  0  0  0  0
   -3.7552   -2.8428   -0.1584 H   0  0  0  0  0  0  0  0  0  0  0  0
   -2.1052   -2.1358    0.9946 C   0  0  0  0  0  0  0  0  0  0  0  0
   -1.2852   -2.7288    1.6826 O   0  0  0  0  0  0  0  0  0  0  0  0
   -1.8202   -1.0288    0.3146 N   0  0  0  0  0  0  0  0  0  0  0  0
   -2.5542   -0.5788   -0.2104 H   0  0  0  0  0  0  0  0  0  0  0  0
   -0.5102   -0.3728    0.3086 C   0  0  1  0  0  0  0  0  0  0  0  0
    0.0719   -0.7468    1.1521 H   0  0  0  0  0  0  0  0  0  0  0  0
    0.2338   -0.7427   -0.9878 C   0  0  0  0  0  0  0  0  0  0  0  0
   -0.1851   -0.1689   -1.8164 H   0  0  0  0  0  0  0  0  0  0  0  0
    1.2849   -0.4665   -0.8859 H   0  0  0  0  0  0  0  0  0  0  0  0
    0.1558   -2.2076   -1.3315 C   0  0  0  0  0  0  0  0  0  0  0  0
   -0.9392   -2.8675   -1.8469 N   0  0  0  0  0  0  0  0  0  0  0  0
   -1.8573   -2.4744   -1.9907 H   0  0  0  0  0  0  0  0  0  0  0  0
   -0.5723   -4.1308   -2.1204 C   0  0  0  0  0  0  0  0  0  0  0  0
   -1.2199   -4.8957   -2.5312 H   0  0  0  0  0  0  0  0  0  0  0  0
    0.7204   -4.3155   -1.8151 N   0  0  0  0  0  0  0  0  0  0  0  0
    1.1928   -3.1017   -1.3090 C   0  0  0  0  0  0  0  0  0  0  0  0
    2.2060   -2.8933   -0.9904 H   0  0  0  0  0  0  0  0  0  0  0  0
   -0.6600    1.1486    0.4782 C   0  0  0  0  0  0  0  0  0  0  0  0
   -1.5001    1.7648   -0.1771 O   0  0  0  0  0  0  0  0  0  0  0  0
    0.1634    1.7559    1.3418 N   0  0  0  0  0  0  0  0  0  0  0  0
    0.8618    1.1897    1.8008 H   0  0  0  0  0  0  0  0  0  0  0  0
    0.1509    3.1886    1.6256 C   0  0  0  0  0  0  0  0  0  0  0  0
   -0.8272    3.4794    2.0152 H   0  0  0  0  0  0  0  0  0  0  0  0
    0.9172    3.4314    2.3624 H   0  0  0  0  0  0  0  0  0  0  0  0
    0.3414    3.7499    0.7095 H   0  0  0  0  0  0  0  0  0  0  0  0
  5  6  2  0  0  0  0
  5  7  1  0  0  0  0
  2  3  1  0  0  0  0
  2  4  1  0  0  0  0
  2  5  1  0  0  0  0
  1  2  1  0  0  0  0
 22 23  2  0  0  0  0
 22 24  1  0  0  0  0
 20 21  1  0  0  0  0
 19 20  1  0  0  0  0
 17 18  1  0  0  0  0
 17 19  2  0  0  0  0
 15 16  1  0  0  0  0
 15 17  1  0  0  0  0
 14 15  1  0  0  0  0
 14 20  2  0  0  0  0
 11 12  1  0  0  0  0
 11 13  1  0  0  0  0
 11 14  1  0  0  0  0
  9 10  1  0  0  0  0
  9 11  1  0  0  0  0
  9 22  1  0  0  0  0
  7  8  1  0  0  0  0
  7  9  1  0  0  0  0
 26 27  1  0  0  0  0
 26 28  1  0  0  0  0
 26 29  1  0  0  0  0
 24 25  1  0  0  0  0
 24 26  1  0  0  0  0
M  END
$$$$
default_name
  -OEChem-02102213163D

 29 29  0     1  0  0  0  0  0999 V2000
   -3.6042   -3.5728    1.4576 H   0  0  0  0  0  0  0  0  0  0  0  0
   -3.5202   -2.6488    0.8866 C   0  0  0  0  0  0  0  0  0  0  0  0
   -4.2052   -1.9048    1.2896 H   0  0  0  0  0  0  0  0  0  0  0  0
   -3.7552   -2.8428   -0.1584 H   0  0  0  0  0  0  0  0  0  0  0  0
   -2.1052   -2.1358    0.9946 C   0  0  0  0  0  0  0  0  0  0  0  0
   -1.2852   -2.7288    1.6826 O   0  0  0  0  0  0  0  0  0  0  0  0
   -1.8202   -1.0288    0.3146 N   0  0  0  0  0  0  0  0  0  0  0  0
   -2.5542   -0.5788   -0.2104 H   0  0  0  0  0  0  0  0  0  0  0  0
   -0.5102   -0.3728    0.3086 C   0  0  1  0  0  0  0  0  0  0  0  0
    0.0719   -0.7468    1.1521 H   0  0  0  0  0  0  0  0  0  0  0  0
    0.2338   -0.7427   -0.9878 C   0  0  0  0  0  0  0  0  0  0  0  0
   -0.1851   -0.1689   -1.8164 H   0  0  0  0  0  0  0  0  0  0  0  0
    1.2849   -0.4665   -0.8859 H   0  0  0  0  0  0  0  0  0  0  0  0
    0.1558   -2.2076   -1.3315 C   0  0  0  0  0  0  0  0  0  0  0  0
   -0.8126   -2.8143   -2.1024 N   0  0  0  0  0  0  0  0  0  0  0  0
   -1.6395   -2.3723   -2.4752 H   0  0  0  0  0  0  0  0  0  0  0  0
   -0.4662   -4.1020   -2.2672 C   0  0  0  0  0  0  0  0  0  0  0  0
   -1.0350   -4.8370   -2.8235 H   0  0  0  0  0  0  0  0  0  0  0  0
    0.6946   -4.3540   -1.6448 N   0  0  0  0  0  0  0  0  0  0  0  0
    1.0976   -3.1590   -1.0431 C   0  0  0  0  0  0  0  0  0  0  0  0
    2.0090   -3.0024   -0.4807 H   0  0  0  0  0  0  0  0  0  0  0  0
   -0.6600    1.1486    0.4782 C   0  0  0  0  0  0  0  0  0  0  0  0
   -1.5001    1.7648   -0.1771 O   0  0  0  0  0  0  0  0  0  0  0  0
    0.1634    1.7559    1.3418 N   0  0  0  0  0  0  0  0  0  0  0  0
    0.8618    1.1897    1.8008 H   0  0  0  0  0  0  0  0  0  0  0  0
    0.1509    3.1886    1.6256 C   0  0  0  0  0  0  0  0  0  0  0  0
   -0.8272    3.4794    2.0152 H   0  0  0  0  0  0  0  0  0  0  0  0
    0.9172    3.4314    2.3624 H   0  0  0  0  0  0  0  0  0  0  0  0
    0.3414    3.7499    0.7095 H   0  0  0  0  0  0  0  0  0  0  0  0
  5  6  2  0  0  0  0
  5  7  1  0  0  0  0
  2  3  1  0  0  0  0
  2  4  1  0  0  0  0
  2  5  1  0  0  0  0
  1  2  1  0  0  0  0
 22 23  2  0  0  0  0
 22 24  1  0  0  0  0
 20 21  1  0  0  0  0
 19 20  1  0  0  0  0
 17 18  1  0  0  0  0
 17 19  2  0  0  0  0
 15 16  1  0  0  0  0
 15 17  1  0  0  0  0
 14 15  1  0  0  0  0
 14 20  2  0  0  0  0
 11 12  1  0  0  0  0
 11 13  1  0  0  0  0
 11 14  1  0  0  0  0
  9 10  1  0  0  0  0
  9 11  1  0  0  0  0
  9 22  1  0  0  0  0
  7  8  1  0  0  0  0
  7  9  1  0  0  0  0
 26 27  1  0  0  0  0
 26 28  1  0  0  0  0
 26 29  1  0  0  0  0
 24 25  1  0  0  0  0
 24 26  1  0  0  0  0
M  END
$$$$
default_name
  -OEChem-02102213163D

 29 29  0     1  0  0  0  0  0999 V2000
   -3.6042   -3.5728    1.4576 H   0  0  0  0  0  0  0  0  0  0  0  0
   -3.5202   -2.6488    0.8866 C   0  0  0  0  0  0  0  0  0  0  0  0
   -4.2052   -1.9048    1.2896 H   0  0  0  0  0  0  0  0  0  0  0  0
   -3.7552   -2.8428   -0.1584 H   0  0  0  0  0  0  0  0  0  0  0  0
   -2.1052   -2.1358    0.9946 C   0  0  0  0  0  0  0  0  0  0  0  0
   -1.2852   -2.7288    1.6826 O   0  0  0  0  0  0  0  0  0  0  0  0
   -1.8202   -1.0288    0.3146 N   0  0  0  0  0  0  0  0  0  0  0  0
   -2.5542   -0.5788   -0.2104 H   0  0  0  0  0  0  0  0  0  0  0  0
   -0.5102   -0.3728    0.3086 C   0  0  1  0  0  0  0  0  0  0  0  0
    0.0719   -0.7468    1.1521 H   0  0  0  0  0  0  0  0  0  0  0  0
    0.2338   -0.7427   -0.9878 C   0  0  0  0  0  0  0  0  0  0  0  0
   -0.1851   -0.1689   -1.8164 H   0  0  0  0  0  0  0  0  0  0  0  0
    1.2849   -0.4665   -0.8859 H   0  0  0  0  0  0  0  0  0  0  0  0
    0.1558   -2.2076   -1.3315 C   0  0  0  0  0  0  0  0  0  0  0  0
   -0.6229   -2.7738   -2.3180 N   0  0  0  0  0  0  0  0  0  0  0  0
   -1.3012   -2.2931   -2.8898 H   0  0  0  0  0  0  0  0  0  0  0  0
   -0.3251   -4.0824   -2.3827 C   0  0  0  0  0  0  0  0  0  0  0  0
   -0.7795   -4.7951   -3.0601 H   0  0  0  0  0  0  0  0  0  0  0  0
    0.6246   -4.3875   -1.4864 N   0  0  0  0  0  0  0  0  0  0  0  0
    0.9354   -3.2052   -0.8095 C   0  0  0  0  0  0  0  0  0  0  0  0
    1.6839   -3.0893   -0.0364 H   0  0  0  0  0  0  0  0  0  0  0  0
   -0.6600    1.1486    0.4782 C   0  0  0  0  0  0  0  0  0  0  0  0
   -1.5001    1.7648   -0.1771 O   0  0  0  0  0  0  0  0  0  0  0  0
    0.1634    1.7559    1.3418 N   0  0  0  0  0  0  0  0  0  0  0  0
    0.8618    1.1897    1.8008 H   0  0  0  0  0  0  0  0  0  0  0  0
    0.1509    3.1886    1.6256 C   0  0  0  0  0  0  0  0  0  0  0  0
   -0.8272    3.4794    2.0152 H   0  0  0  0  0  0  0  0  0  0  0  0
    0.9172    3.4314    2.3624 H   0  0  0  0  0  0  0  0  0  0  0  0
    0.3414    3.7499    0.7095 H   0  0  0  0  0  0  0  0  0  0  0  0
  5  6  2  0  0  0  0
  5  7  1  0  0  0  0
  2  3  1  0  0  0  0
  2  4  1  0  0  0  0
  2  5  1  0  0  0  0
  1  2  1  0  0  0  0
 22 23  2  0  0  0  0
 22 24  1  0  0  0  0
 20 21  1  0  0  0  0
 19 20  1  0  0  0  0
 17 18  1  0  0  0  0
 17 19  2  0  0  0  0
 15 16  1  0  0  0  0
 15 17  1  0  0  0  0
 14 15  1  0  0  0  0
 14 20  2  0  0  0  0
 11 12  1  0  0  0  0
 11 13  1  0  0  0  0
 11 14  1  0  0  0  0
  9 10  1  0  0  0  0
  9 11  1  0  0  0  0
  9 22  1  0  0  0  0
  7  8  1  0  0  0  0
  7  9  1  0  0  0  0
 26 27  1  0  0  0  0
 26 28  1  0  0  0  0
 26 29  1  0  0  0  0
 24 25  1  0  0  0  0
 24 26  1  0  0  0  0
M  END
$$$$
default_name
  -OEChem-02102213163D

 29 29  0     1  0  0  0  0  0999 V2000
   -3.6042   -3.5728    1.4576 H   0  0  0  0  0  0  0  0  0  0  0  0
   -3.5202   -2.6488    0.8866 C   0  0  0  0  0  0  0  0  0  0  0  0
   -4.2052   -1.9048    1.2896 H   0  0  0  0  0  0  0  0  0  0  0  0
   -3.7552   -2.8428   -0.1584 H   0  0  0  0  0  0  0  0  0  0  0  0
   -2.1052   -2.1358    0.9946 C   0  0  0  0  0  0  0  0  0  0  0  0
   -1.2852   -2.7288    1.6826 O   0  0  0  0  0  0  0  0  0  0  0  0
   -1.8202   -1.0288    0.3146 N   0  0  0  0  0  0  0  0  0  0  0  0
   -2.5542   -0.5788   -0.2104 H   0  0  0  0  0  0  0  0  0  0  0  0
   -0.5102   -0.3728    0.3086 C   0  0  1  0  0  0  0  0  0  0  0  0
    0.0719   -0.7468    1.1521 H   0  0  0  0  0  0  0  0  0  0  0  0
    0.2338   -0.7427   -0.9878 C   0  0  0  0  0  0  0  0  0  0  0  0
   -0.1851   -0.1689   -1.8164 H   0  0  0  0  0  0  0  0  0  0  0  0
    1.2849   -0.4665   -0.8859 H   0  0  0  0  0  0  0  0  0  0  0  0
    0.1558   -2.2076   -1.3315 C   0  0  0  0  0  0  0  0  0  0  0  0
   -0.3830   -2.7488   -2.4791 N   0  0  0  0  0  0  0  0  0  0  0  0
   -0.8653   -2.2420   -3.2062 H   0  0  0  0  0  0  0  0  0  0  0  0
   -0.1586   -4.0734   -2.4590 C   0  0  0  0  0  0  0  0  0  0  0  0
   -0.4706   -4.7729   -3.2248 H   0  0  0  0  0  0  0  0  0  0  0  0
    0.5152   -4.4135   -1.3505 N   0  0  0  0  0  0  0  0  0  0  0  0
    0.7171   -3.2371   -0.6240 C   0  0  0  0  0  0  0  0  0  0  0  0
    1.2531   -3.1481    0.3121 H   0  0  0  0  0  0  0  0  0  0  0  0
   -0.6600    1.1486    0.4782 C   0  0  0  0  0  0  0  0  0  0  0  0
   -1.5001    1.7648   -0.1771 O   0  0  0  0  0  0  0  0  0  0  0  0
    0.1634    1.7559    1.3418 N   0  0  0  0  0  0  0  0  0  0  0  0
    0.8618    1.1897    1.8008 H   0  0  0  0  0  0  0  0  0  0  0  0
    0.1509    3.1886    1.6256 C   0  0  0  0  0  0  0  0  0  0  0  0
   -0.8272    3.4794    2.0152 H   0  0  0  0  0  0  0  0  0  0  0  0
    0.9172    3.4314    2.3624 H   0  0  0  0  0  0  0  0  0  0  0  0
    0.3414    3.7499    0.7095 H   0  0  0  0  0  0  0  0  0  0  0  0
  5  6  2  0  0  0  0
  5  7  1  0  0  0  0
  2  3  1  0  0  0  0
  2  4  1  0  0  0  0
  2  5  1  0  0  0  0
  1  2  1  0  0  0  0
 22 23  2  0  0  0  0
 22 24  1  0  0  0  0
 20 21  1  0  0  0  0
 19 20  1  0  0  0  0
 17 18  1  0  0  0  0
 17 19  2  0  0  0  0
 15 16  1  0  0  0  0
 15 17  1  0  0  0  0
 14 15  1  0  0  0  0
 14 20  2  0  0  0  0
 11 12  1  0  0  0  0
 11 13  1  0  0  0  0
 11 14  1  0  0  0  0
  9 10  1  0  0  0  0
  9 11  1  0  0  0  0
  9 22  1  0  0  0  0
  7  8  1  0  0  0  0
  7  9  1  0  0  0  0
 26 27  1  0  0  0  0
 26 28  1  0  0  0  0
 26 29  1  0  0  0  0
 24 25  1  0  0  0  0
 24 26  1  0  0  0  0
M  END
$$$$
default_name
  -OEChem-02102213163D

 29 29  0     1  0  0  0  0  0999 V2000
   -3.6042   -3.5728    1.4576 H   0  0  0  0  0  0  0  0  0  0  0  0
   -3.5202   -2.6488    0.8866 C   0  0  0  0  0  0  0  0  0  0  0  0
   -4.2052   -1.9048    1.2896 H   0  0  0  0  0  0  0  0  0  0  0  0
   -3.7552   -2.8428   -0.1584 H   0  0  0  0  0  0  0  0  0  0  0  0
   -2.1052   -2.1358    0.9946 C   0  0  0  0  0  0  0  0  0  0  0  0
   -1.2852   -2.7288    1.6826 O   0  0  0  0  0  0  0  0  0  0  0  0
   -1.8202   -1.0288    0.3146 N   0  0  0  0  0  0  0  0  0  0  0  0
   -2.5542   -0.5788   -0.2104 H   0  0  0  0  0  0  0  0  0  0  0  0
   -0.5102   -0.3728    0.3086 C   0  0  1  0  0  0  0  0  0  0  0  0
    0.0719   -0.7468    1.1521 H   0  0  0  0  0  0  0  0  0  0  0  0
    0.2338   -0.7427   -0.9878 C   0  0  0  0  0  0  0  0  0  0  0  0
   -0.1851   -0.1689   -1.8164 H   0  0  0  0  0  0  0  0  0  0  0  0
    1.2849   -0.4665   -0.8859 H   0  0  0  0  0  0  0  0  0  0  0  0
    0.1558   -2.2076   -1.3315 C   0  0  0  0  0  0  0  0  0  0  0  0
   -0.1092   -2.7410   -2.5747 N   0  0  0  0  0  0  0  0  0  0  0  0
   -0.3617   -2.2227   -3.4028 H   0  0  0  0  0  0  0  0  0  0  0  0
    0.0220   -4.0755   -2.4909 C   0  0  0  0  0  0  0  0  0  0  0  0
   -0.1295   -4.7719   -3.3066 H   0  0  0  0  0  0  0  0  0  0  0  0
    0.3737   -4.4304   -1.2464 N   0  0  0  0  0  0  0  0  0  0  0  0
    0.4577   -3.2525   -0.4994 C   0  0  0  0  0  0  0  0  0  0  0  0
    0.7457   -3.1748    0.5410 H   0  0  0  0  0  0  0  0  0  0  0  0
   -0.6600    1.1486    0.4782 C   0  0  0  0  0  0  0  0  0  0  0  0
   -1.5001    1.7648   -0.1771 O   0  0  0  0  0  0  0  0  0  0  0  0
    0.1634    1.7559    1.3418 N   0  0  0  0  0  0  0  0  0  0  0  0
    0.8618    1.1897    1.8008 H   0  0  0  0  0  0  0  0  0  0  0  0
    0.1509    3.1886    1.6256 C   0  0  0  0  0  0  0  0  0  0  0  0
   -0.8272    3.4794    2.0152 H   0  0  0  0  0  0  0  0  0  0  0  0
    0.9172    3.4314    2.3624 H   0  0  0  0  0  0  0  0  0  0  0  0
    0.3414    3.7499    0.7095 H   0  0  0  0  0  0  0  0  0  0  0  0
  5  6  2  0  0  0  0
  5  7  1  0  0  0  0
  2  3  1  0  0  0  0
  2  4  1  0  0  0  0
  2  5  1  0  0  0  0
  1  2  1  0  0  0  0
 22 23  2  0  0  0  0
 22 24  1  0  0  0  0
 20 21  1  0  0  0  0
 19 20  1  0  0  0  0
 17 18  1  0  0  0  0
 17 19  2  0  0  0  0
 15 16  1  0  0  0  0
 15 17  1  0  0  0  0
 14 15  1  0  0  0  0
 14 20  2  0  0  0  0
 11 12  1  0  0  0  0
 11 13  1  0  0  0  0
 11 14  1  0  0  0  0
  9 10  1  0  0  0  0
  9 11  1  0  0  0  0
  9 22  1  0  0  0  0
  7  8  1  0  0  0  0
  7  9  1  0  0  0  0
 26 27  1  0  0  0  0
 26 28  1  0  0  0  0
 26 29  1  0  0  0  0
 24 25  1  0  0  0  0
 24 26  1  0  0  0  0
M  END
$$$$
default_name
  -OEChem-02102213163D

 29 29  0     1  0  0  0  0  0999 V2000
   -3.6042   -3.5728    1.4576 H   0  0  0  0  0  0  0  0  0  0  0  0
   -3.5202   -2.6488    0.8866 C   0  0  0  0  0  0  0  0  0  0  0  0
   -4.2052   -1.9048    1.2896 H   0  0  0  0  0  0  0  0  0  0  0  0
   -3.7552   -2.8428   -0.1584 H   0  0  0  0  0  0  0  0  0  0  0  0
   -2.1052   -2.1358    0.9946 C   0  0  0  0  0  0  0  0  0  0  0  0
   -1.2852   -2.7288    1.6826 O   0  0  0  0  0  0  0  0  0  0  0  0
   -1.8202   -1.0288    0.3146 N   0  0  0  0  0  0  0  0  0  0  0  0
   -2.5542   -0.5788   -0.2104 H   0  0  0  0  0  0  0  0  0  0  0  0
   -0.5102   -0.3728    0.3086 C   0  0  1  0  0  0  0  0  0  0  0  0
    0.0719   -0.7468    1.1521 H   0  0  0  0  0  0  0  0  0  0  0  0
    0.2338   -0.7427   -0.9878 C   0  0  0  0  0  0  0  0  0  0  0  0
   -0.1851   -0.1689   -1.8164 H   0  0  0  0  0  0  0  0  0  0  0  0
    1.2849   -0.4665   -0.8859 H   0  0  0  0  0  0  0  0  0  0  0  0
    0.1558   -2.2076   -1.3315 C   0  0  0  0  0  0  0  0  0  0  0  0
    0.1797   -2.7508   -2.5982 N   0  0  0  0  0  0  0  0  0  0  0  0
    0.1753   -2.2364   -3.4663 H   0  0  0  0  0  0  0  0  0  0  0  0
    0.2044   -4.0887   -2.4762 C   0  0  0  0  0  0  0  0  0  0  0  0
    0.2206   -4.7922   -3.2997 H   0  0  0  0  0  0  0  0  0  0  0  0
    0.2099   -4.4370   -1.1812 N   0  0  0  0  0  0  0  0  0  0  0  0
    0.1749   -3.2504   -0.4441 C   0  0  0  0  0  0  0  0  0  0  0  0
    0.1965   -3.1676    0.6349 H   0  0  0  0  0  0  0  0  0  0  0  0
   -0.6600    1.1486    0.4782 C   0  0  0  0  0  0  0  0  0  0  0  0
   -1.5001    1.7648   -0.1771 O   0  0  0  0  0  0  0  0  0  0  0  0
    0.1634    1.7559    1.3418 N   0  0  0  0  0  0  0  0  0  0  0  0
    0.8618    1.1897    1.8008 H   0  0  0  0  0  0  0  0  0  0  0  0
    0.1509    3.1886    1.6256 C   0  0  0  0  0  0  0  0  0  0  0  0
   -0.8272    3.4794    2.0152 H   0  0  0  0  0  0  0  0  0  0  0  0
    0.9172    3.4314    2.3624 H   0  0  0  0  0  0  0  0  0  0  0  0
    0.3414    3.7499    0.7095 H   0  0  0  0  0  0  0  0  0  0  0  0
  5  6  2  0  0  0  0
  5  7  1  0  0  0  0
  2  3  1  0  0  0  0
  2  4  1  0  0  0  0
  2  5  1  0  0  0  0
  1  2  1  0  0  0  0
 22 23  2  0  0  0  0
 22 24  1  0  0  0  0
 20 21  1  0  0  0  0
 19 20  1  0  0  0  0
 17 18  1  0  0  0  0
 17 19  2  0  0  0  0
 15 16  1  0  0  0  0
 15 17  1  0  0  0  0
 14 15  1  0  0  0  0
 14 20  2  0  0  0  0
 11 12  1  0  0  0  0
 11 13  1  0  0  0  0
 11 14  1  0  0  0  0
  9 10  1  0  0  0  0
  9 11  1  0  0  0  0
  9 22  1  0  0  0  0
  7  8  1  0  0  0  0
  7  9  1  0  0  0  0
 26 27  1  0  0  0  0
 26 28  1  0  0  0  0
 26 29  1  0  0  0  0
 24 25  1  0  0  0  0
 24 26  1  0  0  0  0
M  END
$$$$
default_name
  -OEChem-02102213163D

 29 29  0     1  0  0  0  0  0999 V2000
   -3.6042   -3.5728    1.4576 H   0  0  0  0  0  0  0  0  0  0  0  0
   -3.5202   -2.6488    0.8866 C   0  0  0  0  0  0  0  0  0  0  0  0
   -4.2052   -1.9048    1.2896 H   0  0  0  0  0  0  0  0  0  0  0  0
   -3.7552   -2.8428   -0.1584 H   0  0  0  0  0  0  0  0  0  0  0  0
   -2.1052   -2.1358    0.9946 C   0  0  0  0  0  0  0  0  0  0  0  0
   -1.2852   -2.7288    1.6826 O   0  0  0  0  0  0  0  0  0  0  0  0
   -1.8202   -1.0288    0.3146 N   0  0  0  0  0  0  0  0  0  0  0  0
   -2.5542   -0.5788   -0.2104 H   0  0  0  0  0  0  0  0  0  0  0  0
   -0.5102   -0.3728    0.3086 C   0  0  1  0  0  0  0  0  0  0  0  0
    0.0719   -0.7468    1.1521 H   0  0  0  0  0  0  0  0  0  0  0  0
    0.2338   -0.7427   -0.9878 C   0  0  0  0  0  0  0  0  0  0  0  0
   -0.1851   -0.1689   -1.8164 H   0  0  0  0  0  0  0  0  0  0  0  0
    1.2849   -0.4665   -0.8859 H   0  0  0  0  0  0  0  0  0  0  0  0
    0.1558   -2.2076   -1.3315 C   0  0  0  0  0  0  0  0  0  0  0  0
    0.4641   -2.7777   -2.5481 N   0  0  0  0  0  0  0  0  0  0  0  0
    0.7092   -2.2823   -3.3922 H   0  0  0  0  0  0  0  0  0  0  0  0
    0.3760   -4.1120   -2.4160 C   0  0  0  0  0  0  0  0  0  0  0  0
    0.5559   -4.8323   -3.2047 H   0  0  0  0  0  0  0  0  0  0  0  0
    0.0349   -4.4328   -1.1594 N   0  0  0  0  0  0  0  0  0  0  0  0
   -0.1120   -3.2310   -0.4618 C   0  0  0  0  0  0  0  0  0  0  0  0
   -0.3573   -3.1269    0.5872 H   0  0  0  0  0  0  0  0  0  0  0  0
   -0.6600    1.1486    0.4782 C   0  0  0  0  0  0  0  0  0  0  0  0
   -1.5001    1.7648   -0.1771 O   0  0  0  0  0  0  0  0  0  0  0  0
    0.1634    1.7559    1.3418 N   0  0  0  0  0  0  0  0  0  0  0  0
    0.8618    1.1897    1.8008 H   0  0  0  0  0  0  0  0  0  0  0  0
    0.1509    3.1886    1.6256 C   0  0  0  0  0  0  0  0  0  0  0  0
   -0.8272    3.4794    2.0152 H   0  0  0  0  0  0  0  0  0  0  0  0
    0.9172    3.4314    2.3624 H   0  0  0  0  0  0  0  0  0  0  0  0
    0.3414    3.7499    0.7095 H   0  0  0  0  0  0  0  0  0  0  0  0
  5  6  2  0  0  0  0
  5  7  1  0  0  0  0
  2  3  1  0  0  0  0
  2  4  1  0  0  0  0
  2  5  1  0  0  0  0
  1  2  1  0  0  0  0
 22 23  2  0  0  0  0
 22 24  1  0  0  0  0
 20 21  1  0  0  0  0
 19 20  1  0  0  0  0
 17 18  1  0  0  0  0
 17 19  2  0  0  0  0
 15 16  1  0  0  0  0
 15 17  1  0  0  0  0
 14 15  1  0  0  0  0
 14 20  2  0  0  0  0
 11 12  1  0  0  0  0
 11 13  1  0  0  0  0
 11 14  1  0  0  0  0
  9 10  1  0  0  0  0
  9 11  1  0  0  0  0
  9 22  1  0  0  0  0
  7  8  1  0  0  0  0
  7  9  1  0  0  0  0
 26 27  1  0  0  0  0
 26 28  1  0  0  0  0
 26 29  1  0  0  0  0
 24 25  1  0  0  0  0
 24 26  1  0  0  0  0
M  END
$$$$
default_name
  -OEChem-02102213163D

 29 29  0     1  0  0  0  0  0999 V2000
   -3.6042   -3.5728    1.4576 H   0  0  0  0  0  0  0  0  0  0  0  0
   -3.5202   -2.6488    0.8866 C   0  0  0  0  0  0  0  0  0  0  0  0
   -4.2052   -1.9048    1.2896 H   0  0  0  0  0  0  0  0  0  0  0  0
   -3.7552   -2.8428   -0.1584 H   0  0  0  0  0  0  0  0  0  0  0  0
   -2.1052   -2.1358    0.9946 C   0  0  0  0  0  0  0  0  0  0  0  0
   -1.2852   -2.7288    1.6826 O   0  0  0  0  0  0  0  0  0  0  0  0
   -1.8202   -1.0288    0.3146 N   0  0  0  0  0  0  0  0  0  0  0  0
   -2.5542   -0.5788   -0.2104 H   0  0  0  0  0  0  0  0  0  0  0  0
   -0.5102   -0.3728    0.3086 C   0  0  1  0  0  0  0  0  0  0  0  0
    0.0719   -0.7468    1.1521 H   0  0  0  0  0  0  0  0  0  0  0  0
    0.2338   -0.7427   -0.9878 C   0  0  0  0  0  0  0  0  0  0  0  0
    0.0116    0.0035   -1.7527 H   0  0  0  0  0  0  0  0  0  0  0  0
    1.3088   -0.7206   -0.7997 H   0  0  0  0  0  0  0  0  0  0  0  0
   -0.1294   -2.1027   -1.5252 C   0  0  0  0  0  0  0  0  0  0  0  0
    0.3769   -2.6919   -2.6638 N   0  0  0  0  0  0  0  0  0  0  0  0
    1.0000   -2.2606   -3.3301 H   0  0  0  0  0  0  0  0  0  0  0  0
   -0.1091   -3.9425   -2.7359 C   0  0  0  0  0  0  0  0  0  0  0  0
    0.1052   -4.6529   -3.5250 H   0  0  0  0  0  0  0  0  0  0  0  0
   -0.9012   -4.1943   -1.6835 N   0  0  0  0  0  0  0  0  0  0  0  0
   -0.9254   -3.0313   -0.9092 C   0  0  0  0  0  0  0  0  0  0  0  0
   -1.4492   -2.8989    0.0286 H   0  0  0  0  0  0  0  0  0  0  0  0
   -0.6600    1.1486    0.4782 C   0  0  0  0  0  0  0  0  0  0  0  0
   -1.5001    1.7648   -0.1771 O   0  0  0  0  0  0  0  0  0  0  0  0
    0.1634    1.7559    1.3418 N   0  0  0  0  0  0  0  0  0  0  0  0
    0.8618    1.1897    1.8008 H   0  0  0  0  0  0  0  0  0  0  0  0
    0.1509    3.1886    1.6256 C   0  0  0  0  0  0  0  0  0  0  0  0
   -0.8272    3.4794    2.0152 H   0  0  0  0  0  0  0  0  0  0  0  0
    0.9172    3.4314    2.3624 H   0  0  0  0  0  0  0  0  0  0  0  0
    0.3414    3.7499    0.7095 H   0  0  0  0  0  0  0  0  0  0  0  0
  5  6  2  0  0  0  0
  5  7  1  0  0  0  0
  2  3  1  0  0  0  0
  2  4  1  0  0  0  0
  2  5  1  0  0  0  0
  1  2  1  0  0  0  0
 22 23  2  0  0  0  0
 22 24  1  0  0  0  0
 20 21  1  0  0  0  0
 19 20  1  0  0  0  0
 17 18  1  0  0  0  0
 17 19  2  0  0  0  0
 15 16  1  0  0  0  0
 15 17  1  0  0  0  0
 14 15  1  0  0  0  0
 14 20  2  0  0  0  0
 11 12  1  0  0  0  0
 11 13  1  0  0  0  0
 11 14  1  0  0  0  0
  9 10  1  0  0  0  0
  9 11  1  0  0  0  0
  9 22  1  0  0  0  0
  7  8  1  0  0  0  0
  7  9  1  0  0  0  0
 26 27  1  0  0  0  0
 26 28  1  0  0  0  0
 26 29  1  0  0  0  0
 24 25  1  0  0  0  0
 24 26  1  0  0  0  0
M  END
$$$$
default_name
  -OEChem-02102213163D

 29 29  0     1  0  0  0  0  0999 V2000
   -3.6042   -3.5728    1.4576 H   0  0  0  0  0  0  0  0  0  0  0  0
   -3.5202   -2.6488    0.8866 C   0  0  0  0  0  0  0  0  0  0  0  0
   -4.2052   -1.9048    1.2896 H   0  0  0  0  0  0  0  0  0  0  0  0
   -3.7552   -2.8428   -0.1584 H   0  0  0  0  0  0  0  0  0  0  0  0
   -2.1052   -2.1358    0.9946 C   0  0  0  0  0  0  0  0  0  0  0  0
   -1.2852   -2.7288    1.6826 O   0  0  0  0  0  0  0  0  0  0  0  0
   -1.8202   -1.0288    0.3146 N   0  0  0  0  0  0  0  0  0  0  0  0
   -2.5542   -0.5788   -0.2104 H   0  0  0  0  0  0  0  0  0  0  0  0
   -0.5102   -0.3728    0.3086 C   0  0  1  0  0  0  0  0  0  0  0  0
    0.0719   -0.7468    1.1521 H   0  0  0  0  0  0  0  0  0  0  0  0
    0.2338   -0.7427   -0.9878 C   0  0  0  0  0  0  0  0  0  0  0  0
    0.0116    0.0035   -1.7527 H   0  0  0  0  0  0  0  0  0  0  0  0
    1.3088   -0.7206   -0.7997 H   0  0  0  0  0  0  0  0  0  0  0  0
   -0.1294   -2.1027   -1.5252 C   0  0  0  0  0  0  0  0  0  0  0  0
    0.5646   -2.8147   -2.4799 N   0  0  0  0  0  0  0  0  0  0  0  0
    1.3644   -2.4879   -3.0011 H   0  0  0  0  0  0  0  0  0  0  0  0
   -0.0139   -4.0214   -2.6004 C   0  0  0  0  0  0  0  0  0  0  0  0
    0.3047   -4.8034   -3.2789 H   0  0  0  0  0  0  0  0  0  0  0  0
   -1.0485   -4.1272   -1.7538 N   0  0  0  0  0  0  0  0  0  0  0  0
   -1.1345   -2.9127   -1.0681 C   0  0  0  0  0  0  0  0  0  0  0  0
   -1.8446   -2.6678   -0.2888 H   0  0  0  0  0  0  0  0  0  0  0  0
   -0.6600    1.1486    0.4782 C   0  0  0  0  0  0  0  0  0  0  0  0
   -1.5001    1.7648   -0.1771 O   0  0  0  0  0  0  0  0  0  0  0  0
    0.1634    1.7559    1.3418 N   0  0  0  0  0  0  0  0  0  0  0  0
    0.8618    1.1897    1.8008 H   0  0  0  0  0  0  0  0  0  0  0  0
    0.1509    3.1886    1.6256 C   0  0  0  0  0  0  0  0  0  0  0  0
   -0.8272    3.4794    2.0152 H   0  0  0  0  0  0  0  0  0  0  0  0
    0.9172    3.4314    2.3624 H   0  0  0  0  0  0  0  0  0  0  0  0
    0.3414    3.7499    0.7095 H   0  0  0  0  0  0  0  0  0  0  0  0
  5  6  2  0  0  0  0
  5  7  1  0  0  0  0
  2  3  1  0  0  0  0
  2  4  1  0  0  0  0
  2  5  1  0  0  0  0
  1  2  1  0  0  0  0
 22 23  2  0  0  0  0
 22 24  1  0  0  0  0
 20 21  1  0  0  0  0
 19 20  1  0  0  0  0
 17 18  1  0  0  0  0
 17 19  2  0  0  0  0
 15 16  1  0  0  0  0
 15 17  1  0  0  0  0
 14 15  1  0  0  0  0
 14 20  2  0  0  0  0
 11 12  1  0  0  0  0
 11 13  1  0  0  0  0
 11 14  1  0  0  0  0
  9 10  1  0  0  0  0
  9 11  1  0  0  0  0
  9 22  1  0  0  0  0
  7  8  1  0  0  0  0
  7  9  1  0  0  0  0
 26 27  1  0  0  0  0
 26 28  1  0  0  0  0
 26 29  1  0  0  0  0
 24 25  1  0  0  0  0
 24 26  1  0  0  0  0
M  END
$$$$
default_name
  -OEChem-02102213163D

 29 29  0     1  0  0  0  0  0999 V2000
   -3.6042   -3.5728    1.4576 H   0  0  0  0  0  0  0  0  0  0  0  0
   -3.5202   -2.6488    0.8866 C   0  0  0  0  0  0  0  0  0  0  0  0
   -4.2052   -1.9048    1.2896 H   0  0  0  0  0  0  0  0  0  0  0  0
   -3.7552   -2.8428   -0.1584 H   0  0  0  0  0  0  0  0  0  0  0  0
   -2.1052   -2.1358    0.9946 C   0  0  0  0  0  0  0  0  0  0  0  0
   -1.2852   -2.7288    1.6826 O   0  0  0  0  0  0  0  0  0  0  0  0
   -1.8202   -1.0288    0.3146 N   0  0  0  0  0  0  0  0  0  0  0  0
   -2.5542   -0.5788   -0.2104 H   0  0  0  0  0  0  0  0  0  0  0  0
   -0.5102   -0.3728    0.3086 C   0  0  1  0  0  0  0  0  0  0  0  0
    0.0719   -0.7468    1.1521 H   0  0  0  0  0  0  0  0  0  0  0  0
    0.2338   -0.7427   -0.9878 C   0  0  0  0  0  0  0  0  0  0  0  0
    0.0116    0.0035   -1.7527 H   0  0  0  0  0  0  0  0  0  0  0  0
    1.3088   -0.7206   -0.7997 H   0  0  0  0  0  0  0  0  0  0  0  0
   -0.1294   -2.1027   -1.5252 C   0  0  0  0  0  0  0  0  0  0  0  0
    0.6916   -2.9392   -2.2507 N   0  0  0  0  0  0  0  0  0  0  0  0
    1.6185   -2.7206   -2.5840 H   0  0  0  0  0  0  0  0  0  0  0  0
    0.0391   -4.0980   -2.4424 C   0  0  0  0  0  0  0  0  0  0  0  0
    0.4260   -4.9519   -2.9851 H   0  0  0  0  0  0  0  0  0  0  0  0
   -1.1681   -4.0531   -1.8603 N   0  0  0  0  0  0  0  0  0  0  0  0
   -1.2885   -2.7888   -1.2778 C   0  0  0  0  0  0  0  0  0  0  0  0
   -2.1311   -2.4279   -0.7022 H   0  0  0  0  0  0  0  0  0  0  0  0
   -0.6600    1.1486    0.4782 C   0  0  0  0  0  0  0  0  0  0  0  0
   -1.5001    1.7648   -0.1771 O   0  0  0  0  0  0  0  0  0  0  0  0
    0.1634    1.7559    1.3418 N   0  0  0  0  0  0  0  0  0  0  0  0
    0.8618    1.1897    1.8008 H   0  0  0  0  0  0  0  0  0  0  0  0
    0.1509    3.1886    1.6256 C   0  0  0  0  0  0  0  0  0  0  0  0
   -0.8272    3.4794    2.0152 H   0  0  0  0  0  0  0  0  0  0  0  0
    0.9172    3.4314    2.3624 H   0  0  0  0  0  0  0  0  0  0  0  0
    0.3414    3.7499    0.7095 H   0  0  0  0  0  0  0  0  0  0  0  0
  5  6  2  0  0  0  0
  5  7  1  0  0  0  0
  2  3  1  0  0  0  0
  2  4  1  0  0  0  0
  2  5  1  0  0  0  0
  1  2  1  0  0  0  0
 22 23  2  0  0  0  0
 22 24  1  0  0  0  0
 20 21  1  0  0  0  0
 19 20  1  0  0  0  0
 17 18  1  0  0  0  0
 17 19  2  0  0  0  0
 15 16  1  0  0  0  0
 15 17  1  0  0  0  0
 14 15  1  0  0  0  0
 14 20  2  0  0  0  0
 11 12  1  0  0  0  0
 11 13  1  0  0  0  0
 11 14  1  0  0  0  0
  9 10  1  0  0  0  0
  9 11  1  0  0  0  0
  9 22  1  0  0  0  0
  7  8  1  0  0  0  0
  7  9  1  0  0  0  0
 26 27  1  0  0  0  0
 26 28  1  0  0  0  0
 26 29  1  0  0  0  0
 24 25  1  0  0  0  0
 24 26  1  0  0  0  0
M  END
$$$$
default_name
  -OEChem-02102213163D

 29 29  0     1  0  0  0  0  0999 V2000
   -3.6042   -3.5728    1.4576 H   0  0  0  0  0  0  0  0  0  0  0  0
   -3.5202   -2.6488    0.8866 C   0  0  0  0  0  0  0  0  0  0  0  0
   -4.2052   -1.9048    1.2896 H   0  0  0  0  0  0  0  0  0  0  0  0
   -3.7552   -2.8428   -0.1584 H   0  0  0  0  0  0  0  0  0  0  0  0
   -2.1052   -2.1358    0.9946 C   0  0  0  0  0  0  0  0  0  0  0  0
   -1.2852   -2.7288    1.6826 O   0  0  0  0  0  0  0  0  0  0  0  0
   -1.8202   -1.0288    0.3146 N   0  0  0  0  0  0  0  0  0  0  0  0
   -2.5542   -0.5788   -0.2104 H   0  0  0  0  0  0  0  0  0  0  0  0
   -0.5102   -0.3728    0.3086 C   0  0  1  0  0  0  0  0  0  0  0  0
    0.0719   -0.7468    1.1521 H   0  0  0  0  0  0  0  0  0  0  0  0
    0.2338   -0.7427   -0.9878 C   0  0  0  0  0  0  0  0  0  0  0  0
    0.0116    0.0035   -1.7527 H   0  0  0  0  0  0  0  0  0  0  0  0
    1.3088   -0.7206   -0.7997 H   0  0  0  0  0  0  0  0  0  0  0  0
   -0.1294   -2.1027   -1.5252 C   0  0  0  0  0  0  0  0  0  0  0  0
    0.7492   -3.0568   -1.9919 N   0  0  0  0  0  0  0  0  0  0  0  0
    1.7451   -2.9428   -2.1073 H   0  0  0  0  0  0  0  0  0  0  0  0
    0.0463   -4.1670   -2.2727 C   0  0  0  0  0  0  0  0  0  0  0  0
    0.4608   -5.0881   -2.6638 H   0  0  0  0  0  0  0  0  0  0  0  0
   -1.2520   -3.9772   -1.9957 N   0  0  0  0  0  0  0  0  0  0  0  0
   -1.3768   -2.6679   -1.5240 C   0  0  0  0  0  0  0  0  0  0  0  0
   -2.2892   -2.1956   -1.1835 H   0  0  0  0  0  0  0  0  0  0  0  0
   -0.6600    1.1486    0.4782 C   0  0  0  0  0  0  0  0  0  0  0  0
   -1.5001    1.7648   -0.1771 O   0  0  0  0  0  0  0  0  0  0  0  0
    0.1634    1.7559    1.3418 N   0  0  0  0  0  0  0  0  0  0  0  0
    0.8618    1.1897    1.8008 H   0  0  0  0  0  0  0  0  0  0  0  0
    0.1509    3.1886    1.6256 C   0  0  0  0  0  0  0  0  0  0  0  0
   -0.8272    3.4794    2.0152 H   0  0  0  0  0  0  0  0  0  0  0  0
    0.9172    3.4314    2.3624 H   0  0  0  0  0  0  0  0  0  0  0  0
    0.3414    3.7499    0.7095 H   0  0  0  0  0  0  0  0  0  0  0  0
  5  6  2  0  0  0  0
  5  7  1  0  0  0  0
  2  3  1  0  0  0  0
  2  4  1  0  0  0  0
  2  5  1  0  0  0  0
  1  2  1  0  0  0  0
 22 23  2  0  0  0  0
 22 24  1  0  0  0  0
 20 21  1  0  0  0  0
 19 20  1  0  0  0  0
 17 18  1  0  0  0  0
 17 19  2  0  0  0  0
 15 16  1  0  0  0  0
 15 17  1  0  0  0  0
 14 15  1  0  0  0  0
 14 20  2  0  0  0  0
 11 12  1  0  0  0  0
 11 13  1  0  0  0  0
 11 14  1  0  0  0  0
  9 10  1  0  0  0  0
  9 11  1  0  0  0  0
  9 22  1  0  0  0  0
  7  8  1  0  0  0  0
  7  9  1  0  0  0  0
 26 27  1  0  0  0  0
 26 28  1  0  0  0  0
 26 29  1  0  0  0  0
 24 25  1  0  0  0  0
 24 26  1  0  0  0  0
M  END
$$$$
default_name
  -OEChem-02102213163D

 29 29  0     1  0  0  0  0  0999 V2000
   -3.6042   -3.5728    1.4576 H   0  0  0  0  0  0  0  0  0  0  0  0
   -3.5202   -2.6488    0.8866 C   0  0  0  0  0  0  0  0  0  0  0  0
   -4.2052   -1.9048    1.2896 H   0  0  0  0  0  0  0  0  0  0  0  0
   -3.7552   -2.8428   -0.1584 H   0  0  0  0  0  0  0  0  0  0  0  0
   -2.1052   -2.1358    0.9946 C   0  0  0  0  0  0  0  0  0  0  0  0
   -1.2852   -2.7288    1.6826 O   0  0  0  0  0  0  0  0  0  0  0  0
   -1.8202   -1.0288    0.3146 N   0  0  0  0  0  0  0  0  0  0  0  0
   -2.5542   -0.5788   -0.2104 H   0  0  0  0  0  0  0  0  0  0  0  0
   -0.5102   -0.3728    0.3086 C   0  0  1  0  0  0  0  0  0  0  0  0
    0.0719   -0.7468    1.1521 H   0  0  0  0  0  0  0  0  0  0  0  0
    0.2338   -0.7427   -0.9878 C   0  0  0  0  0  0  0  0  0  0  0  0
    0.0116    0.0035   -1.7527 H   0  0  0  0  0  0  0  0  0  0  0  0
    1.3088   -0.7206   -0.7997 H   0  0  0  0  0  0  0  0  0  0  0  0
   -0.1294   -2.1027   -1.5252 C   0  0  0  0  0  0  0  0  0  0  0  0
    0.7335   -3.1596   -1.7211 N   0  0  0  0  0  0  0  0  0  0  0  0
    1.7354   -3.1393   -1.6034 H   0  0  0  0  0  0  0  0  0  0  0  0
    0.0073   -4.2237   -2.1027 C   0  0  0  0  0  0  0  0  0  0  0  0
    0.4068   -5.2029   -2.3368 H   0  0  0  0  0  0  0  0  0  0  0  0
   -1.2943   -3.9046   -2.1508 N   0  0  0  0  0  0  0  0  0  0  0  0
   -1.3934   -2.5583   -1.7900 C   0  0  0  0  0  0  0  0  0  0  0  0
   -2.3079   -1.9866   -1.6997 H   0  0  0  0  0  0  0  0  0  0  0  0
   -0.6600    1.1486    0.4782 C   0  0  0  0  0  0  0  0  0  0  0  0
   -1.5001    1.7648   -0.1771 O   0  0  0  0  0  0  0  0  0  0  0  0
    0.1634    1.7559    1.3418 N   0  0  0  0  0  0  0  0  0  0  0  0
    0.8618    1.1897    1.8008 H   0  0  0  0  0  0  0  0  0  0  0  0
    0.1509    3.1886    1.6256 C   0  0  0  0  0  0  0  0  0  0  0  0
   -0.8272    3.4794    2.0152 H   0  0  0  0  0  0  0  0  0  0  0  0
    0.9172    3.4314    2.3624 H   0  0  0  0  0  0  0  0  0  0  0  0
    0.3414    3.7499    0.7095 H   0  0  0  0  0  0  0  0  0  0  0  0
  5  6  2  0  0  0  0
  5  7  1  0  0  0  0
  2  3  1  0  0  0  0
  2  4  1  0  0  0  0
  2  5  1  0  0  0  0
  1  2  1  0  0  0  0
 22 23  2  0  0  0  0
 22 24  1  0  0  0  0
 20 21  1  0  0  0  0
 19 20  1  0  0  0  0
 17 18  1  0  0  0  0
 17 19  2  0  0  0  0
 15 16  1  0  0  0  0
 15 17  1  0  0  0  0
 14 15  1  0  0  0  0
 14 20  2  0  0  0  0
 11 12  1  0  0  0  0
 11 13  1  0  0  0  0
 11 14  1  0  0  0  0
  9 10  1  0  0  0  0
  9 11  1  0  0  0  0
  9 22  1  0  0  0  0
  7  8  1  0  0  0  0
  7  9  1  0  0  0  0
 26 27  1  0  0  0  0
 26 28  1  0  0  0  0
 26 29  1  0  0  0  0
 24 25  1  0  0  0  0
 24 26  1  0  0  0  0
M  END
$$$$
default_name
  -OEChem-02102213163D

 29 29  0     1  0  0  0  0  0999 V2000
   -3.6042   -3.5728    1.4576 H   0  0  0  0  0  0  0  0  0  0  0  0
   -3.5202   -2.6488    0.8866 C   0  0  0  0  0  0  0  0  0  0  0  0
   -4.2052   -1.9048    1.2896 H   0  0  0  0  0  0  0  0  0  0  0  0
   -3.7552   -2.8428   -0.1584 H   0  0  0  0  0  0  0  0  0  0  0  0
   -2.1052   -2.1358    0.9946 C   0  0  0  0  0  0  0  0  0  0  0  0
   -1.2852   -2.7288    1.6826 O   0  0  0  0  0  0  0  0  0  0  0  0
   -1.8202   -1.0288    0.3146 N   0  0  0  0  0  0  0  0  0  0  0  0
   -2.5542   -0.5788   -0.2104 H   0  0  0  0  0  0  0  0  0  0  0  0
   -0.5102   -0.3728    0.3086 C   0  0  1  0  0  0  0  0  0  0  0  0
    0.0719   -0.7468    1.1521 H   0  0  0  0  0  0  0  0  0  0  0  0
    0.2338   -0.7427   -0.9878 C   0  0  0  0  0  0  0  0  0  0  0  0
    0.0116    0.0035   -1.7527 H   0  0  0  0  0  0  0  0  0  0  0  0
    1.3088   -0.7206   -0.7997 H   0  0  0  0  0  0  0  0  0  0  0  0
   -0.1294   -2.1027   -1.5252 C   0  0  0  0  0  0  0  0  0  0  0  0
    0.6456   -3.2405   -1.4568 N   0  0  0  0  0  0  0  0  0  0  0  0
    1.5902   -3.2968   -1.1066 H   0  0  0  0  0  0  0  0  0  0  0  0
   -0.0754   -4.2643   -1.9441 C   0  0  0  0  0  0  0  0  0  0  0  0
    0.2677   -5.2884   -2.0263 H   0  0  0  0  0  0  0  0  0  0  0  0
   -1.2923   -3.8403   -2.3151 N   0  0  0  0  0  0  0  0  0  0  0  0
   -1.3372   -2.4676   -2.0577 C   0  0  0  0  0  0  0  0  0  0  0  0
   -2.1862   -1.8152   -2.2158 H   0  0  0  0  0  0  0  0  0  0  0  0
   -0.6600    1.1486    0.4782 C   0  0  0  0  0  0  0  0  0  0  0  0
   -1.5001    1.7648   -0.1771 O   0  0  0  0  0  0  0  0  0  0  0  0
    0.1634    1.7559    1.3418 N   0  0  0  0  0  0  0  0  0  0  0  0
    0.8618    1.1897    1.8008 H   0  0  0  0  0  0  0  0  0  0  0  0
    0.1509    3.1886    1.6256 C   0  0  0  0  0  0  0  0  0  0  0  0
   -0.8272    3.4794    2.0152 H   0  0  0  0  0  0  0  0  0  0  0  0
    0.9172    3.4314    2.3624 H   0  0  0  0  0  0  0  0  0  0  0  0
    0.3414    3.7499    0.7095 H   0  0  0  0  0  0  0  0  0  0  0  0
  5  6  2  0  0  0  0
  5  7  1  0  0  0  0
  2  3  1  0  0  0  0
  2  4  1  0  0  0  0
  2  5  1  0  0  0  0
  1  2  1  0  0  0  0
 22 23  2  0  0  0  0
 22 24  1  0  0  0  0
 20 21  1  0  0  0  0
 19 20  1  0  0  0  0
 17 18  1  0  0  0  0
 17 19  2  0  0  0  0
 15 16  1  0  0  0  0
 15 17  1  0  0  0  0
 14 15  1  0  0  0  0
 14 20  2  0  0  0  0
 11 12  1  0  0  0  0
 11 13  1  0  0  0  0
 11 14  1  0  0  0  0
  9 10  1  0  0  0  0
  9 11  1  0  0  0  0
  9 22  1  0  0  0  0
  7  8  1  0  0  0  0
  7  9  1  0  0  0  0
 26 27  1  0  0  0  0
 26 28  1  0  0  0  0
 26 29  1  0  0  0  0
 24 25  1  0  0  0  0
 24 26  1  0  0  0  0
M  END
$$$$
default_name
  -OEChem-02102213163D

 29 29  0     1  0  0  0  0  0999 V2000
   -3.6042   -3.5728    1.4576 H   0  0  0  0  0  0  0  0  0  0  0  0
   -3.5202   -2.6488    0.8866 C   0  0  0  0  0  0  0  0  0  0  0  0
   -4.2052   -1.9048    1.2896 H   0  0  0  0  0  0  0  0  0  0  0  0
   -3.7552   -2.8428   -0.1584 H   0  0  0  0  0  0  0  0  0  0  0  0
   -2.1052   -2.1358    0.9946 C   0  0  0  0  0  0  0  0  0  0  0  0
   -1.2852   -2.7288    1.6826 O   0  0  0  0  0  0  0  0  0  0  0  0
   -1.8202   -1.0288    0.3146 N   0  0  0  0  0  0  0  0  0  0  0  0
   -2.5542   -0.5788   -0.2104 H   0  0  0  0  0  0  0  0  0  0  0  0
   -0.5102   -0.3728    0.3086 C   0  0  1  0  0  0  0  0  0  0  0  0
    0.0719   -0.7468    1.1521 H   0  0  0  0  0  0  0  0  0  0  0  0
    0.2338   -0.7427   -0.9878 C   0  0  0  0  0  0  0  0  0  0  0  0
    0.0116    0.0035   -1.7527 H   0  0  0  0  0  0  0  0  0  0  0  0
    1.3088   -0.7206   -0.7997 H   0  0  0  0  0  0  0  0  0  0  0  0
   -0.1294   -2.1027   -1.5252 C   0  0  0  0  0  0  0  0  0  0  0  0
    0.4915   -3.2941   -1.2170 N   0  0  0  0  0  0  0  0  0  0  0  0
    1.3194   -3.4045   -0.6509 H   0  0  0  0  0  0  0  0  0  0  0  0
   -0.1960   -4.2860   -1.8077 C   0  0  0  0  0  0  0  0  0  0  0  0
    0.0529   -5.3388   -1.7536 H   0  0  0  0  0  0  0  0  0  0  0  0
   -1.2460   -3.7885   -2.4773 N   0  0  0  0  0  0  0  0  0  0  0  0
   -1.2120   -2.4018   -2.3088 C   0  0  0  0  0  0  0  0  0  0  0  0
   -1.9322   -1.6931   -2.6965 H   0  0  0  0  0  0  0  0  0  0  0  0
   -0.6600    1.1486    0.4782 C   0  0  0  0  0  0  0  0  0  0  0  0
   -1.5001    1.7648   -0.1771 O   0  0  0  0  0  0  0  0  0  0  0  0
    0.1634    1.7559    1.3418 N   0  0  0  0  0  0  0  0  0  0  0  0
    0.8618    1.1897    1.8008 H   0  0  0  0  0  0  0  0  0  0  0  0
    0.1509    3.1886    1.6256 C   0  0  0  0  0  0  0  0  0  0  0  0
   -0.8272    3.4794    2.0152 H   0  0  0  0  0  0  0  0  0  0  0  0
    0.9172    3.4314    2.3624 H   0  0  0  0  0  0  0  0  0  0  0  0
    0.3414    3.7499    0.7095 H   0  0  0  0  0  0  0  0  0  0  0  0
  5  6  2  0  0  0  0
  5  7  1  0  0  0  0
  2  3  1  0  0  0  0
  2  4  1  0  0  0  0
  2  5  1  0  0  0  0
  1  2  1  0  0  0  0
 22 23  2  0  0  0  0
 22 24  1  0  0  0  0
 20 21  1  0  0  0  0
 19 20  1  0  0  0  0
 17 18  1  0  0  0  0
 17 19  2  0  0  0  0
 15 16  1  0  0  0  0
 15 17  1  0  0  0  0
 14 15  1  0  0  0  0
 14 20  2  0  0  0  0
 11 12  1  0  0  0  0
 11 13  1  0  0  0  0
 11 14  1  0  0  0  0
  9 10  1  0  0  0  0
  9 11  1  0  0  0  0
  9 22  1  0  0  0  0
  7  8  1  0  0  0  0
  7  9  1  0  0  0  0
 26 27  1  0  0  0  0
 26 28  1  0  0  0  0
 26 29  1  0  0  0  0
 24 25  1  0  0  0  0
 24 26  1  0  0  0  0
M  END
$$$$
default_name
  -OEChem-02102213163D

 29 29  0     1  0  0  0  0  0999 V2000
   -3.6042   -3.5728    1.4576 H   0  0  0  0  0  0  0  0  0  0  0  0
   -3.5202   -2.6488    0.8866 C   0  0  0  0  0  0  0  0  0  0  0  0
   -4.2052   -1.9048    1.2896 H   0  0  0  0  0  0  0  0  0  0  0  0
   -3.7552   -2.8428   -0.1584 H   0  0  0  0  0  0  0  0  0  0  0  0
   -2.1052   -2.1358    0.9946 C   0  0  0  0  0  0  0  0  0  0  0  0
   -1.2852   -2.7288    1.6826 O   0  0  0  0  0  0  0  0  0  0  0  0
   -1.8202   -1.0288    0.3146 N   0  0  0  0  0  0  0  0  0  0  0  0
   -2.5542   -0.5788   -0.2104 H   0  0  0  0  0  0  0  0  0  0  0  0
   -0.5102   -0.3728    0.3086 C   0  0  1  0  0  0  0  0  0  0  0  0
    0.0719   -0.7468    1.1521 H   0  0  0  0  0  0  0  0  0  0  0  0
    0.2338   -0.7427   -0.9878 C   0  0  0  0  0  0  0  0  0  0  0  0
    0.0116    0.0035   -1.7527 H   0  0  0  0  0  0  0  0  0  0  0  0
    1.3088   -0.7206   -0.7997 H   0  0  0  0  0  0  0  0  0  0  0  0
   -0.1294   -2.1027   -1.5252 C   0  0  0  0  0  0  0  0  0  0  0  0
    0.2817   -3.3167   -1.0180 N   0  0  0  0  0  0  0  0  0  0  0  0
    0.9414   -3.4551   -0.2672 H   0  0  0  0  0  0  0  0  0  0  0  0
   -0.3465   -4.2873   -1.7027 C   0  0  0  0  0  0  0  0  0  0  0  0
   -0.2230   -5.3506   -1.5373 H   0  0  0  0  0  0  0  0  0  0  0  0
   -1.1587   -3.7530   -2.6264 N   0  0  0  0  0  0  0  0  0  0  0  0
   -1.0263   -2.3656   -2.5261 C   0  0  0  0  0  0  0  0  0  0  0  0
   -1.5633   -1.6286   -3.1092 H   0  0  0  0  0  0  0  0  0  0  0  0
   -0.6600    1.1486    0.4782 C   0  0  0  0  0  0  0  0  0  0  0  0
   -1.5001    1.7648   -0.1771 O   0  0  0  0  0  0  0  0  0  0  0  0
    0.1634    1.7559    1.3418 N   0  0  0  0  0  0  0  0  0  0  0  0
    0.8618    1.1897    1.8008 H   0  0  0  0  0  0  0  0  0  0  0  0
    0.1509    3.1886    1.6256 C   0  0  0  0  0  0  0  0  0  0  0  0
   -0.8272    3.4794    2.0152 H   0  0  0  0  0  0  0  0  0  0  0  0
    0.9172    3.4314    2.3624 H   0  0  0  0  0  0  0  0  0  0  0  0
    0.3414    3.7499    0.7095 H   0  0  0  0  0  0  0  0  0  0  0  0
  5  6  2  0  0  0  0
  5  7  1  0  0  0  0
  2  3  1  0  0  0  0
  2  4  1  0  0  0  0
  2  5  1  0  0  0  0
  1  2  1  0  0  0  0
 22 23  2  0  0  0  0
 22 24  1  0  0  0  0
 20 21  1  0  0  0  0
 19 20  1  0  0  0  0
 17 18  1  0  0  0  0
 17 19  2  0  0  0  0
 15 16  1  0  0  0  0
 15 17  1  0  0  0  0
 14 15  1  0  0  0  0
 14 20  2  0  0  0  0
 11 12  1  0  0  0  0
 11 13  1  0  0  0  0
 11 14  1  0  0  0  0
  9 10  1  0  0  0  0
  9 11  1  0  0  0  0
  9 22  1  0  0  0  0
  7  8  1  0  0  0  0
  7  9  1  0  0  0  0
 26 27  1  0  0  0  0
 26 28  1  0  0  0  0
 26 29  1  0  0  0  0
 24 25  1  0  0  0  0
 24 26  1  0  0  0  0
M  END
$$$$
default_name
  -OEChem-02102213163D

 29 29  0     1  0  0  0  0  0999 V2000
   -3.6042   -3.5728    1.4576 H   0  0  0  0  0  0  0  0  0  0  0  0
   -3.5202   -2.6488    0.8866 C   0  0  0  0  0  0  0  0  0  0  0  0
   -4.2052   -1.9048    1.2896 H   0  0  0  0  0  0  0  0  0  0  0  0
   -3.7552   -2.8428   -0.1584 H   0  0  0  0  0  0  0  0  0  0  0  0
   -2.1052   -2.1358    0.9946 C   0  0  0  0  0  0  0  0  0  0  0  0
   -1.2852   -2.7288    1.6826 O   0  0  0  0  0  0  0  0  0  0  0  0
   -1.8202   -1.0288    0.3146 N   0  0  0  0  0  0  0  0  0  0  0  0
   -2.5542   -0.5788   -0.2104 H   0  0  0  0  0  0  0  0  0  0  0  0
   -0.5102   -0.3728    0.3086 C   0  0  1  0  0  0  0  0  0  0  0  0
    0.0719   -0.7468    1.1521 H   0  0  0  0  0  0  0  0  0  0  0  0
    0.2338   -0.7427   -0.9878 C   0  0  0  0  0  0  0  0  0  0  0  0
    0.0116    0.0035   -1.7527 H   0  0  0  0  0  0  0  0  0  0  0  0
    1.3088   -0.7206   -0.7997 H   0  0  0  0  0  0  0  0  0  0  0  0
   -0.1294   -2.1027   -1.5252 C   0  0  0  0  0  0  0  0  0  0  0  0
    0.0304   -3.3067   -0.8734 N   0  0  0  0  0  0  0  0  0  0  0  0
    0.4820   -3.4452    0.0182 H   0  0  0  0  0  0  0  0  0  0  0  0
   -0.5164   -4.2681   -1.6364 C   0  0  0  0  0  0  0  0  0  0  0  0
   -0.5410   -5.3230   -1.3920 H   0  0  0  0  0  0  0  0  0  0  0  0
   -1.0362   -3.7360   -2.7522 N   0  0  0  0  0  0  0  0  0  0  0  0
   -0.7928   -2.3612   -2.6950 C   0  0  0  0  0  0  0  0  0  0  0  0
   -1.1046   -1.6261   -3.4256 H   0  0  0  0  0  0  0  0  0  0  0  0
   -0.6600    1.1486    0.4782 C   0  0  0  0  0  0  0  0  0  0  0  0
   -1.5001    1.7648   -0.1771 O   0  0  0  0  0  0  0  0  0  0  0  0
    0.1634    1.7559    1.3418 N   0  0  0  0  0  0  0  0  0  0  0  0
    0.8618    1.1897    1.8008 H   0  0  0  0  0  0  0  0  0  0  0  0
    0.1509    3.1886    1.6256 C   0  0  0  0  0  0  0  0  0  0  0  0
   -0.8272    3.4794    2.0152 H   0  0  0  0  0  0  0  0  0  0  0  0
    0.9172    3.4314    2.3624 H   0  0  0  0  0  0  0  0  0  0  0  0
    0.3414    3.7499    0.7095 H   0  0  0  0  0  0  0  0  0  0  0  0
  5  6  2  0  0  0  0
  5  7  1  0  0  0  0
  2  3  1  0  0  0  0
  2  4  1  0  0  0  0
  2  5  1  0  0  0  0
  1  2  1  0  0  0  0
 22 23  2  0  0  0  0
 22 24  1  0  0  0  0
 20 21  1  0  0  0  0
 19 20  1  0  0  0  0
 17 18  1  0  0  0  0
 17 19  2  0  0  0  0
 15 16  1  0  0  0  0
 15 17  1  0  0  0  0
 14 15  1  0  0  0  0
 14 20  2  0  0  0  0
 11 12  1  0  0  0  0
 11 13  1  0  0  0  0
 11 14  1  0  0  0  0
  9 10  1  0  0  0  0
  9 11  1  0  0  0  0
  9 22  1  0  0  0  0
  7  8  1  0  0  0  0
  7  9  1  0  0  0  0
 26 27  1  0  0  0  0
 26 28  1  0  0  0  0
 26 29  1  0  0  0  0
 24 25  1  0  0  0  0
 24 26  1  0  0  0  0
M  END
$$$$
default_name
  -OEChem-02102213163D

 29 29  0     1  0  0  0  0  0999 V2000
   -3.6042   -3.5728    1.4576 H   0  0  0  0  0  0  0  0  0  0  0  0
   -3.5202   -2.6488    0.8866 C   0  0  0  0  0  0  0  0  0  0  0  0
   -4.2052   -1.9048    1.2896 H   0  0  0  0  0  0  0  0  0  0  0  0
   -3.7552   -2.8428   -0.1584 H   0  0  0  0  0  0  0  0  0  0  0  0
   -2.1052   -2.1358    0.9946 C   0  0  0  0  0  0  0  0  0  0  0  0
   -1.2852   -2.7288    1.6826 O   0  0  0  0  0  0  0  0  0  0  0  0
   -1.8202   -1.0288    0.3146 N   0  0  0  0  0  0  0  0  0  0  0  0
   -2.5542   -0.5788   -0.2104 H   0  0  0  0  0  0  0  0  0  0  0  0
   -0.5102   -0.3728    0.3086 C   0  0  1  0  0  0  0  0  0  0  0  0
    0.0719   -0.7468    1.1521 H   0  0  0  0  0  0  0  0  0  0  0  0
    0.2338   -0.7427   -0.9878 C   0  0  0  0  0  0  0  0  0  0  0  0
    0.0116    0.0035   -1.7527 H   0  0  0  0  0  0  0  0  0  0  0  0
    1.3088   -0.7206   -0.7997 H   0  0  0  0  0  0  0  0  0  0  0  0
   -0.1294   -2.1027   -1.5252 C   0  0  0  0  0  0  0  0  0  0  0  0
   -0.2451   -3.2649   -0.7931 N   0  0  0  0  0  0  0  0  0  0  0  0
   -0.0275   -3.3754    0.1860 H   0  0  0  0  0  0  0  0  0  0  0  0
   -0.6942   -4.2297   -1.6133 C   0  0  0  0  0  0  0  0  0  0  0  0
   -0.8797   -5.2580   -1.3277 H   0  0  0  0  0  0  0  0  0  0  0  0
   -0.8869   -3.7387   -2.8462 N   0  0  0  0  0  0  0  0  0  0  0  0
   -0.5275   -2.3891   -2.8038 C   0  0  0  0  0  0  0  0  0  0  0  0
   -0.5874   -1.6858   -3.6243 H   0  0  0  0  0  0  0  0  0  0  0  0
   -0.6600    1.1486    0.4782 C   0  0  0  0  0  0  0  0  0  0  0  0
   -1.5001    1.7648   -0.1771 O   0  0  0  0  0  0  0  0  0  0  0  0
    0.1634    1.7559    1.3418 N   0  0  0  0  0  0  0  0  0  0  0  0
    0.8618    1.1897    1.8008 H   0  0  0  0  0  0  0  0  0  0  0  0
    0.1509    3.1886    1.6256 C   0  0  0  0  0  0  0  0  0  0  0  0
   -0.8272    3.4794    2.0152 H   0  0  0  0  0  0  0  0  0  0  0  0
    0.9172    3.4314    2.3624 H   0  0  0  0  0  0  0  0  0  0  0  0
    0.3414    3.7499    0.7095 H   0  0  0  0  0  0  0  0  0  0  0  0
  5  6  2  0  0  0  0
  5  7  1  0  0  0  0
  2  3  1  0  0  0  0
  2  4  1  0  0  0  0
  2  5  1  0  0  0  0
  1  2  1  0  0  0  0
 22 23  2  0  0  0  0
 22 24  1  0  0  0  0
 20 21  1  0  0  0  0
 19 20  1  0  0  0  0
 17 18  1  0  0  0  0
 17 19  2  0  0  0  0
 15 16  1  0  0  0  0
 15 17  1  0  0  0  0
 14 15  1  0  0  0  0
 14 20  2  0  0  0  0
 11 12  1  0  0  0  0
 11 13  1  0  0  0  0
 11 14  1  0  0  0  0
  9 10  1  0  0  0  0
  9 11  1  0  0  0  0
  9 22  1  0  0  0  0
  7  8  1  0  0  0  0
  7  9  1  0  0  0  0
 26 27  1  0  0  0  0
 26 28  1  0  0  0  0
 26 29  1  0  0  0  0
 24 25  1  0  0  0  0
 24 26  1  0  0  0  0
M  END
$$$$
default_name
  -OEChem-02102213163D

 29 29  0     1  0  0  0  0  0999 V2000
   -3.6042   -3.5728    1.4576 H   0  0  0  0  0  0  0  0  0  0  0  0
   -3.5202   -2.6488    0.8866 C   0  0  0  0  0  0  0  0  0  0  0  0
   -4.2052   -1.9048    1.2896 H   0  0  0  0  0  0  0  0  0  0  0  0
   -3.7552   -2.8428   -0.1584 H   0  0  0  0  0  0  0  0  0  0  0  0
   -2.1052   -2.1358    0.9946 C   0  0  0  0  0  0  0  0  0  0  0  0
   -1.2852   -2.7288    1.6826 O   0  0  0  0  0  0  0  0  0  0  0  0
   -1.8202   -1.0288    0.3146 N   0  0  0  0  0  0  0  0  0  0  0  0
   -2.5542   -0.5788   -0.2104 H   0  0  0  0  0  0  0  0  0  0  0  0
   -0.5102   -0.3728    0.3086 C   0  0  1  0  0  0  0  0  0  0  0  0
    0.0719   -0.7468    1.1521 H   0  0  0  0  0  0  0  0  0  0  0  0
    0.2338   -0.7427   -0.9878 C   0  0  0  0  0  0  0  0  0  0  0  0
    0.0116    0.0035   -1.7527 H   0  0  0  0  0  0  0  0  0  0  0  0
    1.3088   -0.7206   -0.7997 H   0  0  0  0  0  0  0  0  0  0  0  0
   -0.1294   -2.1027   -1.5252 C   0  0  0  0  0  0  0  0  0  0  0  0
   -0.5262   -3.1940   -0.7824 N   0  0  0  0  0  0  0  0  0  0  0  0
   -0.5524   -3.2505    0.2247 H   0  0  0  0  0  0  0  0  0  0  0  0
   -0.8679   -4.1748   -1.6349 C   0  0  0  0  0  0  0  0  0  0  0  0
   -1.2158   -5.1599   -1.3487 H   0  0  0  0  0  0  0  0  0  0  0  0
   -0.7210   -3.7610   -2.9019 N   0  0  0  0  0  0  0  0  0  0  0  0
   -0.2483   -2.4473   -2.8452 C   0  0  0  0  0  0  0  0  0  0  0  0
   -0.0469   -1.8035   -3.6916 H   0  0  0  0  0  0  0  0  0  0  0  0
   -0.6600    1.1486    0.4782 C   0  0  0  0  0  0  0  0  0  0  0  0
   -1.5001    1.7648   -0.1771 O   0  0  0  0  0  0  0  0  0  0  0  0
    0.1634    1.7559    1.3418 N   0  0  0  0  0  0  0  0  0  0  0  0
    0.8618    1.1897    1.8008 H   0  0  0  0  0  0  0  0  0  0  0  0
    0.1509    3.1886    1.6256 C   0  0  0  0  0  0  0  0  0  0  0  0
   -0.8272    3.4794    2.0152 H   0  0  0  0  0  0  0  0  0  0  0  0
    0.9172    3.4314    2.3624 H   0  0  0  0  0  0  0  0  0  0  0  0
    0.3414    3.7499    0.7095 H   0  0  0  0  0  0  0  0  0  0  0  0
  5  6  2  0  0  0  0
  5  7  1  0  0  0  0
  2  3  1  0  0  0  0
  2  4  1  0  0  0  0
  2  5  1  0  0  0  0
  1  2  1  0  0  0  0
 22 23  2  0  0  0  0
 22 24  1  0  0  0  0
 20 21  1  0  0  0  0
 19 20  1  0  0  0  0
 17 18  1  0  0  0  0
 17 19  2  0  0  0  0
 15 16  1  0  0  0  0
 15 17  1  0  0  0  0
 14 15  1  0  0  0  0
 14 20  2  0  0  0  0
 11 12  1  0  0  0  0
 11 13  1  0  0  0  0
 11 14  1  0  0  0  0
  9 10  1  0  0  0  0
  9 11  1  0  0  0  0
  9 22  1  0  0  0  0
  7  8  1  0  0  0  0
  7  9  1  0  0  0  0
 26 27  1  0  0  0  0
 26 28  1  0  0  0  0
 26 29  1  0  0  0  0
 24 25  1  0  0  0  0
 24 26  1  0  0  0  0
M  END
$$$$
default_name
  -OEChem-02102213163D

 29 29  0     1  0  0  0  0  0999 V2000
   -3.6042   -3.5728    1.4576 H   0  0  0  0  0  0  0  0  0  0  0  0
   -3.5202   -2.6488    0.8866 C   0  0  0  0  0  0  0  0  0  0  0  0
   -4.2052   -1.9048    1.2896 H   0  0  0  0  0  0  0  0  0  0  0  0
   -3.7552   -2.8428   -0.1584 H   0  0  0  0  0  0  0  0  0  0  0  0
   -2.1052   -2.1358    0.9946 C   0  0  0  0  0  0  0  0  0  0  0  0
   -1.2852   -2.7288    1.6826 O   0  0  0  0  0  0  0  0  0  0  0  0
   -1.8202   -1.0288    0.3146 N   0  0  0  0  0  0  0  0  0  0  0  0
   -2.5542   -0.5788   -0.2104 H   0  0  0  0  0  0  0  0  0  0  0  0
   -0.5102   -0.3728    0.3086 C   0  0  1  0  0  0  0  0  0  0  0  0
    0.0719   -0.7468    1.1521 H   0  0  0  0  0  0  0  0  0  0  0  0
    0.2338   -0.7427   -0.9878 C   0  0  0  0  0  0  0  0  0  0  0  0
    0.0116    0.0035   -1.7527 H   0  0  0  0  0  0  0  0  0  0  0  0
    1.3088   -0.7206   -0.7997 H   0  0  0  0  0  0  0  0  0  0  0  0
   -0.1294   -2.1027   -1.5252 C   0  0  0  0  0  0  0  0  0  0  0  0
   -0.7936   -3.0989   -0.8422 N   0  0  0  0  0  0  0  0  0  0  0  0
   -1.0570   -3.0789    0.1316 H   0  0  0  0  0  0  0  0  0  0  0  0
   -1.0255   -4.1071   -1.6997 C   0  0  0  0  0  0  0  0  0  0  0  0
   -1.5265   -5.0354   -1.4537 H   0  0  0  0  0  0  0  0  0  0  0  0
   -0.5497   -3.8013   -2.9156 N   0  0  0  0  0  0  0  0  0  0  0  0
    0.0257   -2.5319   -2.8163 C   0  0  0  0  0  0  0  0  0  0  0  0
    0.4801   -1.9714   -3.6230 H   0  0  0  0  0  0  0  0  0  0  0  0
   -0.6600    1.1486    0.4782 C   0  0  0  0  0  0  0  0  0  0  0  0
   -1.5001    1.7648   -0.1771 O   0  0  0  0  0  0  0  0  0  0  0  0
    0.1634    1.7559    1.3418 N   0  0  0  0  0  0  0  0  0  0  0  0
    0.8618    1.1897    1.8008 H   0  0  0  0  0  0  0  0  0  0  0  0
    0.1509    3.1886    1.6256 C   0  0  0  0  0  0  0  0  0  0  0  0
   -0.8272    3.4794    2.0152 H   0  0  0  0  0  0  0  0  0  0  0  0
    0.9172    3.4314    2.3624 H   0  0  0  0  0  0  0  0  0  0  0  0
    0.3414    3.7499    0.7095 H   0  0  0  0  0  0  0  0  0  0  0  0
  5  6  2  0  0  0  0
  5  7  1  0  0  0  0
  2  3  1  0  0  0  0
  2  4  1  0  0  0  0
  2  5  1  0  0  0  0
  1  2  1  0  0  0  0
 22 23  2  0  0  0  0
 22 24  1  0  0  0  0
 20 21  1  0  0  0  0
 19 20  1  0  0  0  0
 17 18  1  0  0  0  0
 17 19  2  0  0  0  0
 15 16  1  0  0  0  0
 15 17  1  0  0  0  0
 14 15  1  0  0  0  0
 14 20  2  0  0  0  0
 11 12  1  0  0  0  0
 11 13  1  0  0  0  0
 11 14  1  0  0  0  0
  9 10  1  0  0  0  0
  9 11  1  0  0  0  0
  9 22  1  0  0  0  0
  7  8  1  0  0  0  0
  7  9  1  0  0  0  0
 26 27  1  0  0  0  0
 26 28  1  0  0  0  0
 26 29  1  0  0  0  0
 24 25  1  0  0  0  0
 24 26  1  0  0  0  0
M  END
$$$$
default_name
  -OEChem-02102213163D

 29 29  0     1  0  0  0  0  0999 V2000
   -3.6042   -3.5728    1.4576 H   0  0  0  0  0  0  0  0  0  0  0  0
   -3.5202   -2.6488    0.8866 C   0  0  0  0  0  0  0  0  0  0  0  0
   -4.2052   -1.9048    1.2896 H   0  0  0  0  0  0  0  0  0  0  0  0
   -3.7552   -2.8428   -0.1584 H   0  0  0  0  0  0  0  0  0  0  0  0
   -2.1052   -2.1358    0.9946 C   0  0  0  0  0  0  0  0  0  0  0  0
   -1.2852   -2.7288    1.6826 O   0  0  0  0  0  0  0  0  0  0  0  0
   -1.8202   -1.0288    0.3146 N   0  0  0  0  0  0  0  0  0  0  0  0
   -2.5542   -0.5788   -0.2104 H   0  0  0  0  0  0  0  0  0  0  0  0
   -0.5102   -0.3728    0.3086 C   0  0  1  0  0  0  0  0  0  0  0  0
    0.0719   -0.7468    1.1521 H   0  0  0  0  0  0  0  0  0  0  0  0
    0.2338   -0.7427   -0.9878 C   0  0  0  0  0  0  0  0  0  0  0  0
    0.0116    0.0035   -1.7527 H   0  0  0  0  0  0  0  0  0  0  0  0
    1.3088   -0.7206   -0.7997 H   0  0  0  0  0  0  0  0  0  0  0  0
   -0.1294   -2.1027   -1.5252 C   0  0  0  0  0  0  0  0  0  0  0  0
   -1.0292   -2.9862   -0.9684 N   0  0  0  0  0  0  0  0  0  0  0  0
   -1.5067   -2.8725   -0.0868 H   0  0  0  0  0  0  0  0  0  0  0  0
   -1.1563   -4.0312   -1.8034 C   0  0  0  0  0  0  0  0  0  0  0  0
   -1.7906   -4.8931   -1.6355 H   0  0  0  0  0  0  0  0  0  0  0  0
   -0.3849   -3.8569   -2.8863 N   0  0  0  0  0  0  0  0  0  0  0  0
    0.2757   -2.6371   -2.7192 C   0  0  0  0  0  0  0  0  0  0  0  0
    0.9575   -2.1778   -3.4232 H   0  0  0  0  0  0  0  0  0  0  0  0
   -0.6600    1.1486    0.4782 C   0  0  0  0  0  0  0  0  0  0  0  0
   -1.5001    1.7648   -0.1771 O   0  0  0  0  0  0  0  0  0  0  0  0
    0.1634    1.7559    1.3418 N   0  0  0  0  0  0  0  0  0  0  0  0
    0.8618    1.1897    1.8008 H   0  0  0  0  0  0  0  0  0  0  0  0
    0.1509    3.1886    1.6256 C   0  0  0  0  0  0  0  0  0  0  0  0
   -0.8272    3.4794    2.0152 H   0  0  0  0  0  0  0  0  0  0  0  0
    0.9172    3.4314    2.3624 H   0  0  0  0  0  0  0  0  0  0  0  0
    0.3414    3.7499    0.7095 H   0  0  0  0  0  0  0  0  0  0  0  0
  5  6  2  0  0  0  0
  5  7  1  0  0  0  0
  2  3  1  0  0  0  0
  2  4  1  0  0  0  0
  2  5  1  0  0  0  0
  1  2  1  0  0  0  0
 22 23  2  0  0  0  0
 22 24  1  0  0  0  0
 20 21  1  0  0  0  0
 19 20  1  0  0  0  0
 17 18  1  0  0  0  0
 17 19  2  0  0  0  0
 15 16  1  0  0  0  0
 15 17  1  0  0  0  0
 14 15  1  0  0  0  0
 14 20  2  0  0  0  0
 11 12  1  0  0  0  0
 11 13  1  0  0  0  0
 11 14  1  0  0  0  0
  9 10  1  0  0  0  0
  9 11  1  0  0  0  0
  9 22  1  0  0  0  0
  7  8  1  0  0  0  0
  7  9  1  0  0  0  0
 26 27  1  0  0  0  0
 26 28  1  0  0  0  0
 26 29  1  0  0  0  0
 24 25  1  0  0  0  0
 24 26  1  0  0  0  0
M  END
$$$$
default_name
  -OEChem-02102213163D

 29 29  0     1  0  0  0  0  0999 V2000
   -3.6042   -3.5728    1.4576 H   0  0  0  0  0  0  0  0  0  0  0  0
   -3.5202   -2.6488    0.8866 C   0  0  0  0  0  0  0  0  0  0  0  0
   -4.2052   -1.9048    1.2896 H   0  0  0  0  0  0  0  0  0  0  0  0
   -3.7552   -2.8428   -0.1584 H   0  0  0  0  0  0  0  0  0  0  0  0
   -2.1052   -2.1358    0.9946 C   0  0  0  0  0  0  0  0  0  0  0  0
   -1.2852   -2.7288    1.6826 O   0  0  0  0  0  0  0  0  0  0  0  0
   -1.8202   -1.0288    0.3146 N   0  0  0  0  0  0  0  0  0  0  0  0
   -2.5542   -0.5788   -0.2104 H   0  0  0  0  0  0  0  0  0  0  0  0
   -0.5102   -0.3728    0.3086 C   0  0  1  0  0  0  0  0  0  0  0  0
    0.0719   -0.7468    1.1521 H   0  0  0  0  0  0  0  0  0  0  0  0
    0.2338   -0.7427   -0.9878 C   0  0  0  0  0  0  0  0  0  0  0  0
    0.0116    0.0035   -1.7527 H   0  0  0  0  0  0  0  0  0  0  0  0
    1.3088   -0.7206   -0.7997 H   0  0  0  0  0  0  0  0  0  0  0  0
   -0.1294   -2.1027   -1.5252 C   0  0  0  0  0  0  0  0  0  0  0  0
   -1.2168   -2.8634   -1.1524 N   0  0  0  0  0  0  0  0  0  0  0  0
   -1.8711   -2.6452   -0.4158 H   0  0  0  0  0  0  0  0  0  0  0  0
   -1.2515   -3.9523   -1.9388 C   0  0  0  0  0  0  0  0  0  0  0  0
   -1.9900   -4.7425   -1.8816 H   0  0  0  0  0  0  0  0  0  0  0  0
   -0.2376   -3.9240   -2.8161 N   0  0  0  0  0  0  0  0  0  0  0  0
    0.4849   -2.7557   -2.5603 C   0  0  0  0  0  0  0  0  0  0  0  0
    1.3530   -2.4089   -3.1058 H   0  0  0  0  0  0  0  0  0  0  0  0
   -0.6600    1.1486    0.4782 C   0  0  0  0  0  0  0  0  0  0  0  0
   -1.5001    1.7648   -0.1771 O   0  0  0  0  0  0  0  0  0  0  0  0
    0.1634    1.7559    1.3418 N   0  0  0  0  0  0  0  0  0  0  0  0
    0.8618    1.1897    1.8008 H   0  0  0  0  0  0  0  0  0  0  0  0
    0.1509    3.1886    1.6256 C   0  0  0  0  0  0  0  0  0  0  0  0
   -0.8272    3.4794    2.0152 H   0  0  0  0  0  0  0  0  0  0  0  0
    0.9172    3.4314    2.3624 H   0  0  0  0  0  0  0  0  0  0  0  0
    0.3414    3.7499    0.7095 H   0  0  0  0  0  0  0  0  0  0  0  0
  5  6  2  0  0  0  0
  5  7  1  0  0  0  0
  2  3  1  0  0  0  0
  2  4  1  0  0  0  0
  2  5  1  0  0  0  0
  1  2  1  0  0  0  0
 22 23  2  0  0  0  0
 22 24  1  0  0  0  0
 20 21  1  0  0  0  0
 19 20  1  0  0  0  0
 17 18  1  0  0  0  0
 17 19  2  0  0  0  0
 15 16  1  0  0  0  0
 15 17  1  0  0  0  0
 14 15  1  0  0  0  0
 14 20  2  0  0  0  0
 11 12  1  0  0  0  0
 11 13  1  0  0  0  0
 11 14  1  0  0  0  0
  9 10  1  0  0  0  0
  9 11  1  0  0  0  0
  9 22  1  0  0  0  0
  7  8  1  0  0  0  0
  7  9  1  0  0  0  0
 26 27  1  0  0  0  0
 26 28  1  0  0  0  0
 26 29  1  0  0  0  0
 24 25  1  0  0  0  0
 24 26  1  0  0  0  0
M  END
$$$$
default_name
  -OEChem-02102213163D

 29 29  0     1  0  0  0  0  0999 V2000
   -3.6042   -3.5728    1.4576 H   0  0  0  0  0  0  0  0  0  0  0  0
   -3.5202   -2.6488    0.8866 C   0  0  0  0  0  0  0  0  0  0  0  0
   -4.2052   -1.9048    1.2896 H   0  0  0  0  0  0  0  0  0  0  0  0
   -3.7552   -2.8428   -0.1584 H   0  0  0  0  0  0  0  0  0  0  0  0
   -2.1052   -2.1358    0.9946 C   0  0  0  0  0  0  0  0  0  0  0  0
   -1.2852   -2.7288    1.6826 O   0  0  0  0  0  0  0  0  0  0  0  0
   -1.8202   -1.0288    0.3146 N   0  0  0  0  0  0  0  0  0  0  0  0
   -2.5542   -0.5788   -0.2104 H   0  0  0  0  0  0  0  0  0  0  0  0
   -0.5102   -0.3728    0.3086 C   0  0  1  0  0  0  0  0  0  0  0  0
    0.0719   -0.7468    1.1521 H   0  0  0  0  0  0  0  0  0  0  0  0
    0.2338   -0.7427   -0.9878 C   0  0  0  0  0  0  0  0  0  0  0  0
    0.0116    0.0035   -1.7527 H   0  0  0  0  0  0  0  0  0  0  0  0
    1.3088   -0.7206   -0.7997 H   0  0  0  0  0  0  0  0  0  0  0  0
   -0.1294   -2.1027   -1.5252 C   0  0  0  0  0  0  0  0  0  0  0  0
   -1.3438   -2.7389   -1.3815 N   0  0  0  0  0  0  0  0  0  0  0  0
   -2.1252   -2.4125   -0.8329 H   0  0  0  0  0  0  0  0  0  0  0  0
   -1.3045   -3.8757   -2.0968 C   0  0  0  0  0  0  0  0  0  0  0  0
   -2.1114   -4.5941   -2.1753 H   0  0  0  0  0  0  0  0  0  0  0  0
   -0.1180   -3.9981   -2.7096 N   0  0  0  0  0  0  0  0  0  0  0  0
    0.6388   -2.8797   -2.3506 C   0  0  0  0  0  0  0  0  0  0  0  0
    1.6395   -2.6488   -2.6924 H   0  0  0  0  0  0  0  0  0  0  0  0
   -0.6600    1.1486    0.4782 C   0  0  0  0  0  0  0  0  0  0  0  0
   -1.5001    1.7648   -0.1771 O   0  0  0  0  0  0  0  0  0  0  0  0
    0.1634    1.7559    1.3418 N   0  0  0  0  0  0  0  0  0  0  0  0
    0.8618    1.1897    1.8008 H   0  0  0  0  0  0  0  0  0  0  0  0
    0.1509    3.1886    1.6256 C   0  0  0  0  0  0  0  0  0  0  0  0
   -0.8272    3.4794    2.0152 H   0  0  0  0  0  0  0  0  0  0  0  0
    0.9172    3.4314    2.3624 H   0  0  0  0  0  0  0  0  0  0  0  0
    0.3414    3.7499    0.7095 H   0  0  0  0  0  0  0  0  0  0  0  0
  5  6  2  0  0  0  0
  5  7  1  0  0  0  0
  2  3  1  0  0  0  0
  2  4  1  0  0  0  0
  2  5  1  0  0  0  0
  1  2  1  0  0  0  0
 22 23  2  0  0  0  0
 22 24  1  0  0  0  0
 20 21  1  0  0  0  0
 19 20  1  0  0  0  0
 17 18  1  0  0  0  0
 17 19  2  0  0  0  0
 15 16  1  0  0  0  0
 15 17  1  0  0  0  0
 14 15  1  0  0  0  0
 14 20  2  0  0  0  0
 11 12  1  0  0  0  0
 11 13  1  0  0  0  0
 11 14  1  0  0  0  0
  9 10  1  0  0  0  0
  9 11  1  0  0  0  0
  9 22  1  0  0  0  0
  7  8  1  0  0  0  0
  7  9  1  0  0  0  0
 26 27  1  0  0  0  0
 26 28  1  0  0  0  0
 26 29  1  0  0  0  0
 24 25  1  0  0  0  0
 24 26  1  0  0  0  0
M  END
$$$$
default_name
  -OEChem-02102213163D

 29 29  0     1  0  0  0  0  0999 V2000
   -3.6042   -3.5728    1.4576 H   0  0  0  0  0  0  0  0  0  0  0  0
   -3.5202   -2.6488    0.8866 C   0  0  0  0  0  0  0  0  0  0  0  0
   -4.2052   -1.9048    1.2896 H   0  0  0  0  0  0  0  0  0  0  0  0
   -3.7552   -2.8428   -0.1584 H   0  0  0  0  0  0  0  0  0  0  0  0
   -2.1052   -2.1358    0.9946 C   0  0  0  0  0  0  0  0  0  0  0  0
   -1.2852   -2.7288    1.6826 O   0  0  0  0  0  0  0  0  0  0  0  0
   -1.8202   -1.0288    0.3146 N   0  0  0  0  0  0  0  0  0  0  0  0
   -2.5542   -0.5788   -0.2104 H   0  0  0  0  0  0  0  0  0  0  0  0
   -0.5102   -0.3728    0.3086 C   0  0  1  0  0  0  0  0  0  0  0  0
    0.0719   -0.7468    1.1521 H   0  0  0  0  0  0  0  0  0  0  0  0
    0.2338   -0.7427   -0.9878 C   0  0  0  0  0  0  0  0  0  0  0  0
    0.0116    0.0035   -1.7527 H   0  0  0  0  0  0  0  0  0  0  0  0
    1.3088   -0.7206   -0.7997 H   0  0  0  0  0  0  0  0  0  0  0  0
   -0.1294   -2.1027   -1.5252 C   0  0  0  0  0  0  0  0  0  0  0  0
   -1.4014   -2.6213   -1.6403 N   0  0  0  0  0  0  0  0  0  0  0  0
   -2.2517   -2.1904   -1.3096 H   0  0  0  0  0  0  0  0  0  0  0  0
   -1.3117   -3.8067   -2.2666 C   0  0  0  0  0  0  0  0  0  0  0  0
   -2.1462   -4.4578   -2.4967 H   0  0  0  0  0  0  0  0  0  0  0  0
   -0.0341   -4.0740   -2.5742 N   0  0  0  0  0  0  0  0  0  0  0  0
    0.7271   -3.0005   -2.1044 C   0  0  0  0  0  0  0  0  0  0  0  0
    1.7975   -2.8811   -2.2112 H   0  0  0  0  0  0  0  0  0  0  0  0
   -0.6600    1.1486    0.4782 C   0  0  0  0  0  0  0  0  0  0  0  0
   -1.5001    1.7648   -0.1771 O   0  0  0  0  0  0  0  0  0  0  0  0
    0.1634    1.7559    1.3418 N   0  0  0  0  0  0  0  0  0  0  0  0
    0.8618    1.1897    1.8008 H   0  0  0  0  0  0  0  0  0  0  0  0
    0.1509    3.1886    1.6256 C   0  0  0  0  0  0  0  0  0  0  0  0
   -0.8272    3.4794    2.0152 H   0  0  0  0  0  0  0  0  0  0  0  0
    0.9172    3.4314    2.3624 H   0  0  0  0  0  0  0  0  0  0  0  0
    0.3414    3.7499    0.7095 H   0  0  0  0  0  0  0  0  0  0  0  0
  5  6  2  0  0  0  0
  5  7  1  0  0  0  0
  2  3  1  0  0  0  0
  2  4  1  0  0  0  0
  2  5  1  0  0  0  0
  1  2  1  0  0  0  0
 22 23  2  0  0  0  0
 22 24  1  0  0  0  0
 20 21  1  0  0  0  0
 19 20  1  0  0  0  0
 17 18  1  0  0  0  0
 17 19  2  0  0  0  0
 15 16  1  0  0  0  0
 15 17  1  0  0  0  0
 14 15  1  0  0  0  0
 14 20  2  0  0  0  0
 11 12  1  0  0  0  0
 11 13  1  0  0  0  0
 11 14  1  0  0  0  0
  9 10  1  0  0  0  0
  9 11  1  0  0  0  0
  9 22  1  0  0  0  0
  7  8  1  0  0  0  0
  7  9  1  0  0  0  0
 26 27  1  0  0  0  0
 26 28  1  0  0  0  0
 26 29  1  0  0  0  0
 24 25  1  0  0  0  0
 24 26  1  0  0  0  0
M  END
$$$$
default_name
  -OEChem-02102213163D

 29 29  0     1  0  0  0  0  0999 V2000
   -3.6042   -3.5728    1.4576 H   0  0  0  0  0  0  0  0  0  0  0  0
   -3.5202   -2.6488    0.8866 C   0  0  0  0  0  0  0  0  0  0  0  0
   -4.2052   -1.9048    1.2896 H   0  0  0  0  0  0  0  0  0  0  0  0
   -3.7552   -2.8428   -0.1584 H   0  0  0  0  0  0  0  0  0  0  0  0
   -2.1052   -2.1358    0.9946 C   0  0  0  0  0  0  0  0  0  0  0  0
   -1.2852   -2.7288    1.6826 O   0  0  0  0  0  0  0  0  0  0  0  0
   -1.8202   -1.0288    0.3146 N   0  0  0  0  0  0  0  0  0  0  0  0
   -2.5542   -0.5788   -0.2104 H   0  0  0  0  0  0  0  0  0  0  0  0
   -0.5102   -0.3728    0.3086 C   0  0  1  0  0  0  0  0  0  0  0  0
    0.0719   -0.7468    1.1521 H   0  0  0  0  0  0  0  0  0  0  0  0
    0.2338   -0.7427   -0.9878 C   0  0  0  0  0  0  0  0  0  0  0  0
    0.0116    0.0035   -1.7527 H   0  0  0  0  0  0  0  0  0  0  0  0
    1.3088   -0.7206   -0.7997 H   0  0  0  0  0  0  0  0  0  0  0  0
   -0.1294   -2.1027   -1.5252 C   0  0  0  0  0  0  0  0  0  0  0  0
   -1.3857   -2.5185   -1.9111 N   0  0  0  0  0  0  0  0  0  0  0  0
   -2.2421   -1.9938   -1.8135 H   0  0  0  0  0  0  0  0  0  0  0  0
   -1.2727   -3.7499   -2.4366 C   0  0  0  0  0  0  0  0  0  0  0  0
   -2.0922   -4.3430   -2.8237 H   0  0  0  0  0  0  0  0  0  0  0  0
    0.0082   -4.1466   -2.4190 N   0  0  0  0  0  0  0  0  0  0  0  0
    0.7437   -3.1101   -1.8384 C   0  0  0  0  0  0  0  0  0  0  0  0
    1.8163   -3.0901   -1.6949 H   0  0  0  0  0  0  0  0  0  0  0  0
   -0.6600    1.1486    0.4782 C   0  0  0  0  0  0  0  0  0  0  0  0
   -1.5001    1.7648   -0.1771 O   0  0  0  0  0  0  0  0  0  0  0  0
    0.1634    1.7559    1.3418 N   0  0  0  0  0  0  0  0  0  0  0  0
    0.8618    1.1897    1.8008 H   0  0  0  0  0  0  0  0  0  0  0  0
    0.1509    3.1886    1.6256 C   0  0  0  0  0  0  0  0  0  0  0  0
   -0.8272    3.4794    2.0152 H   0  0  0  0  0  0  0  0  0  0  0  0
    0.9172    3.4314    2.3624 H   0  0  0  0  0  0  0  0  0  0  0  0
    0.3414    3.7499    0.7095 H   0  0  0  0  0  0  0  0  0  0  0  0
  5  6  2  0  0  0  0
  5  7  1  0  0  0  0
  2  3  1  0  0  0  0
  2  4  1  0  0  0  0
  2  5  1  0  0  0  0
  1  2  1  0  0  0  0
 22 23  2  0  0  0  0
 22 24  1  0  0  0  0
 20 21  1  0  0  0  0
 19 20  1  0  0  0  0
 17 18  1  0  0  0  0
 17 19  2  0  0  0  0
 15 16  1  0  0  0  0
 15 17  1  0  0  0  0
 14 15  1  0  0  0  0
 14 20  2  0  0  0  0
 11 12  1  0  0  0  0
 11 13  1  0  0  0  0
 11 14  1  0  0  0  0
  9 10  1  0  0  0  0
  9 11  1  0  0  0  0
  9 22  1  0  0  0  0
  7  8  1  0  0  0  0
  7  9  1  0  0  0  0
 26 27  1  0  0  0  0
 26 28  1  0  0  0  0
 26 29  1  0  0  0  0
 24 25  1  0  0  0  0
 24 26  1  0  0  0  0
M  END
$$$$
default_name
  -OEChem-02102213163D

 29 29  0     1  0  0  0  0  0999 V2000
   -3.6042   -3.5728    1.4576 H   0  0  0  0  0  0  0  0  0  0  0  0
   -3.5202   -2.6488    0.8866 C   0  0  0  0  0  0  0  0  0  0  0  0
   -4.2052   -1.9048    1.2896 H   0  0  0  0  0  0  0  0  0  0  0  0
   -3.7552   -2.8428   -0.1584 H   0  0  0  0  0  0  0  0  0  0  0  0
   -2.1052   -2.1358    0.9946 C   0  0  0  0  0  0  0  0  0  0  0  0
   -1.2852   -2.7288    1.6826 O   0  0  0  0  0  0  0  0  0  0  0  0
   -1.8202   -1.0288    0.3146 N   0  0  0  0  0  0  0  0  0  0  0  0
   -2.5542   -0.5788   -0.2104 H   0  0  0  0  0  0  0  0  0  0  0  0
   -0.5102   -0.3728    0.3086 C   0  0  1  0  0  0  0  0  0  0  0  0
    0.0719   -0.7468    1.1521 H   0  0  0  0  0  0  0  0  0  0  0  0
    0.2338   -0.7427   -0.9878 C   0  0  0  0  0  0  0  0  0  0  0  0
    0.0116    0.0035   -1.7527 H   0  0  0  0  0  0  0  0  0  0  0  0
    1.3088   -0.7206   -0.7997 H   0  0  0  0  0  0  0  0  0  0  0  0
   -0.1294   -2.1027   -1.5252 C   0  0  0  0  0  0  0  0  0  0  0  0
   -1.2978   -2.4375   -2.1754 N   0  0  0  0  0  0  0  0  0  0  0  0
   -2.0969   -1.8363   -2.3103 H   0  0  0  0  0  0  0  0  0  0  0  0
   -1.1900   -3.7094   -2.5952 C   0  0  0  0  0  0  0  0  0  0  0  0
   -1.9531   -4.2575   -3.1341 H   0  0  0  0  0  0  0  0  0  0  0  0
    0.0062   -4.2109   -2.2548 N   0  0  0  0  0  0  0  0  0  0  0  0
    0.6875   -3.2008   -1.5707 C   0  0  0  0  0  0  0  0  0  0  0  0
    1.6946   -3.2615   -1.1788 H   0  0  0  0  0  0  0  0  0  0  0  0
   -0.6600    1.1486    0.4782 C   0  0  0  0  0  0  0  0  0  0  0  0
   -1.5001    1.7648   -0.1771 O   0  0  0  0  0  0  0  0  0  0  0  0
    0.1634    1.7559    1.3418 N   0  0  0  0  0  0  0  0  0  0  0  0
    0.8618    1.1897    1.8008 H   0  0  0  0  0  0  0  0  0  0  0  0
    0.1509    3.1886    1.6256 C   0  0  0  0  0  0  0  0  0  0  0  0
   -0.8272    3.4794    2.0152 H   0  0  0  0  0  0  0  0  0  0  0  0
    0.9172    3.4314    2.3624 H   0  0  0  0  0  0  0  0  0  0  0  0
    0.3414    3.7499    0.7095 H   0  0  0  0  0  0  0  0  0  0  0  0
  5  6  2  0  0  0  0
  5  7  1  0  0  0  0
  2  3  1  0  0  0  0
  2  4  1  0  0  0  0
  2  5  1  0  0  0  0
  1  2  1  0  0  0  0
 22 23  2  0  0  0  0
 22 24  1  0  0  0  0
 20 21  1  0  0  0  0
 19 20  1  0  0  0  0
 17 18  1  0  0  0  0
 17 19  2  0  0  0  0
 15 16  1  0  0  0  0
 15 17  1  0  0  0  0
 14 15  1  0  0  0  0
 14 20  2  0  0  0  0
 11 12  1  0  0  0  0
 11 13  1  0  0  0  0
 11 14  1  0  0  0  0
  9 10  1  0  0  0  0
  9 11  1  0  0  0  0
  9 22  1  0  0  0  0
  7  8  1  0  0  0  0
  7  9  1  0  0  0  0
 26 27  1  0  0  0  0
 26 28  1  0  0  0  0
 26 29  1  0  0  0  0
 24 25  1  0  0  0  0
 24 26  1  0  0  0  0
M  END
$$$$
default_name
  -OEChem-02102213163D

 29 29  0     1  0  0  0  0  0999 V2000
   -3.6042   -3.5728    1.4576 H   0  0  0  0  0  0  0  0  0  0  0  0
   -3.5202   -2.6488    0.8866 C   0  0  0  0  0  0  0  0  0  0  0  0
   -4.2052   -1.9048    1.2896 H   0  0  0  0  0  0  0  0  0  0  0  0
   -3.7552   -2.8428   -0.1584 H   0  0  0  0  0  0  0  0  0  0  0  0
   -2.1052   -2.1358    0.9946 C   0  0  0  0  0  0  0  0  0  0  0  0
   -1.2852   -2.7288    1.6826 O   0  0  0  0  0  0  0  0  0  0  0  0
   -1.8202   -1.0288    0.3146 N   0  0  0  0  0  0  0  0  0  0  0  0
   -2.5542   -0.5788   -0.2104 H   0  0  0  0  0  0  0  0  0  0  0  0
   -0.5102   -0.3728    0.3086 C   0  0  1  0  0  0  0  0  0  0  0  0
    0.0719   -0.7468    1.1521 H   0  0  0  0  0  0  0  0  0  0  0  0
    0.2338   -0.7427   -0.9878 C   0  0  0  0  0  0  0  0  0  0  0  0
    0.0116    0.0035   -1.7527 H   0  0  0  0  0  0  0  0  0  0  0  0
    1.3088   -0.7206   -0.7997 H   0  0  0  0  0  0  0  0  0  0  0  0
   -0.1294   -2.1027   -1.5252 C   0  0  0  0  0  0  0  0  0  0  0  0
   -1.1437   -2.3839   -2.4152 N   0  0  0  0  0  0  0  0  0  0  0  0
   -1.8261   -1.7286   -2.7660 H   0  0  0  0  0  0  0  0  0  0  0  0
   -1.0694   -3.6877   -2.7316 C   0  0  0  0  0  0  0  0  0  0  0  0
   -1.7383   -4.2072   -3.4068 H   0  0  0  0  0  0  0  0  0  0  0  0
   -0.0401   -4.2627   -2.0926 N   0  0  0  0  0  0  0  0  0  0  0  0
    0.5623   -3.2666   -1.3197 C   0  0  0  0  0  0  0  0  0  0  0  0
    1.4406   -3.3836   -0.6981 H   0  0  0  0  0  0  0  0  0  0  0  0
   -0.6600    1.1486    0.4782 C   0  0  0  0  0  0  0  0  0  0  0  0
   -1.5001    1.7648   -0.1771 O   0  0  0  0  0  0  0  0  0  0  0  0
    0.1634    1.7559    1.3418 N   0  0  0  0  0  0  0  0  0  0  0  0
    0.8618    1.1897    1.8008 H   0  0  0  0  0  0  0  0  0  0  0  0
    0.1509    3.1886    1.6256 C   0  0  0  0  0  0  0  0  0  0  0  0
   -0.8272    3.4794    2.0152 H   0  0  0  0  0  0  0  0  0  0  0  0
    0.9172    3.4314    2.3624 H   0  0  0  0  0  0  0  0  0  0  0  0
    0.3414    3.7499    0.7095 H   0  0  0  0  0  0  0  0  0  0  0  0
  5  6  2  0  0  0  0
  5  7  1  0  0  0  0
  2  3  1  0  0  0  0
  2  4  1  0  0  0  0
  2  5  1  0  0  0  0
  1  2  1  0  0  0  0
 22 23  2  0  0  0  0
 22 24  1  0  0  0  0
 20 21  1  0  0  0  0
 19 20  1  0  0  0  0
 17 18  1  0  0  0  0
 17 19  2  0  0  0  0
 15 16  1  0  0  0  0
 15 17  1  0  0  0  0
 14 15  1  0  0  0  0
 14 20  2  0  0  0  0
 11 12  1  0  0  0  0
 11 13  1  0  0  0  0
 11 14  1  0  0  0  0
  9 10  1  0  0  0  0
  9 11  1  0  0  0  0
  9 22  1  0  0  0  0
  7  8  1  0  0  0  0
  7  9  1  0  0  0  0
 26 27  1  0  0  0  0
 26 28  1  0  0  0  0
 26 29  1  0  0  0  0
 24 25  1  0  0  0  0
 24 26  1  0  0  0  0
M  END
$$$$
default_name
  -OEChem-02102213163D

 29 29  0     1  0  0  0  0  0999 V2000
   -3.6042   -3.5728    1.4576 H   0  0  0  0  0  0  0  0  0  0  0  0
   -3.5202   -2.6488    0.8866 C   0  0  0  0  0  0  0  0  0  0  0  0
   -4.2052   -1.9048    1.2896 H   0  0  0  0  0  0  0  0  0  0  0  0
   -3.7552   -2.8428   -0.1584 H   0  0  0  0  0  0  0  0  0  0  0  0
   -2.1052   -2.1358    0.9946 C   0  0  0  0  0  0  0  0  0  0  0  0
   -1.2852   -2.7288    1.6826 O   0  0  0  0  0  0  0  0  0  0  0  0
   -1.8202   -1.0288    0.3146 N   0  0  0  0  0  0  0  0  0  0  0  0
   -2.5542   -0.5788   -0.2104 H   0  0  0  0  0  0  0  0  0  0  0  0
   -0.5102   -0.3728    0.3086 C   0  0  1  0  0  0  0  0  0  0  0  0
    0.0719   -0.7468    1.1521 H   0  0  0  0  0  0  0  0  0  0  0  0
    0.2338   -0.7427   -0.9878 C   0  0  0  0  0  0  0  0  0  0  0  0
    0.0116    0.0035   -1.7527 H   0  0  0  0  0  0  0  0  0  0  0  0
    1.3088   -0.7206   -0.7997 H   0  0  0  0  0  0  0  0  0  0  0  0
   -0.1294   -2.1027   -1.5252 C   0  0  0  0  0  0  0  0  0  0  0  0
   -0.9339   -2.3613   -2.6142 N   0  0  0  0  0  0  0  0  0  0  0  0
   -1.4481   -1.6780   -3.1497 H   0  0  0  0  0  0  0  0  0  0  0  0
   -0.9190   -3.6864   -2.8365 C   0  0  0  0  0  0  0  0  0  0  0  0
   -1.4624   -4.1953   -3.6232 H   0  0  0  0  0  0  0  0  0  0  0  0
   -0.1275   -4.2982   -1.9435 N   0  0  0  0  0  0  0  0  0  0  0  0
    0.3766   -3.3029   -1.1023 C   0  0  0  0  0  0  0  0  0  0  0  0
    1.0717   -3.4481   -0.2854 H   0  0  0  0  0  0  0  0  0  0  0  0
   -0.6600    1.1486    0.4782 C   0  0  0  0  0  0  0  0  0  0  0  0
   -1.5001    1.7648   -0.1771 O   0  0  0  0  0  0  0  0  0  0  0  0
    0.1634    1.7559    1.3418 N   0  0  0  0  0  0  0  0  0  0  0  0
    0.8618    1.1897    1.8008 H   0  0  0  0  0  0  0  0  0  0  0  0
    0.1509    3.1886    1.6256 C   0  0  0  0  0  0  0  0  0  0  0  0
   -0.8272    3.4794    2.0152 H   0  0  0  0  0  0  0  0  0  0  0  0
    0.9172    3.4314    2.3624 H   0  0  0  0  0  0  0  0  0  0  0  0
    0.3414    3.7499    0.7095 H   0  0  0  0  0  0  0  0  0  0  0  0
  5  6  2  0  0  0  0
  5  7  1  0  0  0  0
  2  3  1  0  0  0  0
  2  4  1  0  0  0  0
  2  5  1  0  0  0  0
  1  2  1  0  0  0  0
 22 23  2  0  0  0  0
 22 24  1  0  0  0  0
 20 21  1  0  0  0  0
 19 20  1  0  0  0  0
 17 18  1  0  0  0  0
 17 19  2  0  0  0  0
 15 16  1  0  0  0  0
 15 17  1  0  0  0  0
 14 15  1  0  0  0  0
 14 20  2  0  0  0  0
 11 12  1  0  0  0  0
 11 13  1  0  0  0  0
 11 14  1  0  0  0  0
  9 10  1  0  0  0  0
  9 11  1  0  0  0  0
  9 22  1  0  0  0  0
  7  8  1  0  0  0  0
  7  9  1  0  0  0  0
 26 27  1  0  0  0  0
 26 28  1  0  0  0  0
 26 29  1  0  0  0  0
 24 25  1  0  0  0  0
 24 26  1  0  0  0  0
M  END
$$$$
default_name
  -OEChem-02102213163D

 29 29  0     1  0  0  0  0  0999 V2000
   -3.6042   -3.5728    1.4576 H   0  0  0  0  0  0  0  0  0  0  0  0
   -3.5202   -2.6488    0.8866 C   0  0  0  0  0  0  0  0  0  0  0  0
   -4.2052   -1.9048    1.2896 H   0  0  0  0  0  0  0  0  0  0  0  0
   -3.7552   -2.8428   -0.1584 H   0  0  0  0  0  0  0  0  0  0  0  0
   -2.1052   -2.1358    0.9946 C   0  0  0  0  0  0  0  0  0  0  0  0
   -1.2852   -2.7288    1.6826 O   0  0  0  0  0  0  0  0  0  0  0  0
   -1.8202   -1.0288    0.3146 N   0  0  0  0  0  0  0  0  0  0  0  0
   -2.5542   -0.5788   -0.2104 H   0  0  0  0  0  0  0  0  0  0  0  0
   -0.5102   -0.3728    0.3086 C   0  0  1  0  0  0  0  0  0  0  0  0
    0.0719   -0.7468    1.1521 H   0  0  0  0  0  0  0  0  0  0  0  0
    0.2338   -0.7427   -0.9878 C   0  0  0  0  0  0  0  0  0  0  0  0
    0.0116    0.0035   -1.7527 H   0  0  0  0  0  0  0  0  0  0  0  0
    1.3088   -0.7206   -0.7997 H   0  0  0  0  0  0  0  0  0  0  0  0
   -0.1294   -2.1027   -1.5252 C   0  0  0  0  0  0  0  0  0  0  0  0
   -0.6827   -2.3713   -2.7588 N   0  0  0  0  0  0  0  0  0  0  0  0
   -0.9887   -1.6879   -3.4351 H   0  0  0  0  0  0  0  0  0  0  0  0
   -0.7490   -3.7056   -2.9028 C   0  0  0  0  0  0  0  0  0  0  0  0
   -1.1443   -4.2229   -3.7685 H   0  0  0  0  0  0  0  0  0  0  0  0
   -0.2500   -4.3152   -1.8176 N   0  0  0  0  0  0  0  0  0  0  0  0
    0.1432   -3.3072   -0.9334 C   0  0  0  0  0  0  0  0  0  0  0  0
    0.6130   -3.4506    0.0310 H   0  0  0  0  0  0  0  0  0  0  0  0
   -0.6600    1.1486    0.4782 C   0  0  0  0  0  0  0  0  0  0  0  0
   -1.5001    1.7648   -0.1771 O   0  0  0  0  0  0  0  0  0  0  0  0
    0.1634    1.7559    1.3418 N   0  0  0  0  0  0  0  0  0  0  0  0
    0.8618    1.1897    1.8008 H   0  0  0  0  0  0  0  0  0  0  0  0
    0.1509    3.1886    1.6256 C   0  0  0  0  0  0  0  0  0  0  0  0
   -0.8272    3.4794    2.0152 H   0  0  0  0  0  0  0  0  0  0  0  0
    0.9172    3.4314    2.3624 H   0  0  0  0  0  0  0  0  0  0  0  0
    0.3414    3.7499    0.7095 H   0  0  0  0  0  0  0  0  0  0  0  0
  5  6  2  0  0  0  0
  5  7  1  0  0  0  0
  2  3  1  0  0  0  0
  2  4  1  0  0  0  0
  2  5  1  0  0  0  0
  1  2  1  0  0  0  0
 22 23  2  0  0  0  0
 22 24  1  0  0  0  0
 20 21  1  0  0  0  0
 19 20  1  0  0  0  0
 17 18  1  0  0  0  0
 17 19  2  0  0  0  0
 15 16  1  0  0  0  0
 15 17  1  0  0  0  0
 14 15  1  0  0  0  0
 14 20  2  0  0  0  0
 11 12  1  0  0  0  0
 11 13  1  0  0  0  0
 11 14  1  0  0  0  0
  9 10  1  0  0  0  0
  9 11  1  0  0  0  0
  9 22  1  0  0  0  0
  7  8  1  0  0  0  0
  7  9  1  0  0  0  0
 26 27  1  0  0  0  0
 26 28  1  0  0  0  0
 26 29  1  0  0  0  0
 24 25  1  0  0  0  0
 24 26  1  0  0  0  0
M  END
$$$$
default_name
  -OEChem-02102213163D

 29 29  0     1  0  0  0  0  0999 V2000
   -3.6042   -3.5728    1.4576 H   0  0  0  0  0  0  0  0  0  0  0  0
   -3.5202   -2.6488    0.8866 C   0  0  0  0  0  0  0  0  0  0  0  0
   -4.2052   -1.9048    1.2896 H   0  0  0  0  0  0  0  0  0  0  0  0
   -3.7552   -2.8428   -0.1584 H   0  0  0  0  0  0  0  0  0  0  0  0
   -2.1052   -2.1358    0.9946 C   0  0  0  0  0  0  0  0  0  0  0  0
   -1.2852   -2.7288    1.6826 O   0  0  0  0  0  0  0  0  0  0  0  0
   -1.8202   -1.0288    0.3146 N   0  0  0  0  0  0  0  0  0  0  0  0
   -2.5542   -0.5788   -0.2104 H   0  0  0  0  0  0  0  0  0  0  0  0
   -0.5102   -0.3728    0.3086 C   0  0  1  0  0  0  0  0  0  0  0  0
    0.0719   -0.7468    1.1521 H   0  0  0  0  0  0  0  0  0  0  0  0
    0.2338   -0.7427   -0.9878 C   0  0  0  0  0  0  0  0  0  0  0  0
    0.0116    0.0035   -1.7527 H   0  0  0  0  0  0  0  0  0  0  0  0
    1.3088   -0.7206   -0.7997 H   0  0  0  0  0  0  0  0  0  0  0  0
   -0.1294   -2.1027   -1.5252 C   0  0  0  0  0  0  0  0  0  0  0  0
   -0.4071   -2.4132   -2.8392 N   0  0  0  0  0  0  0  0  0  0  0  0
   -0.4792   -1.7577   -3.6029 H   0  0  0  0  0  0  0  0  0  0  0  0
   -0.5712   -3.7439   -2.9260 C   0  0  0  0  0  0  0  0  0  0  0  0
   -0.8057   -4.2879   -3.8328 H   0  0  0  0  0  0  0  0  0  0  0  0
   -0.3992   -4.3125   -1.7237 N   0  0  0  0  0  0  0  0  0  0  0  0
   -0.1222   -3.2793   -0.8246 C   0  0  0  0  0  0  0  0  0  0  0  0
    0.0958   -3.3909    0.2297 H   0  0  0  0  0  0  0  0  0  0  0  0
   -0.6600    1.1486    0.4782 C   0  0  0  0  0  0  0  0  0  0  0  0
   -1.5001    1.7648   -0.1771 O   0  0  0  0  0  0  0  0  0  0  0  0
    0.1634    1.7559    1.3418 N   0  0  0  0  0  0  0  0  0  0  0  0
    0.8618    1.1897    1.8008 H   0  0  0  0  0  0  0  0  0  0  0  0
    0.1509    3.1886    1.6256 C   0  0  0  0  0  0  0  0  0  0  0  0
   -0.8272    3.4794    2.0152 H   0  0  0  0  0  0  0  0  0  0  0  0
    0.9172    3.4314    2.3624 H   0  0  0  0  0  0  0  0  0  0  0  0
    0.3414    3.7499    0.7095 H   0  0  0  0  0  0  0  0  0  0  0  0
  5  6  2  0  0  0  0
  5  7  1  0  0  0  0
  2  3  1  0  0  0  0
  2  4  1  0  0  0  0
  2  5  1  0  0  0  0
  1  2  1  0  0  0  0
 22 23  2  0  0  0  0
 22 24  1  0  0  0  0
 20 21  1  0  0  0  0
 19 20  1  0  0  0  0
 17 18  1  0  0  0  0
 17 19  2  0  0  0  0
 15 16  1  0  0  0  0
 15 17  1  0  0  0  0
 14 15  1  0  0  0  0
 14 20  2  0  0  0  0
 11 12  1  0  0  0  0
 11 13  1  0  0  0  0
 11 14  1  0  0  0  0
  9 10  1  0  0  0  0
  9 11  1  0  0  0  0
  9 22  1  0  0  0  0
  7  8  1  0  0  0  0
  7  9  1  0  0  0  0
 26 27  1  0  0  0  0
 26 28  1  0  0  0  0
 26 29  1  0  0  0  0
 24 25  1  0  0  0  0
 24 26  1  0  0  0  0
M  END
$$$$
default_name
  -OEChem-02102213163D

 29 29  0     1  0  0  0  0  0999 V2000
   -3.6042   -3.5728    1.4576 H   0  0  0  0  0  0  0  0  0  0  0  0
   -3.5202   -2.6488    0.8866 C   0  0  0  0  0  0  0  0  0  0  0  0
   -4.2052   -1.9048    1.2896 H   0  0  0  0  0  0  0  0  0  0  0  0
   -3.7552   -2.8428   -0.1584 H   0  0  0  0  0  0  0  0  0  0  0  0
   -2.1052   -2.1358    0.9946 C   0  0  0  0  0  0  0  0  0  0  0  0
   -1.2852   -2.7288    1.6826 O   0  0  0  0  0  0  0  0  0  0  0  0
   -1.8202   -1.0288    0.3146 N   0  0  0  0  0  0  0  0  0  0  0  0
   -2.5542   -0.5788   -0.2104 H   0  0  0  0  0  0  0  0  0  0  0  0
   -0.5102   -0.3728    0.3086 C   0  0  1  0  0  0  0  0  0  0  0  0
    0.0719   -0.7468    1.1521 H   0  0  0  0  0  0  0  0  0  0  0  0
    0.2338   -0.7427   -0.9878 C   0  0  0  0  0  0  0  0  0  0  0  0
    0.0116    0.0035   -1.7527 H   0  0  0  0  0  0  0  0  0  0  0  0
    1.3088   -0.7206   -0.7997 H   0  0  0  0  0  0  0  0  0  0  0  0
   -0.1294   -2.1027   -1.5252 C   0  0  0  0  0  0  0  0  0  0  0  0
   -0.1260   -2.4840   -2.8498 N   0  0  0  0  0  0  0  0  0  0  0  0
    0.0457   -1.8826   -3.6416 H   0  0  0  0  0  0  0  0  0  0  0  0
   -0.3975   -3.7988   -2.9044 C   0  0  0  0  0  0  0  0  0  0  0  0
   -0.4696   -4.3860   -3.8117 H   0  0  0  0  0  0  0  0  0  0  0  0
   -0.5652   -4.2902   -1.6679 N   0  0  0  0  0  0  0  0  0  0  0  0
   -0.4014   -3.2211   -0.7832 C   0  0  0  0  0  0  0  0  0  0  0  0
   -0.4447   -3.2732    0.2970 H   0  0  0  0  0  0  0  0  0  0  0  0
   -0.6600    1.1486    0.4782 C   0  0  0  0  0  0  0  0  0  0  0  0
   -1.5001    1.7648   -0.1771 O   0  0  0  0  0  0  0  0  0  0  0  0
    0.1634    1.7559    1.3418 N   0  0  0  0  0  0  0  0  0  0  0  0
    0.8618    1.1897    1.8008 H   0  0  0  0  0  0  0  0  0  0  0  0
    0.1509    3.1886    1.6256 C   0  0  0  0  0  0  0  0  0  0  0  0
   -0.8272    3.4794    2.0152 H   0  0  0  0  0  0  0  0  0  0  0  0
    0.9172    3.4314    2.3624 H   0  0  0  0  0  0  0  0  0  0  0  0
    0.3414    3.7499    0.7095 H   0  0  0  0  0  0  0  0  0  0  0  0
  5  6  2  0  0  0  0
  5  7  1  0  0  0  0
  2  3  1  0  0  0  0
  2  4  1  0  0  0  0
  2  5  1  0  0  0  0
  1  2  1  0  0  0  0
 22 23  2  0  0  0  0
 22 24  1  0  0  0  0
 20 21  1  0  0  0  0
 19 20  1  0  0  0  0
 17 18  1  0  0  0  0
 17 19  2  0  0  0  0
 15 16  1  0  0  0  0
 15 17  1  0  0  0  0
 14 15  1  0  0  0  0
 14 20  2  0  0  0  0
 11 12  1  0  0  0  0
 11 13  1  0  0  0  0
 11 14  1  0  0  0  0
  9 10  1  0  0  0  0
  9 11  1  0  0  0  0
  9 22  1  0  0  0  0
  7  8  1  0  0  0  0
  7  9  1  0  0  0  0
 26 27  1  0  0  0  0
 26 28  1  0  0  0  0
 26 29  1  0  0  0  0
 24 25  1  0  0  0  0
 24 26  1  0  0  0  0
M  END
$$$$
default_name
  -OEChem-02102213163D

 29 29  0     1  0  0  0  0  0999 V2000
   -3.6042   -3.5728    1.4576 H   0  0  0  0  0  0  0  0  0  0  0  0
   -3.5202   -2.6488    0.8866 C   0  0  0  0  0  0  0  0  0  0  0  0
   -4.2052   -1.9048    1.2896 H   0  0  0  0  0  0  0  0  0  0  0  0
   -3.7552   -2.8428   -0.1584 H   0  0  0  0  0  0  0  0  0  0  0  0
   -2.1052   -2.1358    0.9946 C   0  0  0  0  0  0  0  0  0  0  0  0
   -1.2852   -2.7288    1.6826 O   0  0  0  0  0  0  0  0  0  0  0  0
   -1.8202   -1.0288    0.3146 N   0  0  0  0  0  0  0  0  0  0  0  0
   -2.5542   -0.5788   -0.2104 H   0  0  0  0  0  0  0  0  0  0  0  0
   -0.5102   -0.3728    0.3086 C   0  0  1  0  0  0  0  0  0  0  0  0
    0.0719   -0.7468    1.1521 H   0  0  0  0  0  0  0  0  0  0  0  0
    0.2338   -0.7427   -0.9878 C   0  0  0  0  0  0  0  0  0  0  0  0
    0.0116    0.0035   -1.7527 H   0  0  0  0  0  0  0  0  0  0  0  0
    1.3088   -0.7206   -0.7997 H   0  0  0  0  0  0  0  0  0  0  0  0
   -0.1294   -2.1027   -1.5252 C   0  0  0  0  0  0  0  0  0  0  0  0
    0.1414   -2.5791   -2.7900 N   0  0  0  0  0  0  0  0  0  0  0  0
    0.5503   -2.0542   -3.5485 H   0  0  0  0  0  0  0  0  0  0  0  0
   -0.2399   -3.8666   -2.8396 C   0  0  0  0  0  0  0  0  0  0  0  0
   -0.1589   -4.5105   -3.7067 H   0  0  0  0  0  0  0  0  0  0  0  0
   -0.7364   -4.2499   -1.6542 N   0  0  0  0  0  0  0  0  0  0  0  0
   -0.6753   -3.1365   -0.8121 C   0  0  0  0  0  0  0  0  0  0  0  0
   -0.9717   -3.1053    0.2284 H   0  0  0  0  0  0  0  0  0  0  0  0
   -0.6600    1.1486    0.4782 C   0  0  0  0  0  0  0  0  0  0  0  0
   -1.5001    1.7648   -0.1771 O   0  0  0  0  0  0  0  0  0  0  0  0
    0.1634    1.7559    1.3418 N   0  0  0  0  0  0  0  0  0  0  0  0
    0.8618    1.1897    1.8008 H   0  0  0  0  0  0  0  0  0  0  0  0
    0.1509    3.1886    1.6256 C   0  0  0  0  0  0  0  0  0  0  0  0
   -0.8272    3.4794    2.0152 H   0  0  0  0  0  0  0  0  0  0  0  0
    0.9172    3.4314    2.3624 H   0  0  0  0  0  0  0  0  0  0  0  0
    0.3414    3.7499    0.7095 H   0  0  0  0  0  0  0  0  0  0  0  0
  5  6  2  0  0  0  0
  5  7  1  0  0  0  0
  2  3  1  0  0  0  0
  2  4  1  0  0  0  0
  2  5  1  0  0  0  0
  1  2  1  0  0  0  0
 22 23  2  0  0  0  0
 22 24  1  0  0  0  0
 20 21  1  0  0  0  0
 19 20  1  0  0  0  0
 17 18  1  0  0  0  0
 17 19  2  0  0  0  0
 15 16  1  0  0  0  0
 15 17  1  0  0  0  0
 14 15  1  0  0  0  0
 14 20  2  0  0  0  0
 11 12  1  0  0  0  0
 11 13  1  0  0  0  0
 11 14  1  0  0  0  0
  9 10  1  0  0  0  0
  9 11  1  0  0  0  0
  9 22  1  0  0  0  0
  7  8  1  0  0  0  0
  7  9  1  0  0  0  0
 26 27  1  0  0  0  0
 26 28  1  0  0  0  0
 26 29  1  0  0  0  0
 24 25  1  0  0  0  0
 24 26  1  0  0  0  0
M  END
$$$$
default_name
  -OEChem-02102213163D

 29 29  0     1  0  0  0  0  0999 V2000
   -3.6042   -3.5728    1.4576 H   0  0  0  0  0  0  0  0  0  0  0  0
   -3.5202   -2.6488    0.8866 C   0  0  0  0  0  0  0  0  0  0  0  0
   -4.2052   -1.9048    1.2896 H   0  0  0  0  0  0  0  0  0  0  0  0
   -3.7552   -2.8428   -0.1584 H   0  0  0  0  0  0  0  0  0  0  0  0
   -2.1052   -2.1358    0.9946 C   0  0  0  0  0  0  0  0  0  0  0  0
   -1.2852   -2.7288    1.6826 O   0  0  0  0  0  0  0  0  0  0  0  0
   -1.8202   -1.0288    0.3146 N   0  0  0  0  0  0  0  0  0  0  0  0
   -2.5542   -0.5788   -0.2104 H   0  0  0  0  0  0  0  0  0  0  0  0
   -0.5102   -0.3728    0.3086 C   0  0  1  0  0  0  0  0  0  0  0  0
    0.0719   -0.7468    1.1521 H   0  0  0  0  0  0  0  0  0  0  0  0
    0.2338   -0.7427   -0.9878 C   0  0  0  0  0  0  0  0  0  0  0  0
    0.2352    0.1192   -1.6574 H   0  0  0  0  0  0  0  0  0  0  0  0
    1.2711   -0.9820   -0.7467 H   0  0  0  0  0  0  0  0  0  0  0  0
   -0.3701   -1.9149   -1.7168 C   0  0  0  0  0  0  0  0  0  0  0  0
    0.0836   -2.4630   -2.8975 N   0  0  0  0  0  0  0  0  0  0  0  0
    0.8334   -2.1051   -3.4701 H   0  0  0  0  0  0  0  0  0  0  0  0
   -0.6518   -3.5571   -3.1573 C   0  0  0  0  0  0  0  0  0  0  0  0
   -0.5351   -4.1990   -4.0220 H   0  0  0  0  0  0  0  0  0  0  0  0
   -1.5571   -3.7494   -2.1869 N   0  0  0  0  0  0  0  0  0  0  0  0
   -1.3907   -2.7100   -1.2680 C   0  0  0  0  0  0  0  0  0  0  0  0
   -1.9438   -2.5764   -0.3473 H   0  0  0  0  0  0  0  0  0  0  0  0
   -0.6600    1.1486    0.4782 C   0  0  0  0  0  0  0  0  0  0  0  0
   -1.5001    1.7648   -0.1771 O   0  0  0  0  0  0  0  0  0  0  0  0
    0.1634    1.7559    1.3418 N   0  0  0  0  0  0  0  0  0  0  0  0
    0.8618    1.1897    1.8008 H   0  0  0  0  0  0  0  0  0  0  0  0
    0.1509    3.1886    1.6256 C   0  0  0  0  0  0  0  0  0  0  0  0
   -0.8272    3.4794    2.0152 H   0  0  0  0  0  0  0  0  0  0  0  0
    0.9172    3.4314    2.3624 H   0  0  0  0  0  0  0  0  0  0  0  0
    0.3414    3.7499    0.7095 H   0  0  0  0  0  0  0  0  0  0  0  0
  5  6  2  0  0  0  0
  5  7  1  0  0  0  0
  2  3  1  0  0  0  0
  2  4  1  0  0  0  0
  2  5  1  0  0  0  0
  1  2  1  0  0  0  0
 22 23  2  0  0  0  0
 22 24  1  0  0  0  0
 20 21  1  0  0  0  0
 19 20  1  0  0  0  0
 17 18  1  0  0  0  0
 17 19  2  0  0  0  0
 15 16  1  0  0  0  0
 15 17  1  0  0  0  0
 14 15  1  0  0  0  0
 14 20  2  0  0  0  0
 11 12  1  0  0  0  0
 11 13  1  0  0  0  0
 11 14  1  0  0  0  0
  9 10  1  0  0  0  0
  9 11  1  0  0  0  0
  9 22  1  0  0  0  0
  7  8  1  0  0  0  0
  7  9  1  0  0  0  0
 26 27  1  0  0  0  0
 26 28  1  0  0  0  0
 26 29  1  0  0  0  0
 24 25  1  0  0  0  0
 24 26  1  0  0  0  0
M  END
$$$$
default_name
  -OEChem-02102213163D

 29 29  0     1  0  0  0  0  0999 V2000
   -3.6042   -3.5728    1.4576 H   0  0  0  0  0  0  0  0  0  0  0  0
   -3.5202   -2.6488    0.8866 C   0  0  0  0  0  0  0  0  0  0  0  0
   -4.2052   -1.9048    1.2896 H   0  0  0  0  0  0  0  0  0  0  0  0
   -3.7552   -2.8428   -0.1584 H   0  0  0  0  0  0  0  0  0  0  0  0
   -2.1052   -2.1358    0.9946 C   0  0  0  0  0  0  0  0  0  0  0  0
   -1.2852   -2.7288    1.6826 O   0  0  0  0  0  0  0  0  0  0  0  0
   -1.8202   -1.0288    0.3146 N   0  0  0  0  0  0  0  0  0  0  0  0
   -2.5542   -0.5788   -0.2104 H   0  0  0  0  0  0  0  0  0  0  0  0
   -0.5102   -0.3728    0.3086 C   0  0  1  0  0  0  0  0  0  0  0  0
    0.0719   -0.7468    1.1521 H   0  0  0  0  0  0  0  0  0  0  0  0
    0.2338   -0.7427   -0.9878 C   0  0  0  0  0  0  0  0  0  0  0  0
    0.2352    0.1192   -1.6574 H   0  0  0  0  0  0  0  0  0  0  0  0
    1.2711   -0.9820   -0.7467 H   0  0  0  0  0  0  0  0  0  0  0  0
   -0.3701   -1.9149   -1.7168 C   0  0  0  0  0  0  0  0  0  0  0  0
    0.2261   -2.6452   -2.7225 N   0  0  0  0  0  0  0  0  0  0  0  0
    1.1146   -2.4448   -3.1568 H   0  0  0  0  0  0  0  0  0  0  0  0
   -0.5863   -3.6706   -3.0290 C   0  0  0  0  0  0  0  0  0  0  0  0
   -0.3917   -4.4180   -3.7885 H   0  0  0  0  0  0  0  0  0  0  0  0
   -1.6808   -3.6435   -2.2548 N   0  0  0  0  0  0  0  0  0  0  0  0
   -1.5570   -2.5300   -1.4197 C   0  0  0  0  0  0  0  0  0  0  0  0
   -2.2554   -2.2275   -0.6502 H   0  0  0  0  0  0  0  0  0  0  0  0
   -0.6600    1.1486    0.4782 C   0  0  0  0  0  0  0  0  0  0  0  0
   -1.5001    1.7648   -0.1771 O   0  0  0  0  0  0  0  0  0  0  0  0
    0.1634    1.7559    1.3418 N   0  0  0  0  0  0  0  0  0  0  0  0
    0.8618    1.1897    1.8008 H   0  0  0  0  0  0  0  0  0  0  0  0
    0.1509    3.1886    1.6256 C   0  0  0  0  0  0  0  0  0  0  0  0
   -0.8272    3.4794    2.0152 H   0  0  0  0  0  0  0  0  0  0  0  0
    0.9172    3.4314    2.3624 H   0  0  0  0  0  0  0  0  0  0  0  0
    0.3414    3.7499    0.7095 H   0  0  0  0  0  0  0  0  0  0  0  0
  5  6  2  0  0  0  0
  5  7  1  0  0  0  0
  2  3  1  0  0  0  0
  2  4  1  0  0  0  0
  2  5  1  0  0  0  0
  1  2  1  0  0  0  0
 22 23  2  0  0  0  0
 22 24  1  0  0  0  0
 20 21  1  0  0  0  0
 19 20  1  0  0  0  0
 17 18  1  0  0  0  0
 17 19  2  0  0  0  0
 15 16  1  0  0  0  0
 15 17  1  0  0  0  0
 14 15  1  0  0  0  0
 14 20  2  0  0  0  0
 11 12  1  0  0  0  0
 11 13  1  0  0  0  0
 11 14  1  0  0  0  0
  9 10  1  0  0  0  0
  9 11  1  0  0  0  0
  9 22  1  0  0  0  0
  7  8  1  0  0  0  0
  7  9  1  0  0  0  0
 26 27  1  0  0  0  0
 26 28  1  0  0  0  0
 26 29  1  0  0  0  0
 24 25  1  0  0  0  0
 24 26  1  0  0  0  0
M  END
$$$$
default_name
  -OEChem-02102213163D

 29 29  0     1  0  0  0  0  0999 V2000
   -3.6042   -3.5728    1.4576 H   0  0  0  0  0  0  0  0  0  0  0  0
   -3.5202   -2.6488    0.8866 C   0  0  0  0  0  0  0  0  0  0  0  0
   -4.2052   -1.9048    1.2896 H   0  0  0  0  0  0  0  0  0  0  0  0
   -3.7552   -2.8428   -0.1584 H   0  0  0  0  0  0  0  0  0  0  0  0
   -2.1052   -2.1358    0.9946 C   0  0  0  0  0  0  0  0  0  0  0  0
   -1.2852   -2.7288    1.6826 O   0  0  0  0  0  0  0  0  0  0  0  0
   -1.8202   -1.0288    0.3146 N   0  0  0  0  0  0  0  0  0  0  0  0
   -2.5542   -0.5788   -0.2104 H   0  0  0  0  0  0  0  0  0  0  0  0
   -0.5102   -0.3728    0.3086 C   0  0  1  0  0  0  0  0  0  0  0  0
    0.0719   -0.7468    1.1521 H   0  0  0  0  0  0  0  0  0  0  0  0
    0.2338   -0.7427   -0.9878 C   0  0  0  0  0  0  0  0  0  0  0  0
    0.2352    0.1192   -1.6574 H   0  0  0  0  0  0  0  0  0  0  0  0
    1.2711   -0.9820   -0.7467 H   0  0  0  0  0  0  0  0  0  0  0  0
   -0.3701   -1.9149   -1.7168 C   0  0  0  0  0  0  0  0  0  0  0  0
    0.3057   -2.8210   -2.5058 N   0  0  0  0  0  0  0  0  0  0  0  0
    1.2806   -2.7757   -2.7623 H   0  0  0  0  0  0  0  0  0  0  0  0
   -0.5630   -3.7752   -2.8801 C   0  0  0  0  0  0  0  0  0  0  0  0
   -0.3277   -4.6233   -3.5114 H   0  0  0  0  0  0  0  0  0  0  0  0
   -1.7734   -3.5327   -2.3562 N   0  0  0  0  0  0  0  0  0  0  0  0
   -1.6644   -2.3511   -1.6184 C   0  0  0  0  0  0  0  0  0  0  0  0
   -2.4516   -1.8829   -1.0417 H   0  0  0  0  0  0  0  0  0  0  0  0
   -0.6600    1.1486    0.4782 C   0  0  0  0  0  0  0  0  0  0  0  0
   -1.5001    1.7648   -0.1771 O   0  0  0  0  0  0  0  0  0  0  0  0
    0.1634    1.7559    1.3418 N   0  0  0  0  0  0  0  0  0  0  0  0
    0.8618    1.1897    1.8008 H   0  0  0  0  0  0  0  0  0  0  0  0
    0.1509    3.1886    1.6256 C   0  0  0  0  0  0  0  0  0  0  0  0
   -0.8272    3.4794    2.0152 H   0  0  0  0  0  0  0  0  0  0  0  0
    0.9172    3.4314    2.3624 H   0  0  0  0  0  0  0  0  0  0  0  0
    0.3414    3.7499    0.7095 H   0  0  0  0  0  0  0  0  0  0  0  0
  5  6  2  0  0  0  0
  5  7  1  0  0  0  0
  2  3  1  0  0  0  0
  2  4  1  0  0  0  0
  2  5  1  0  0  0  0
  1  2  1  0  0  0  0
 22 23  2  0  0  0  0
 22 24  1  0  0  0  0
 20 21  1  0  0  0  0
 19 20  1  0  0  0  0
 17 18  1  0  0  0  0
 17 19  2  0  0  0  0
 15 16  1  0  0  0  0
 15 17  1  0  0  0  0
 14 15  1  0  0  0  0
 14 20  2  0  0  0  0
 11 12  1  0  0  0  0
 11 13  1  0  0  0  0
 11 14  1  0  0  0  0
  9 10  1  0  0  0  0
  9 11  1  0  0  0  0
  9 22  1  0  0  0  0
  7  8  1  0  0  0  0
  7  9  1  0  0  0  0
 26 27  1  0  0  0  0
 26 28  1  0  0  0  0
 26 29  1  0  0  0  0
 24 25  1  0  0  0  0
 24 26  1  0  0  0  0
M  END
$$$$
default_name
  -OEChem-02102213163D

 29 29  0     1  0  0  0  0  0999 V2000
   -3.6042   -3.5728    1.4576 H   0  0  0  0  0  0  0  0  0  0  0  0
   -3.5202   -2.6488    0.8866 C   0  0  0  0  0  0  0  0  0  0  0  0
   -4.2052   -1.9048    1.2896 H   0  0  0  0  0  0  0  0  0  0  0  0
   -3.7552   -2.8428   -0.1584 H   0  0  0  0  0  0  0  0  0  0  0  0
   -2.1052   -2.1358    0.9946 C   0  0  0  0  0  0  0  0  0  0  0  0
   -1.2852   -2.7288    1.6826 O   0  0  0  0  0  0  0  0  0  0  0  0
   -1.8202   -1.0288    0.3146 N   0  0  0  0  0  0  0  0  0  0  0  0
   -2.5542   -0.5788   -0.2104 H   0  0  0  0  0  0  0  0  0  0  0  0
   -0.5102   -0.3728    0.3086 C   0  0  1  0  0  0  0  0  0  0  0  0
    0.0719   -0.7468    1.1521 H   0  0  0  0  0  0  0  0  0  0  0  0
    0.2338   -0.7427   -0.9878 C   0  0  0  0  0  0  0  0  0  0  0  0
    0.2352    0.1192   -1.6574 H   0  0  0  0  0  0  0  0  0  0  0  0
    1.2711   -0.9820   -0.7467 H   0  0  0  0  0  0  0  0  0  0  0  0
   -0.3701   -1.9149   -1.7168 C   0  0  0  0  0  0  0  0  0  0  0  0
    0.3170   -2.9782   -2.2624 N   0  0  0  0  0  0  0  0  0  0  0  0
    1.3200   -3.0751   -2.3135 H   0  0  0  0  0  0  0  0  0  0  0  0
   -0.5837   -3.8636   -2.7208 C   0  0  0  0  0  0  0  0  0  0  0  0
   -0.3473   -4.8009   -3.2096 H   0  0  0  0  0  0  0  0  0  0  0  0
   -1.8285   -3.4247   -2.4843 N   0  0  0  0  0  0  0  0  0  0  0  0
   -1.7058   -2.1854   -1.8505 C   0  0  0  0  0  0  0  0  0  0  0  0
   -2.5192   -1.5661   -1.4951 H   0  0  0  0  0  0  0  0  0  0  0  0
   -0.6600    1.1486    0.4782 C   0  0  0  0  0  0  0  0  0  0  0  0
   -1.5001    1.7648   -0.1771 O   0  0  0  0  0  0  0  0  0  0  0  0
    0.1634    1.7559    1.3418 N   0  0  0  0  0  0  0  0  0  0  0  0
    0.8618    1.1897    1.8008 H   0  0  0  0  0  0  0  0  0  0  0  0
    0.1509    3.1886    1.6256 C   0  0  0  0  0  0  0  0  0  0  0  0
   -0.8272    3.4794    2.0152 H   0  0  0  0  0  0  0  0  0  0  0  0
    0.9172    3.4314    2.3624 H   0  0  0  0  0  0  0  0  0  0  0  0
    0.3414    3.7499    0.7095 H   0  0  0  0  0  0  0  0  0  0  0  0
  5  6  2  0  0  0  0
  5  7  1  0  0  0  0
  2  3  1  0  0  0  0
  2  4  1  0  0  0  0
  2  5  1  0  0  0  0
  1  2  1  0  0  0  0
 22 23  2  0  0  0  0
 22 24  1  0  0  0  0
 20 21  1  0  0  0  0
 19 20  1  0  0  0  0
 17 18  1  0  0  0  0
 17 19  2  0  0  0  0
 15 16  1  0  0  0  0
 15 17  1  0  0  0  0
 14 15  1  0  0  0  0
 14 20  2  0  0  0  0
 11 12  1  0  0  0  0
 11 13  1  0  0  0  0
 11 14  1  0  0  0  0
  9 10  1  0  0  0  0
  9 11  1  0  0  0  0
  9 22  1  0  0  0  0
  7  8  1  0  0  0  0
  7  9  1  0  0  0  0
 26 27  1  0  0  0  0
 26 28  1  0  0  0  0
 26 29  1  0  0  0  0
 24 25  1  0  0  0  0
 24 26  1  0  0  0  0
M  END
$$$$
default_name
  -OEChem-02102213163D

 29 29  0     1  0  0  0  0  0999 V2000
   -3.6042   -3.5728    1.4576 H   0  0  0  0  0  0  0  0  0  0  0  0
   -3.5202   -2.6488    0.8866 C   0  0  0  0  0  0  0  0  0  0  0  0
   -4.2052   -1.9048    1.2896 H   0  0  0  0  0  0  0  0  0  0  0  0
   -3.7552   -2.8428   -0.1584 H   0  0  0  0  0  0  0  0  0  0  0  0
   -2.1052   -2.1358    0.9946 C   0  0  0  0  0  0  0  0  0  0  0  0
   -1.2852   -2.7288    1.6826 O   0  0  0  0  0  0  0  0  0  0  0  0
   -1.8202   -1.0288    0.3146 N   0  0  0  0  0  0  0  0  0  0  0  0
   -2.5542   -0.5788   -0.2104 H   0  0  0  0  0  0  0  0  0  0  0  0
   -0.5102   -0.3728    0.3086 C   0  0  1  0  0  0  0  0  0  0  0  0
    0.0719   -0.7468    1.1521 H   0  0  0  0  0  0  0  0  0  0  0  0
    0.2338   -0.7427   -0.9878 C   0  0  0  0  0  0  0  0  0  0  0  0
    0.2352    0.1192   -1.6574 H   0  0  0  0  0  0  0  0  0  0  0  0
    1.2711   -0.9820   -0.7467 H   0  0  0  0  0  0  0  0  0  0  0  0
   -0.3701   -1.9149   -1.7168 C   0  0  0  0  0  0  0  0  0  0  0  0
    0.2591   -3.1062   -2.0086 N   0  0  0  0  0  0  0  0  0  0  0  0
    1.2303   -3.3227   -1.8410 H   0  0  0  0  0  0  0  0  0  0  0  0
   -0.6468   -3.9300   -2.5619 C   0  0  0  0  0  0  0  0  0  0  0  0
   -0.4493   -4.9387   -2.9035 H   0  0  0  0  0  0  0  0  0  0  0  0
   -1.8425   -3.3267   -2.6304 N   0  0  0  0  0  0  0  0  0  0  0  0
   -1.6783   -2.0443   -2.1003 C   0  0  0  0  0  0  0  0  0  0  0  0
   -2.4535   -1.2986   -1.9796 H   0  0  0  0  0  0  0  0  0  0  0  0
   -0.6600    1.1486    0.4782 C   0  0  0  0  0  0  0  0  0  0  0  0
   -1.5001    1.7648   -0.1771 O   0  0  0  0  0  0  0  0  0  0  0  0
    0.1634    1.7559    1.3418 N   0  0  0  0  0  0  0  0  0  0  0  0
    0.8618    1.1897    1.8008 H   0  0  0  0  0  0  0  0  0  0  0  0
    0.1509    3.1886    1.6256 C   0  0  0  0  0  0  0  0  0  0  0  0
   -0.8272    3.4794    2.0152 H   0  0  0  0  0  0  0  0  0  0  0  0
    0.9172    3.4314    2.3624 H   0  0  0  0  0  0  0  0  0  0  0  0
    0.3414    3.7499    0.7095 H   0  0  0  0  0  0  0  0  0  0  0  0
  5  6  2  0  0  0  0
  5  7  1  0  0  0  0
  2  3  1  0  0  0  0
  2  4  1  0  0  0  0
  2  5  1  0  0  0  0
  1  2  1  0  0  0  0
 22 23  2  0  0  0  0
 22 24  1  0  0  0  0
 20 21  1  0  0  0  0
 19 20  1  0  0  0  0
 17 18  1  0  0  0  0
 17 19  2  0  0  0  0
 15 16  1  0  0  0  0
 15 17  1  0  0  0  0
 14 15  1  0  0  0  0
 14 20  2  0  0  0  0
 11 12  1  0  0  0  0
 11 13  1  0  0  0  0
 11 14  1  0  0  0  0
  9 10  1  0  0  0  0
  9 11  1  0  0  0  0
  9 22  1  0  0  0  0
  7  8  1  0  0  0  0
  7  9  1  0  0  0  0
 26 27  1  0  0  0  0
 26 28  1  0  0  0  0
 26 29  1  0  0  0  0
 24 25  1  0  0  0  0
 24 26  1  0  0  0  0
M  END
$$$$
default_name
  -OEChem-02102213163D

 29 29  0     1  0  0  0  0  0999 V2000
   -3.6042   -3.5728    1.4576 H   0  0  0  0  0  0  0  0  0  0  0  0
   -3.5202   -2.6488    0.8866 C   0  0  0  0  0  0  0  0  0  0  0  0
   -4.2052   -1.9048    1.2896 H   0  0  0  0  0  0  0  0  0  0  0  0
   -3.7552   -2.8428   -0.1584 H   0  0  0  0  0  0  0  0  0  0  0  0
   -2.1052   -2.1358    0.9946 C   0  0  0  0  0  0  0  0  0  0  0  0
   -1.2852   -2.7288    1.6826 O   0  0  0  0  0  0  0  0  0  0  0  0
   -1.8202   -1.0288    0.3146 N   0  0  0  0  0  0  0  0  0  0  0  0
   -2.5542   -0.5788   -0.2104 H   0  0  0  0  0  0  0  0  0  0  0  0
   -0.5102   -0.3728    0.3086 C   0  0  1  0  0  0  0  0  0  0  0  0
    0.0719   -0.7468    1.1521 H   0  0  0  0  0  0  0  0  0  0  0  0
    0.2338   -0.7427   -0.9878 C   0  0  0  0  0  0  0  0  0  0  0  0
    0.2352    0.1192   -1.6574 H   0  0  0  0  0  0  0  0  0  0  0  0
    1.2711   -0.9820   -0.7467 H   0  0  0  0  0  0  0  0  0  0  0  0
   -0.3701   -1.9149   -1.7168 C   0  0  0  0  0  0  0  0  0  0  0  0
    0.1361   -3.1963   -1.7618 N   0  0  0  0  0  0  0  0  0  0  0  0
    1.0174   -3.5017   -1.3769 H   0  0  0  0  0  0  0  0  0  0  0  0
   -0.7480   -3.9697   -2.4142 C   0  0  0  0  0  0  0  0  0  0  0  0
   -0.6267   -5.0273   -2.6142 H   0  0  0  0  0  0  0  0  0  0  0  0
   -1.8142   -3.2454   -2.7844 N   0  0  0  0  0  0  0  0  0  0  0  0
   -1.5838   -1.9373   -2.3506 C   0  0  0  0  0  0  0  0  0  0  0  0
   -2.2591   -1.0988   -2.4621 H   0  0  0  0  0  0  0  0  0  0  0  0
   -0.6600    1.1486    0.4782 C   0  0  0  0  0  0  0  0  0  0  0  0
   -1.5001    1.7648   -0.1771 O   0  0  0  0  0  0  0  0  0  0  0  0
    0.1634    1.7559    1.3418 N   0  0  0  0  0  0  0  0  0  0  0  0
    0.8618    1.1897    1.8008 H   0  0  0  0  0  0  0  0  0  0  0  0
    0.1509    3.1886    1.6256 C   0  0  0  0  0  0  0  0  0  0  0  0
   -0.8272    3.4794    2.0152 H   0  0  0  0  0  0  0  0  0  0  0  0
    0.9172    3.4314    2.3624 H   0  0  0  0  0  0  0  0  0  0  0  0
    0.3414    3.7499    0.7095 H   0  0  0  0  0  0  0  0  0  0  0  0
  5  6  2  0  0  0  0
  5  7  1  0  0  0  0
  2  3  1  0  0  0  0
  2  4  1  0  0  0  0
  2  5  1  0  0  0  0
  1  2  1  0  0  0  0
 22 23  2  0  0  0  0
 22 24  1  0  0  0  0
 20 21  1  0  0  0  0
 19 20  1  0  0  0  0
 17 18  1  0  0  0  0
 17 19  2  0  0  0  0
 15 16  1  0  0  0  0
 15 17  1  0  0  0  0
 14 15  1  0  0  0  0
 14 20  2  0  0  0  0
 11 12  1  0  0  0  0
 11 13  1  0  0  0  0
 11 14  1  0  0  0  0
  9 10  1  0  0  0  0
  9 11  1  0  0  0  0
  9 22  1  0  0  0  0
  7  8  1  0  0  0  0
  7  9  1  0  0  0  0
 26 27  1  0  0  0  0
 26 28  1  0  0  0  0
 26 29  1  0  0  0  0
 24 25  1  0  0  0  0
 24 26  1  0  0  0  0
M  END
$$$$
default_name
  -OEChem-02102213163D

 29 29  0     1  0  0  0  0  0999 V2000
   -3.6042   -3.5728    1.4576 H   0  0  0  0  0  0  0  0  0  0  0  0
   -3.5202   -2.6488    0.8866 C   0  0  0  0  0  0  0  0  0  0  0  0
   -4.2052   -1.9048    1.2896 H   0  0  0  0  0  0  0  0  0  0  0  0
   -3.7552   -2.8428   -0.1584 H   0  0  0  0  0  0  0  0  0  0  0  0
   -2.1052   -2.1358    0.9946 C   0  0  0  0  0  0  0  0  0  0  0  0
   -1.2852   -2.7288    1.6826 O   0  0  0  0  0  0  0  0  0  0  0  0
   -1.8202   -1.0288    0.3146 N   0  0  0  0  0  0  0  0  0  0  0  0
   -2.5542   -0.5788   -0.2104 H   0  0  0  0  0  0  0  0  0  0  0  0
   -0.5102   -0.3728    0.3086 C   0  0  1  0  0  0  0  0  0  0  0  0
    0.0719   -0.7468    1.1521 H   0  0  0  0  0  0  0  0  0  0  0  0
    0.2338   -0.7427   -0.9878 C   0  0  0  0  0  0  0  0  0  0  0  0
    0.2352    0.1192   -1.6574 H   0  0  0  0  0  0  0  0  0  0  0  0
    1.2711   -0.9820   -0.7467 H   0  0  0  0  0  0  0  0  0  0  0  0
   -0.3701   -1.9149   -1.7168 C   0  0  0  0  0  0  0  0  0  0  0  0
   -0.0437   -3.2423   -1.5389 N   0  0  0  0  0  0  0  0  0  0  0  0
    0.6960   -3.5997   -0.9530 H   0  0  0  0  0  0  0  0  0  0  0  0
   -0.8805   -3.9800   -2.2878 C   0  0  0  0  0  0  0  0  0  0  0  0
   -0.8675   -5.0606   -2.3612 H   0  0  0  0  0  0  0  0  0  0  0  0
   -1.7458   -3.1864   -2.9359 N   0  0  0  0  0  0  0  0  0  0  0  0
   -1.4287   -1.8717   -2.5844 C   0  0  0  0  0  0  0  0  0  0  0  0
   -1.9490   -0.9801   -2.9097 H   0  0  0  0  0  0  0  0  0  0  0  0
   -0.6600    1.1486    0.4782 C   0  0  0  0  0  0  0  0  0  0  0  0
   -1.5001    1.7648   -0.1771 O   0  0  0  0  0  0  0  0  0  0  0  0
    0.1634    1.7559    1.3418 N   0  0  0  0  0  0  0  0  0  0  0  0
    0.8618    1.1897    1.8008 H   0  0  0  0  0  0  0  0  0  0  0  0
    0.1509    3.1886    1.6256 C   0  0  0  0  0  0  0  0  0  0  0  0
   -0.8272    3.4794    2.0152 H   0  0  0  0  0  0  0  0  0  0  0  0
    0.9172    3.4314    2.3624 H   0  0  0  0  0  0  0  0  0  0  0  0
    0.3414    3.7499    0.7095 H   0  0  0  0  0  0  0  0  0  0  0  0
  5  6  2  0  0  0  0
  5  7  1  0  0  0  0
  2  3  1  0  0  0  0
  2  4  1  0  0  0  0
  2  5  1  0  0  0  0
  1  2  1  0  0  0  0
 22 23  2  0  0  0  0
 22 24  1  0  0  0  0
 20 21  1  0  0  0  0
 19 20  1  0  0  0  0
 17 18  1  0  0  0  0
 17 19  2  0  0  0  0
 15 16  1  0  0  0  0
 15 17  1  0  0  0  0
 14 15  1  0  0  0  0
 14 20  2  0  0  0  0
 11 12  1  0  0  0  0
 11 13  1  0  0  0  0
 11 14  1  0  0  0  0
  9 10  1  0  0  0  0
  9 11  1  0  0  0  0
  9 22  1  0  0  0  0
  7  8  1  0  0  0  0
  7  9  1  0  0  0  0
 26 27  1  0  0  0  0
 26 28  1  0  0  0  0
 26 29  1  0  0  0  0
 24 25  1  0  0  0  0
 24 26  1  0  0  0  0
M  END
$$$$
default_name
  -OEChem-02102213163D

 29 29  0     1  0  0  0  0  0999 V2000
   -3.6042   -3.5728    1.4576 H   0  0  0  0  0  0  0  0  0  0  0  0
   -3.5202   -2.6488    0.8866 C   0  0  0  0  0  0  0  0  0  0  0  0
   -4.2052   -1.9048    1.2896 H   0  0  0  0  0  0  0  0  0  0  0  0
   -3.7552   -2.8428   -0.1584 H   0  0  0  0  0  0  0  0  0  0  0  0
   -2.1052   -2.1358    0.9946 C   0  0  0  0  0  0  0  0  0  0  0  0
   -1.2852   -2.7288    1.6826 O   0  0  0  0  0  0  0  0  0  0  0  0
   -1.8202   -1.0288    0.3146 N   0  0  0  0  0  0  0  0  0  0  0  0
   -2.5542   -0.5788   -0.2104 H   0  0  0  0  0  0  0  0  0  0  0  0
   -0.5102   -0.3728    0.3086 C   0  0  1  0  0  0  0  0  0  0  0  0
    0.0719   -0.7468    1.1521 H   0  0  0  0  0  0  0  0  0  0  0  0
    0.2338   -0.7427   -0.9878 C   0  0  0  0  0  0  0  0  0  0  0  0
    0.2352    0.1192   -1.6574 H   0  0  0  0  0  0  0  0  0  0  0  0
    1.2711   -0.9820   -0.7467 H   0  0  0  0  0  0  0  0  0  0  0  0
   -0.3701   -1.9149   -1.7168 C   0  0  0  0  0  0  0  0  0  0  0  0
   -0.2680   -3.2411   -1.3550 N   0  0  0  0  0  0  0  0  0  0  0  0
    0.2878   -3.6102   -0.5981 H   0  0  0  0  0  0  0  0  0  0  0  0
   -1.0353   -3.9603   -2.1914 C   0  0  0  0  0  0  0  0  0  0  0  0
   -1.1551   -5.0364   -2.1619 H   0  0  0  0  0  0  0  0  0  0  0  0
   -1.6417   -3.1538   -3.0746 N   0  0  0  0  0  0  0  0  0  0  0  0
   -1.2236   -1.8521   -2.7859 C   0  0  0  0  0  0  0  0  0  0  0  0
   -1.5446   -0.9508   -3.2919 H   0  0  0  0  0  0  0  0  0  0  0  0
   -0.6600    1.1486    0.4782 C   0  0  0  0  0  0  0  0  0  0  0  0
   -1.5001    1.7648   -0.1771 O   0  0  0  0  0  0  0  0  0  0  0  0
    0.1634    1.7559    1.3418 N   0  0  0  0  0  0  0  0  0  0  0  0
    0.8618    1.1897    1.8008 H   0  0  0  0  0  0  0  0  0  0  0  0
    0.1509    3.1886    1.6256 C   0  0  0  0  0  0  0  0  0  0  0  0
   -0.8272    3.4794    2.0152 H   0  0  0  0  0  0  0  0  0  0  0  0
    0.9172    3.4314    2.3624 H   0  0  0  0  0  0  0  0  0  0  0  0
    0.3414    3.7499    0.7095 H   0  0  0  0  0  0  0  0  0  0  0  0
  5  6  2  0  0  0  0
  5  7  1  0  0  0  0
  2  3  1  0  0  0  0
  2  4  1  0  0  0  0
  2  5  1  0  0  0  0
  1  2  1  0  0  0  0
 22 23  2  0  0  0  0
 22 24  1  0  0  0  0
 20 21  1  0  0  0  0
 19 20  1  0  0  0  0
 17 18  1  0  0  0  0
 17 19  2  0  0  0  0
 15 16  1  0  0  0  0
 15 17  1  0  0  0  0
 14 15  1  0  0  0  0
 14 20  2  0  0  0  0
 11 12  1  0  0  0  0
 11 13  1  0  0  0  0
 11 14  1  0  0  0  0
  9 10  1  0  0  0  0
  9 11  1  0  0  0  0
  9 22  1  0  0  0  0
  7  8  1  0  0  0  0
  7  9  1  0  0  0  0
 26 27  1  0  0  0  0
 26 28  1  0  0  0  0
 26 29  1  0  0  0  0
 24 25  1  0  0  0  0
 24 26  1  0  0  0  0
M  END
$$$$
default_name
  -OEChem-02102213163D

 29 29  0     1  0  0  0  0  0999 V2000
   -3.6042   -3.5728    1.4576 H   0  0  0  0  0  0  0  0  0  0  0  0
   -3.5202   -2.6488    0.8866 C   0  0  0  0  0  0  0  0  0  0  0  0
   -4.2052   -1.9048    1.2896 H   0  0  0  0  0  0  0  0  0  0  0  0
   -3.7552   -2.8428   -0.1584 H   0  0  0  0  0  0  0  0  0  0  0  0
   -2.1052   -2.1358    0.9946 C   0  0  0  0  0  0  0  0  0  0  0  0
   -1.2852   -2.7288    1.6826 O   0  0  0  0  0  0  0  0  0  0  0  0
   -1.8202   -1.0288    0.3146 N   0  0  0  0  0  0  0  0  0  0  0  0
   -2.5542   -0.5788   -0.2104 H   0  0  0  0  0  0  0  0  0  0  0  0
   -0.5102   -0.3728    0.3086 C   0  0  1  0  0  0  0  0  0  0  0  0
    0.0719   -0.7468    1.1521 H   0  0  0  0  0  0  0  0  0  0  0  0
    0.2338   -0.7427   -0.9878 C   0  0  0  0  0  0  0  0  0  0  0  0
    0.2352    0.1192   -1.6574 H   0  0  0  0  0  0  0  0  0  0  0  0
    1.2711   -0.9820   -0.7467 H   0  0  0  0  0  0  0  0  0  0  0  0
   -0.3701   -1.9149   -1.7168 C   0  0  0  0  0  0  0  0  0  0  0  0
   -0.5215   -3.1928   -1.2227 N   0  0  0  0  0  0  0  0  0  0  0  0
   -0.1792   -3.5324   -0.3364 H   0  0  0  0  0  0  0  0  0  0  0  0
   -1.2017   -3.9118   -2.1314 C   0  0  0  0  0  0  0  0  0  0  0  0
   -1.4700   -4.9563   -2.0298 H   0  0  0  0  0  0  0  0  0  0  0  0
   -1.5092   -3.1496   -3.1911 N   0  0  0  0  0  0  0  0  0  0  0  0
   -0.9825   -1.8797   -2.9412 C   0  0  0  0  0  0  0  0  0  0  0  0
   -1.0732   -1.0127   -3.5827 H   0  0  0  0  0  0  0  0  0  0  0  0
   -0.6600    1.1486    0.4782 C   0  0  0  0  0  0  0  0  0  0  0  0
   -1.5001    1.7648   -0.1771 O   0  0  0  0  0  0  0  0  0  0  0  0
    0.1634    1.7559    1.3418 N   0  0  0  0  0  0  0  0  0  0  0  0
    0.8618    1.1897    1.8008 H   0  0  0  0  0  0  0  0  0  0  0  0
    0.1509    3.1886    1.6256 C   0  0  0  0  0  0  0  0  0  0  0  0
   -0.8272    3.4794    2.0152 H   0  0  0  0  0  0  0  0  0  0  0  0
    0.9172    3.4314    2.3624 H   0  0  0  0  0  0  0  0  0  0  0  0
    0.3414    3.7499    0.7095 H   0  0  0  0  0  0  0  0  0  0  0  0
  5  6  2  0  0  0  0
  5  7  1  0  0  0  0
  2  3  1  0  0  0  0
  2  4  1  0  0  0  0
  2  5  1  0  0  0  0
  1  2  1  0  0  0  0
 22 23  2  0  0  0  0
 22 24  1  0  0  0  0
 20 21  1  0  0  0  0
 19 20  1  0  0  0  0
 17 18  1  0  0  0  0
 17 19  2  0  0  0  0
 15 16  1  0  0  0  0
 15 17  1  0  0  0  0
 14 15  1  0  0  0  0
 14 20  2  0  0  0  0
 11 12  1  0  0  0  0
 11 13  1  0  0  0  0
 11 14  1  0  0  0  0
  9 10  1  0  0  0  0
  9 11  1  0  0  0  0
  9 22  1  0  0  0  0
  7  8  1  0  0  0  0
  7  9  1  0  0  0  0
 26 27  1  0  0  0  0
 26 28  1  0  0  0  0
 26 29  1  0  0  0  0
 24 25  1  0  0  0  0
 24 26  1  0  0  0  0
M  END
$$$$
default_name
  -OEChem-02102213163D

 29 29  0     1  0  0  0  0  0999 V2000
   -3.6042   -3.5728    1.4576 H   0  0  0  0  0  0  0  0  0  0  0  0
   -3.5202   -2.6488    0.8866 C   0  0  0  0  0  0  0  0  0  0  0  0
   -4.2052   -1.9048    1.2896 H   0  0  0  0  0  0  0  0  0  0  0  0
   -3.7552   -2.8428   -0.1584 H   0  0  0  0  0  0  0  0  0  0  0  0
   -2.1052   -2.1358    0.9946 C   0  0  0  0  0  0  0  0  0  0  0  0
   -1.2852   -2.7288    1.6826 O   0  0  0  0  0  0  0  0  0  0  0  0
   -1.8202   -1.0288    0.3146 N   0  0  0  0  0  0  0  0  0  0  0  0
   -2.5542   -0.5788   -0.2104 H   0  0  0  0  0  0  0  0  0  0  0  0
   -0.5102   -0.3728    0.3086 C   0  0  1  0  0  0  0  0  0  0  0  0
    0.0719   -0.7468    1.1521 H   0  0  0  0  0  0  0  0  0  0  0  0
    0.2338   -0.7427   -0.9878 C   0  0  0  0  0  0  0  0  0  0  0  0
    0.2352    0.1192   -1.6574 H   0  0  0  0  0  0  0  0  0  0  0  0
    1.2711   -0.9820   -0.7467 H   0  0  0  0  0  0  0  0  0  0  0  0
   -0.3701   -1.9149   -1.7168 C   0  0  0  0  0  0  0  0  0  0  0  0
   -0.7870   -3.1007   -1.1509 N   0  0  0  0  0  0  0  0  0  0  0  0
   -0.6732   -3.3716   -0.1857 H   0  0  0  0  0  0  0  0  0  0  0  0
   -1.3684   -3.8380   -2.1120 C   0  0  0  0  0  0  0  0  0  0  0  0
   -1.7908   -4.8258   -1.9739 H   0  0  0  0  0  0  0  0  0  0  0  0
   -1.3573   -3.1743   -3.2773 N   0  0  0  0  0  0  0  0  0  0  0  0
   -0.7217   -1.9527   -3.0398 C   0  0  0  0  0  0  0  0  0  0  0  0
   -0.5672   -1.1617   -3.7622 H   0  0  0  0  0  0  0  0  0  0  0  0
   -0.6600    1.1486    0.4782 C   0  0  0  0  0  0  0  0  0  0  0  0
   -1.5001    1.7648   -0.1771 O   0  0  0  0  0  0  0  0  0  0  0  0
    0.1634    1.7559    1.3418 N   0  0  0  0  0  0  0  0  0  0  0  0
    0.8618    1.1897    1.8008 H   0  0  0  0  0  0  0  0  0  0  0  0
    0.1509    3.1886    1.6256 C   0  0  0  0  0  0  0  0  0  0  0  0
   -0.8272    3.4794    2.0152 H   0  0  0  0  0  0  0  0  0  0  0  0
    0.9172    3.4314    2.3624 H   0  0  0  0  0  0  0  0  0  0  0  0
    0.3414    3.7499    0.7095 H   0  0  0  0  0  0  0  0  0  0  0  0
  5  6  2  0  0  0  0
  5  7  1  0  0  0  0
  2  3  1  0  0  0  0
  2  4  1  0  0  0  0
  2  5  1  0  0  0  0
  1  2  1  0  0  0  0
 22 23  2  0  0  0  0
 22 24  1  0  0  0  0
 20 21  1  0  0  0  0
 19 20  1  0  0  0  0
 17 18  1  0  0  0  0
 17 19  2  0  0  0  0
 15 16  1  0  0  0  0
 15 17  1  0  0  0  0
 14 15  1  0  0  0  0
 14 20  2  0  0  0  0
 11 12  1  0  0  0  0
 11 13  1  0  0  0  0
 11 14  1  0  0  0  0
  9 10  1  0  0  0  0
  9 11  1  0  0  0  0
  9 22  1  0  0  0  0
  7  8  1  0  0  0  0
  7  9  1  0  0  0  0
 26 27  1  0  0  0  0
 26 28  1  0  0  0  0
 26 29  1  0  0  0  0
 24 25  1  0  0  0  0
 24 26  1  0  0  0  0
M  END
$$$$
default_name
  -OEChem-02102213163D

 29 29  0     1  0  0  0  0  0999 V2000
   -3.6042   -3.5728    1.4576 H   0  0  0  0  0  0  0  0  0  0  0  0
   -3.5202   -2.6488    0.8866 C   0  0  0  0  0  0  0  0  0  0  0  0
   -4.2052   -1.9048    1.2896 H   0  0  0  0  0  0  0  0  0  0  0  0
   -3.7552   -2.8428   -0.1584 H   0  0  0  0  0  0  0  0  0  0  0  0
   -2.1052   -2.1358    0.9946 C   0  0  0  0  0  0  0  0  0  0  0  0
   -1.2852   -2.7288    1.6826 O   0  0  0  0  0  0  0  0  0  0  0  0
   -1.8202   -1.0288    0.3146 N   0  0  0  0  0  0  0  0  0  0  0  0
   -2.5542   -0.5788   -0.2104 H   0  0  0  0  0  0  0  0  0  0  0  0
   -0.5102   -0.3728    0.3086 C   0  0  1  0  0  0  0  0  0  0  0  0
    0.0719   -0.7468    1.1521 H   0  0  0  0  0  0  0  0  0  0  0  0
    0.2338   -0.7427   -0.9878 C   0  0  0  0  0  0  0  0  0  0  0  0
    0.2352    0.1192   -1.6574 H   0  0  0  0  0  0  0  0  0  0  0  0
    1.2711   -0.9820   -0.7467 H   0  0  0  0  0  0  0  0  0  0  0  0
   -0.3701   -1.9149   -1.7168 C   0  0  0  0  0  0  0  0  0  0  0  0
   -1.0464   -2.9710   -1.1446 N   0  0  0  0  0  0  0  0  0  0  0  0
   -1.1606   -3.1388   -0.1562 H   0  0  0  0  0  0  0  0  0  0  0  0
   -1.5242   -3.7438   -2.1345 C   0  0  0  0  0  0  0  0  0  0  0  0
   -2.0955   -4.6538   -1.9981 H   0  0  0  0  0  0  0  0  0  0  0  0
   -1.1962   -3.2261   -3.3274 N   0  0  0  0  0  0  0  0  0  0  0  0
   -0.4591   -2.0661   -3.0750 C   0  0  0  0  0  0  0  0  0  0  0  0
   -0.0609   -1.3877   -3.8183 H   0  0  0  0  0  0  0  0  0  0  0  0
   -0.6600    1.1486    0.4782 C   0  0  0  0  0  0  0  0  0  0  0  0
   -1.5001    1.7648   -0.1771 O   0  0  0  0  0  0  0  0  0  0  0  0
    0.1634    1.7559    1.3418 N   0  0  0  0  0  0  0  0  0  0  0  0
    0.8618    1.1897    1.8008 H   0  0  0  0  0  0  0  0  0  0  0  0
    0.1509    3.1886    1.6256 C   0  0  0  0  0  0  0  0  0  0  0  0
   -0.8272    3.4794    2.0152 H   0  0  0  0  0  0  0  0  0  0  0  0
    0.9172    3.4314    2.3624 H   0  0  0  0  0  0  0  0  0  0  0  0
    0.3414    3.7499    0.7095 H   0  0  0  0  0  0  0  0  0  0  0  0
  5  6  2  0  0  0  0
  5  7  1  0  0  0  0
  2  3  1  0  0  0  0
  2  4  1  0  0  0  0
  2  5  1  0  0  0  0
  1  2  1  0  0  0  0
 22 23  2  0  0  0  0
 22 24  1  0  0  0  0
 20 21  1  0  0  0  0
 19 20  1  0  0  0  0
 17 18  1  0  0  0  0
 17 19  2  0  0  0  0
 15 16  1  0  0  0  0
 15 17  1  0  0  0  0
 14 15  1  0  0  0  0
 14 20  2  0  0  0  0
 11 12  1  0  0  0  0
 11 13  1  0  0  0  0
 11 14  1  0  0  0  0
  9 10  1  0  0  0  0
  9 11  1  0  0  0  0
  9 22  1  0  0  0  0
  7  8  1  0  0  0  0
  7  9  1  0  0  0  0
 26 27  1  0  0  0  0
 26 28  1  0  0  0  0
 26 29  1  0  0  0  0
 24 25  1  0  0  0  0
 24 26  1  0  0  0  0
M  END
$$$$
default_name
  -OEChem-02102213163D

 29 29  0     1  0  0  0  0  0999 V2000
   -3.6042   -3.5728    1.4576 H   0  0  0  0  0  0  0  0  0  0  0  0
   -3.5202   -2.6488    0.8866 C   0  0  0  0  0  0  0  0  0  0  0  0
   -4.2052   -1.9048    1.2896 H   0  0  0  0  0  0  0  0  0  0  0  0
   -3.7552   -2.8428   -0.1584 H   0  0  0  0  0  0  0  0  0  0  0  0
   -2.1052   -2.1358    0.9946 C   0  0  0  0  0  0  0  0  0  0  0  0
   -1.2852   -2.7288    1.6826 O   0  0  0  0  0  0  0  0  0  0  0  0
   -1.8202   -1.0288    0.3146 N   0  0  0  0  0  0  0  0  0  0  0  0
   -2.5542   -0.5788   -0.2104 H   0  0  0  0  0  0  0  0  0  0  0  0
   -0.5102   -0.3728    0.3086 C   0  0  1  0  0  0  0  0  0  0  0  0
    0.0719   -0.7468    1.1521 H   0  0  0  0  0  0  0  0  0  0  0  0
    0.2338   -0.7427   -0.9878 C   0  0  0  0  0  0  0  0  0  0  0  0
    0.2352    0.1192   -1.6574 H   0  0  0  0  0  0  0  0  0  0  0  0
    1.2711   -0.9820   -0.7467 H   0  0  0  0  0  0  0  0  0  0  0  0
   -0.3701   -1.9149   -1.7168 C   0  0  0  0  0  0  0  0  0  0  0  0
   -1.2820   -2.8126   -1.2042 N   0  0  0  0  0  0  0  0  0  0  0  0
   -1.6082   -2.8498   -0.2501 H   0  0  0  0  0  0  0  0  0  0  0  0
   -1.6583   -3.6356   -2.1974 C   0  0  0  0  0  0  0  0  0  0  0  0
   -2.3635   -4.4520   -2.1006 H   0  0  0  0  0  0  0  0  0  0  0  0
   -1.0371   -3.3015   -3.3380 N   0  0  0  0  0  0  0  0  0  0  0  0
   -0.2126   -2.2122   -3.0443 C   0  0  0  0  0  0  0  0  0  0  0  0
    0.4112   -1.6751   -3.7471 H   0  0  0  0  0  0  0  0  0  0  0  0
   -0.6600    1.1486    0.4782 C   0  0  0  0  0  0  0  0  0  0  0  0
   -1.5001    1.7648   -0.1771 O   0  0  0  0  0  0  0  0  0  0  0  0
    0.1634    1.7559    1.3418 N   0  0  0  0  0  0  0  0  0  0  0  0
    0.8618    1.1897    1.8008 H   0  0  0  0  0  0  0  0  0  0  0  0
    0.1509    3.1886    1.6256 C   0  0  0  0  0  0  0  0  0  0  0  0
   -0.8272    3.4794    2.0152 H   0  0  0  0  0  0  0  0  0  0  0  0
    0.9172    3.4314    2.3624 H   0  0  0  0  0  0  0  0  0  0  0  0
    0.3414    3.7499    0.7095 H   0  0  0  0  0  0  0  0  0  0  0  0
  5  6  2  0  0  0  0
  5  7  1  0  0  0  0
  2  3  1  0  0  0  0
  2  4  1  0  0  0  0
  2  5  1  0  0  0  0
  1  2  1  0  0  0  0
 22 23  2  0  0  0  0
 22 24  1  0  0  0  0
 20 21  1  0  0  0  0
 19 20  1  0  0  0  0
 17 18  1  0  0  0  0
 17 19  2  0  0  0  0
 15 16  1  0  0  0  0
 15 17  1  0  0  0  0
 14 15  1  0  0  0  0
 14 20  2  0  0  0  0
 11 12  1  0  0  0  0
 11 13  1  0  0  0  0
 11 14  1  0  0  0  0
  9 10  1  0  0  0  0
  9 11  1  0  0  0  0
  9 22  1  0  0  0  0
  7  8  1  0  0  0  0
  7  9  1  0  0  0  0
 26 27  1  0  0  0  0
 26 28  1  0  0  0  0
 26 29  1  0  0  0  0
 24 25  1  0  0  0  0
 24 26  1  0  0  0  0
M  END
$$$$
default_name
  -OEChem-02102213163D

 29 29  0     1  0  0  0  0  0999 V2000
   -3.6042   -3.5728    1.4576 H   0  0  0  0  0  0  0  0  0  0  0  0
   -3.5202   -2.6488    0.8866 C   0  0  0  0  0  0  0  0  0  0  0  0
   -4.2052   -1.9048    1.2896 H   0  0  0  0  0  0  0  0  0  0  0  0
   -3.7552   -2.8428   -0.1584 H   0  0  0  0  0  0  0  0  0  0  0  0
   -2.1052   -2.1358    0.9946 C   0  0  0  0  0  0  0  0  0  0  0  0
   -1.2852   -2.7288    1.6826 O   0  0  0  0  0  0  0  0  0  0  0  0
   -1.8202   -1.0288    0.3146 N   0  0  0  0  0  0  0  0  0  0  0  0
   -2.5542   -0.5788   -0.2104 H   0  0  0  0  0  0  0  0  0  0  0  0
   -0.5102   -0.3728    0.3086 C   0  0  1  0  0  0  0  0  0  0  0  0
    0.0719   -0.7468    1.1521 H   0  0  0  0  0  0  0  0  0  0  0  0
    0.2338   -0.7427   -0.9878 C   0  0  0  0  0  0  0  0  0  0  0  0
    0.2352    0.1192   -1.6574 H   0  0  0  0  0  0  0  0  0  0  0  0
    1.2711   -0.9820   -0.7467 H   0  0  0  0  0  0  0  0  0  0  0  0
   -0.3701   -1.9149   -1.7168 C   0  0  0  0  0  0  0  0  0  0  0  0
   -1.4777   -2.6362   -1.3257 N   0  0  0  0  0  0  0  0  0  0  0  0
   -1.9854   -2.5244   -0.4609 H   0  0  0  0  0  0  0  0  0  0  0  0
   -1.7616   -3.5208   -2.2964 C   0  0  0  0  0  0  0  0  0  0  0  0
   -2.5764   -4.2342   -2.2745 H   0  0  0  0  0  0  0  0  0  0  0  0
   -0.8906   -3.3954   -3.3083 N   0  0  0  0  0  0  0  0  0  0  0  0
    0.0010   -2.3810   -2.9499 C   0  0  0  0  0  0  0  0  0  0  0  0
    0.8168   -2.0045   -3.5535 H   0  0  0  0  0  0  0  0  0  0  0  0
   -0.6600    1.1486    0.4782 C   0  0  0  0  0  0  0  0  0  0  0  0
   -1.5001    1.7648   -0.1771 O   0  0  0  0  0  0  0  0  0  0  0  0
    0.1634    1.7559    1.3418 N   0  0  0  0  0  0  0  0  0  0  0  0
    0.8618    1.1897    1.8008 H   0  0  0  0  0  0  0  0  0  0  0  0
    0.1509    3.1886    1.6256 C   0  0  0  0  0  0  0  0  0  0  0  0
   -0.8272    3.4794    2.0152 H   0  0  0  0  0  0  0  0  0  0  0  0
    0.9172    3.4314    2.3624 H   0  0  0  0  0  0  0  0  0  0  0  0
    0.3414    3.7499    0.7095 H   0  0  0  0  0  0  0  0  0  0  0  0
  5  6  2  0  0  0  0
  5  7  1  0  0  0  0
  2  3  1  0  0  0  0
  2  4  1  0  0  0  0
  2  5  1  0  0  0  0
  1  2  1  0  0  0  0
 22 23  2  0  0  0  0
 22 24  1  0  0  0  0
 20 21  1  0  0  0  0
 19 20  1  0  0  0  0
 17 18  1  0  0  0  0
 17 19  2  0  0  0  0
 15 16  1  0  0  0  0
 15 17  1  0  0  0  0
 14 15  1  0  0  0  0
 14 20  2  0  0  0  0
 11 12  1  0  0  0  0
 11 13  1  0  0  0  0
 11 14  1  0  0  0  0
  9 10  1  0  0  0  0
  9 11  1  0  0  0  0
  9 22  1  0  0  0  0
  7  8  1  0  0  0  0
  7  9  1  0  0  0  0
 26 27  1  0  0  0  0
 26 28  1  0  0  0  0
 26 29  1  0  0  0  0
 24 25  1  0  0  0  0
 24 26  1  0  0  0  0
M  END
$$$$
default_name
  -OEChem-02102213163D

 29 29  0     1  0  0  0  0  0999 V2000
   -3.6042   -3.5728    1.4576 H   0  0  0  0  0  0  0  0  0  0  0  0
   -3.5202   -2.6488    0.8866 C   0  0  0  0  0  0  0  0  0  0  0  0
   -4.2052   -1.9048    1.2896 H   0  0  0  0  0  0  0  0  0  0  0  0
   -3.7552   -2.8428   -0.1584 H   0  0  0  0  0  0  0  0  0  0  0  0
   -2.1052   -2.1358    0.9946 C   0  0  0  0  0  0  0  0  0  0  0  0
   -1.2852   -2.7288    1.6826 O   0  0  0  0  0  0  0  0  0  0  0  0
   -1.8202   -1.0288    0.3146 N   0  0  0  0  0  0  0  0  0  0  0  0
   -2.5542   -0.5788   -0.2104 H   0  0  0  0  0  0  0  0  0  0  0  0
   -0.5102   -0.3728    0.3086 C   0  0  1  0  0  0  0  0  0  0  0  0
    0.0719   -0.7468    1.1521 H   0  0  0  0  0  0  0  0  0  0  0  0
    0.2338   -0.7427   -0.9878 C   0  0  0  0  0  0  0  0  0  0  0  0
    0.2352    0.1192   -1.6574 H   0  0  0  0  0  0  0  0  0  0  0  0
    1.2711   -0.9820   -0.7467 H   0  0  0  0  0  0  0  0  0  0  0  0
   -0.3701   -1.9149   -1.7168 C   0  0  0  0  0  0  0  0  0  0  0  0
   -1.6201   -2.4540   -1.5007 N   0  0  0  0  0  0  0  0  0  0  0  0
   -2.2666   -2.1847   -0.7742 H   0  0  0  0  0  0  0  0  0  0  0  0
   -1.8271   -3.4073   -2.4247 C   0  0  0  0  0  0  0  0  0  0  0  0
   -2.7197   -4.0151   -2.5080 H   0  0  0  0  0  0  0  0  0  0  0  0
   -0.7669   -3.5013   -3.2405 N   0  0  0  0  0  0  0  0  0  0  0  0
    0.1672   -2.5609   -2.7982 C   0  0  0  0  0  0  0  0  0  0  0  0
    1.1284   -2.3534   -3.2506 H   0  0  0  0  0  0  0  0  0  0  0  0
   -0.6600    1.1486    0.4782 C   0  0  0  0  0  0  0  0  0  0  0  0
   -1.5001    1.7648   -0.1771 O   0  0  0  0  0  0  0  0  0  0  0  0
    0.1634    1.7559    1.3418 N   0  0  0  0  0  0  0  0  0  0  0  0
    0.8618    1.1897    1.8008 H   0  0  0  0  0  0  0  0  0  0  0  0
    0.1509    3.1886    1.6256 C   0  0  0  0  0  0  0  0  0  0  0  0
   -0.8272    3.4794    2.0152 H   0  0  0  0  0  0  0  0  0  0  0  0
    0.9172    3.4314    2.3624 H   0  0  0  0  0  0  0  0  0  0  0  0
    0.3414    3.7499    0.7095 H   0  0  0  0  0  0  0  0  0  0  0  0
  5  6  2  0  0  0  0
  5  7  1  0  0  0  0
  2  3  1  0  0  0  0
  2  4  1  0  0  0  0
  2  5  1  0  0  0  0
  1  2  1  0  0  0  0
 22 23  2  0  0  0  0
 22 24  1  0  0  0  0
 20 21  1  0  0  0  0
 19 20  1  0  0  0  0
 17 18  1  0  0  0  0
 17 19  2  0  0  0  0
 15 16  1  0  0  0  0
 15 17  1  0  0  0  0
 14 15  1  0  0  0  0
 14 20  2  0  0  0  0
 11 12  1  0  0  0  0
 11 13  1  0  0  0  0
 11 14  1  0  0  0  0
  9 10  1  0  0  0  0
  9 11  1  0  0  0  0
  9 22  1  0  0  0  0
  7  8  1  0  0  0  0
  7  9  1  0  0  0  0
 26 27  1  0  0  0  0
 26 28  1  0  0  0  0
 26 29  1  0  0  0  0
 24 25  1  0  0  0  0
 24 26  1  0  0  0  0
M  END
$$$$
default_name
  -OEChem-02102213163D

 29 29  0     1  0  0  0  0  0999 V2000
   -3.6042   -3.5728    1.4576 H   0  0  0  0  0  0  0  0  0  0  0  0
   -3.5202   -2.6488    0.8866 C   0  0  0  0  0  0  0  0  0  0  0  0
   -4.2052   -1.9048    1.2896 H   0  0  0  0  0  0  0  0  0  0  0  0
   -3.7552   -2.8428   -0.1584 H   0  0  0  0  0  0  0  0  0  0  0  0
   -2.1052   -2.1358    0.9946 C   0  0  0  0  0  0  0  0  0  0  0  0
   -1.2852   -2.7288    1.6826 O   0  0  0  0  0  0  0  0  0  0  0  0
   -1.8202   -1.0288    0.3146 N   0  0  0  0  0  0  0  0  0  0  0  0
   -2.5542   -0.5788   -0.2104 H   0  0  0  0  0  0  0  0  0  0  0  0
   -0.5102   -0.3728    0.3086 C   0  0  1  0  0  0  0  0  0  0  0  0
    0.0719   -0.7468    1.1521 H   0  0  0  0  0  0  0  0  0  0  0  0
    0.2338   -0.7427   -0.9878 C   0  0  0  0  0  0  0  0  0  0  0  0
    0.2352    0.1192   -1.6574 H   0  0  0  0  0  0  0  0  0  0  0  0
    1.2711   -0.9820   -0.7467 H   0  0  0  0  0  0  0  0  0  0  0  0
   -0.3701   -1.9149   -1.7168 C   0  0  0  0  0  0  0  0  0  0  0  0
   -1.6997   -2.2783   -1.7173 N   0  0  0  0  0  0  0  0  0  0  0  0
   -2.4326   -1.8539   -1.1687 H   0  0  0  0  0  0  0  0  0  0  0  0
   -1.8503   -3.3027   -2.5735 C   0  0  0  0  0  0  0  0  0  0  0  0
   -2.7838   -3.8098   -2.7851 H   0  0  0  0  0  0  0  0  0  0  0  0
   -0.6743   -3.6120   -3.1390 N   0  0  0  0  0  0  0  0  0  0  0  0
    0.2747   -2.7399   -2.5995 C   0  0  0  0  0  0  0  0  0  0  0  0
    1.3246   -2.6980   -2.8591 H   0  0  0  0  0  0  0  0  0  0  0  0
   -0.6600    1.1486    0.4782 C   0  0  0  0  0  0  0  0  0  0  0  0
   -1.5001    1.7648   -0.1771 O   0  0  0  0  0  0  0  0  0  0  0  0
    0.1634    1.7559    1.3418 N   0  0  0  0  0  0  0  0  0  0  0  0
    0.8618    1.1897    1.8008 H   0  0  0  0  0  0  0  0  0  0  0  0
    0.1509    3.1886    1.6256 C   0  0  0  0  0  0  0  0  0  0  0  0
   -0.8272    3.4794    2.0152 H   0  0  0  0  0  0  0  0  0  0  0  0
    0.9172    3.4314    2.3624 H   0  0  0  0  0  0  0  0  0  0  0  0
    0.3414    3.7499    0.7095 H   0  0  0  0  0  0  0  0  0  0  0  0
  5  6  2  0  0  0  0
  5  7  1  0  0  0  0
  2  3  1  0  0  0  0
  2  4  1  0  0  0  0
  2  5  1  0  0  0  0
  1  2  1  0  0  0  0
 22 23  2  0  0  0  0
 22 24  1  0  0  0  0
 20 21  1  0  0  0  0
 19 20  1  0  0  0  0
 17 18  1  0  0  0  0
 17 19  2  0  0  0  0
 15 16  1  0  0  0  0
 15 17  1  0  0  0  0
 14 15  1  0  0  0  0
 14 20  2  0  0  0  0
 11 12  1  0  0  0  0
 11 13  1  0  0  0  0
 11 14  1  0  0  0  0
  9 10  1  0  0  0  0
  9 11  1  0  0  0  0
  9 22  1  0  0  0  0
  7  8  1  0  0  0  0
  7  9  1  0  0  0  0
 26 27  1  0  0  0  0
 26 28  1  0  0  0  0
 26 29  1  0  0  0  0
 24 25  1  0  0  0  0
 24 26  1  0  0  0  0
M  END
$$$$
default_name
  -OEChem-02102213163D

 29 29  0     1  0  0  0  0  0999 V2000
   -3.6042   -3.5728    1.4576 H   0  0  0  0  0  0  0  0  0  0  0  0
   -3.5202   -2.6488    0.8866 C   0  0  0  0  0  0  0  0  0  0  0  0
   -4.2052   -1.9048    1.2896 H   0  0  0  0  0  0  0  0  0  0  0  0
   -3.7552   -2.8428   -0.1584 H   0  0  0  0  0  0  0  0  0  0  0  0
   -2.1052   -2.1358    0.9946 C   0  0  0  0  0  0  0  0  0  0  0  0
   -1.2852   -2.7288    1.6826 O   0  0  0  0  0  0  0  0  0  0  0  0
   -1.8202   -1.0288    0.3146 N   0  0  0  0  0  0  0  0  0  0  0  0
   -2.5542   -0.5788   -0.2104 H   0  0  0  0  0  0  0  0  0  0  0  0
   -0.5102   -0.3728    0.3086 C   0  0  1  0  0  0  0  0  0  0  0  0
    0.0719   -0.7468    1.1521 H   0  0  0  0  0  0  0  0  0  0  0  0
    0.2338   -0.7427   -0.9878 C   0  0  0  0  0  0  0  0  0  0  0  0
    0.2352    0.1192   -1.6574 H   0  0  0  0  0  0  0  0  0  0  0  0
    1.2711   -0.9820   -0.7467 H   0  0  0  0  0  0  0  0  0  0  0  0
   -0.3701   -1.9149   -1.7168 C   0  0  0  0  0  0  0  0  0  0  0  0
   -1.7110   -2.1211   -1.9608 N   0  0  0  0  0  0  0  0  0  0  0  0
   -2.4721   -1.5544   -1.6175 H   0  0  0  0  0  0  0  0  0  0  0  0
   -1.8297   -3.2143   -2.7329 C   0  0  0  0  0  0  0  0  0  0  0  0
   -2.7641   -3.6322   -3.0869 H   0  0  0  0  0  0  0  0  0  0  0  0
   -0.6192   -3.7201   -3.0109 N   0  0  0  0  0  0  0  0  0  0  0  0
    0.3161   -2.9055   -2.3674 C   0  0  0  0  0  0  0  0  0  0  0  0
    1.3922   -3.0148   -2.4056 H   0  0  0  0  0  0  0  0  0  0  0  0
   -0.6600    1.1486    0.4782 C   0  0  0  0  0  0  0  0  0  0  0  0
   -1.5001    1.7648   -0.1771 O   0  0  0  0  0  0  0  0  0  0  0  0
    0.1634    1.7559    1.3418 N   0  0  0  0  0  0  0  0  0  0  0  0
    0.8618    1.1897    1.8008 H   0  0  0  0  0  0  0  0  0  0  0  0
    0.1509    3.1886    1.6256 C   0  0  0  0  0  0  0  0  0  0  0  0
   -0.8272    3.4794    2.0152 H   0  0  0  0  0  0  0  0  0  0  0  0
    0.9172    3.4314    2.3624 H   0  0  0  0  0  0  0  0  0  0  0  0
    0.3414    3.7499    0.7095 H   0  0  0  0  0  0  0  0  0  0  0  0
  5  6  2  0  0  0  0
  5  7  1  0  0  0  0
  2  3  1  0  0  0  0
  2  4  1  0  0  0  0
  2  5  1  0  0  0  0
  1  2  1  0  0  0  0
 22 23  2  0  0  0  0
 22 24  1  0  0  0  0
 20 21  1  0  0  0  0
 19 20  1  0  0  0  0
 17 18  1  0  0  0  0
 17 19  2  0  0  0  0
 15 16  1  0  0  0  0
 15 17  1  0  0  0  0
 14 15  1  0  0  0  0
 14 20  2  0  0  0  0
 11 12  1  0  0  0  0
 11 13  1  0  0  0  0
 11 14  1  0  0  0  0
  9 10  1  0  0  0  0
  9 11  1  0  0  0  0
  9 22  1  0  0  0  0
  7  8  1  0  0  0  0
  7  9  1  0  0  0  0
 26 27  1  0  0  0  0
 26 28  1  0  0  0  0
 26 29  1  0  0  0  0
 24 25  1  0  0  0  0
 24 26  1  0  0  0  0
M  END
$$$$
default_name
  -OEChem-02102213163D

 29 29  0     1  0  0  0  0  0999 V2000
   -3.6042   -3.5728    1.4576 H   0  0  0  0  0  0  0  0  0  0  0  0
   -3.5202   -2.6488    0.8866 C   0  0  0  0  0  0  0  0  0  0  0  0
   -4.2052   -1.9048    1.2896 H   0  0  0  0  0  0  0  0  0  0  0  0
   -3.7552   -2.8428   -0.1584 H   0  0  0  0  0  0  0  0  0  0  0  0
   -2.1052   -2.1358    0.9946 C   0  0  0  0  0  0  0  0  0  0  0  0
   -1.2852   -2.7288    1.6826 O   0  0  0  0  0  0  0  0  0  0  0  0
   -1.8202   -1.0288    0.3146 N   0  0  0  0  0  0  0  0  0  0  0  0
   -2.5542   -0.5788   -0.2104 H   0  0  0  0  0  0  0  0  0  0  0  0
   -0.5102   -0.3728    0.3086 C   0  0  1  0  0  0  0  0  0  0  0  0
    0.0719   -0.7468    1.1521 H   0  0  0  0  0  0  0  0  0  0  0  0
    0.2338   -0.7427   -0.9878 C   0  0  0  0  0  0  0  0  0  0  0  0
    0.2352    0.1192   -1.6574 H   0  0  0  0  0  0  0  0  0  0  0  0
    1.2711   -0.9820   -0.7467 H   0  0  0  0  0  0  0  0  0  0  0  0
   -0.3701   -1.9149   -1.7168 C   0  0  0  0  0  0  0  0  0  0  0  0
   -1.6531   -1.9930   -2.2145 N   0  0  0  0  0  0  0  0  0  0  0  0
   -2.3823   -1.3068   -2.0901 H   0  0  0  0  0  0  0  0  0  0  0  0
   -1.7666   -3.1480   -2.8918 C   0  0  0  0  0  0  0  0  0  0  0  0
   -2.6621   -3.4944   -3.3929 H   0  0  0  0  0  0  0  0  0  0  0  0
   -0.6053   -3.8181   -2.8649 N   0  0  0  0  0  0  0  0  0  0  0  0
    0.2886   -3.0467   -2.1177 C   0  0  0  0  0  0  0  0  0  0  0  0
    1.3265   -3.2823   -1.9212 H   0  0  0  0  0  0  0  0  0  0  0  0
   -0.6600    1.1486    0.4782 C   0  0  0  0  0  0  0  0  0  0  0  0
   -1.5001    1.7648   -0.1771 O   0  0  0  0  0  0  0  0  0  0  0  0
    0.1634    1.7559    1.3418 N   0  0  0  0  0  0  0  0  0  0  0  0
    0.8618    1.1897    1.8008 H   0  0  0  0  0  0  0  0  0  0  0  0
    0.1509    3.1886    1.6256 C   0  0  0  0  0  0  0  0  0  0  0  0
   -0.8272    3.4794    2.0152 H   0  0  0  0  0  0  0  0  0  0  0  0
    0.9172    3.4314    2.3624 H   0  0  0  0  0  0  0  0  0  0  0  0
    0.3414    3.7499    0.7095 H   0  0  0  0  0  0  0  0  0  0  0  0
  5  6  2  0  0  0  0
  5  7  1  0  0  0  0
  2  3  1  0  0  0  0
  2  4  1  0  0  0  0
  2  5  1  0  0  0  0
  1  2  1  0  0  0  0
 22 23  2  0  0  0  0
 22 24  1  0  0  0  0
 20 21  1  0  0  0  0
 19 20  1  0  0  0  0
 17 18  1  0  0  0  0
 17 19  2  0  0  0  0
 15 16  1  0  0  0  0
 15 17  1  0  0  0  0
 14 15  1  0  0  0  0
 14 20  2  0  0  0  0
 11 12  1  0  0  0  0
 11 13  1  0  0  0  0
 11 14  1  0  0  0  0
  9 10  1  0  0  0  0
  9 11  1  0  0  0  0
  9 22  1  0  0  0  0
  7  8  1  0  0  0  0
  7  9  1  0  0  0  0
 26 27  1  0  0  0  0
 26 28  1  0  0  0  0
 26 29  1  0  0  0  0
 24 25  1  0  0  0  0
 24 26  1  0  0  0  0
M  END
$$$$
default_name
  -OEChem-02102213163D

 29 29  0     1  0  0  0  0  0999 V2000
   -3.6042   -3.5728    1.4576 H   0  0  0  0  0  0  0  0  0  0  0  0
   -3.5202   -2.6488    0.8866 C   0  0  0  0  0  0  0  0  0  0  0  0
   -4.2052   -1.9048    1.2896 H   0  0  0  0  0  0  0  0  0  0  0  0
   -3.7552   -2.8428   -0.1584 H   0  0  0  0  0  0  0  0  0  0  0  0
   -2.1052   -2.1358    0.9946 C   0  0  0  0  0  0  0  0  0  0  0  0
   -1.2852   -2.7288    1.6826 O   0  0  0  0  0  0  0  0  0  0  0  0
   -1.8202   -1.0288    0.3146 N   0  0  0  0  0  0  0  0  0  0  0  0
   -2.5542   -0.5788   -0.2104 H   0  0  0  0  0  0  0  0  0  0  0  0
   -0.5102   -0.3728    0.3086 C   0  0  1  0  0  0  0  0  0  0  0  0
    0.0719   -0.7468    1.1521 H   0  0  0  0  0  0  0  0  0  0  0  0
    0.2338   -0.7427   -0.9878 C   0  0  0  0  0  0  0  0  0  0  0  0
    0.2352    0.1192   -1.6574 H   0  0  0  0  0  0  0  0  0  0  0  0
    1.2711   -0.9820   -0.7467 H   0  0  0  0  0  0  0  0  0  0  0  0
   -0.3701   -1.9149   -1.7168 C   0  0  0  0  0  0  0  0  0  0  0  0
   -1.5301   -1.9030   -2.4613 N   0  0  0  0  0  0  0  0  0  0  0  0
   -2.1695   -1.1279   -2.5541 H   0  0  0  0  0  0  0  0  0  0  0  0
   -1.6653   -3.1083   -3.0395 C   0  0  0  0  0  0  0  0  0  0  0  0
   -2.4847   -3.4059   -3.6823 H   0  0  0  0  0  0  0  0  0  0  0  0
   -0.6335   -3.8994   -2.7108 N   0  0  0  0  0  0  0  0  0  0  0  0
    0.1941   -3.1537   -1.8674 C   0  0  0  0  0  0  0  0  0  0  0  0
    1.1321   -3.4821   -1.4387 H   0  0  0  0  0  0  0  0  0  0  0  0
   -0.6600    1.1486    0.4782 C   0  0  0  0  0  0  0  0  0  0  0  0
   -1.5001    1.7648   -0.1771 O   0  0  0  0  0  0  0  0  0  0  0  0
    0.1634    1.7559    1.3418 N   0  0  0  0  0  0  0  0  0  0  0  0
    0.8618    1.1897    1.8008 H   0  0  0  0  0  0  0  0  0  0  0  0
    0.1509    3.1886    1.6256 C   0  0  0  0  0  0  0  0  0  0  0  0
   -0.8272    3.4794    2.0152 H   0  0  0  0  0  0  0  0  0  0  0  0
    0.9172    3.4314    2.3624 H   0  0  0  0  0  0  0  0  0  0  0  0
    0.3414    3.7499    0.7095 H   0  0  0  0  0  0  0  0  0  0  0  0
  5  6  2  0  0  0  0
  5  7  1  0  0  0  0
  2  3  1  0  0  0  0
  2  4  1  0  0  0  0
  2  5  1  0  0  0  0
  1  2  1  0  0  0  0
 22 23  2  0  0  0  0
 22 24  1  0  0  0  0
 20 21  1  0  0  0  0
 19 20  1  0  0  0  0
 17 18  1  0  0  0  0
 17 19  2  0  0  0  0
 15 16  1  0  0  0  0
 15 17  1  0  0  0  0
 14 15  1  0  0  0  0
 14 20  2  0  0  0  0
 11 12  1  0  0  0  0
 11 13  1  0  0  0  0
 11 14  1  0  0  0  0
  9 10  1  0  0  0  0
  9 11  1  0  0  0  0
  9 22  1  0  0  0  0
  7  8  1  0  0  0  0
  7  9  1  0  0  0  0
 26 27  1  0  0  0  0
 26 28  1  0  0  0  0
 26 29  1  0  0  0  0
 24 25  1  0  0  0  0
 24 26  1  0  0  0  0
M  END
$$$$
default_name
  -OEChem-02102213163D

 29 29  0     1  0  0  0  0  0999 V2000
   -3.6042   -3.5728    1.4576 H   0  0  0  0  0  0  0  0  0  0  0  0
   -3.5202   -2.6488    0.8866 C   0  0  0  0  0  0  0  0  0  0  0  0
   -4.2052   -1.9048    1.2896 H   0  0  0  0  0  0  0  0  0  0  0  0
   -3.7552   -2.8428   -0.1584 H   0  0  0  0  0  0  0  0  0  0  0  0
   -2.1052   -2.1358    0.9946 C   0  0  0  0  0  0  0  0  0  0  0  0
   -1.2852   -2.7288    1.6826 O   0  0  0  0  0  0  0  0  0  0  0  0
   -1.8202   -1.0288    0.3146 N   0  0  0  0  0  0  0  0  0  0  0  0
   -2.5542   -0.5788   -0.2104 H   0  0  0  0  0  0  0  0  0  0  0  0
   -0.5102   -0.3728    0.3086 C   0  0  1  0  0  0  0  0  0  0  0  0
    0.0719   -0.7468    1.1521 H   0  0  0  0  0  0  0  0  0  0  0  0
    0.2338   -0.7427   -0.9878 C   0  0  0  0  0  0  0  0  0  0  0  0
    0.2352    0.1192   -1.6574 H   0  0  0  0  0  0  0  0  0  0  0  0
    1.2711   -0.9820   -0.7467 H   0  0  0  0  0  0  0  0  0  0  0  0
   -0.3701   -1.9149   -1.7168 C   0  0  0  0  0  0  0  0  0  0  0  0
   -1.3503   -1.8569   -2.6842 N   0  0  0  0  0  0  0  0  0  0  0  0
   -1.8480   -1.0298   -2.9780 H   0  0  0  0  0  0  0  0  0  0  0  0
   -1.5328   -3.0980   -3.1658 C   0  0  0  0  0  0  0  0  0  0  0  0
   -2.2440   -3.3726   -3.9353 H   0  0  0  0  0  0  0  0  0  0  0  0
   -0.7020   -3.9583   -2.5593 N   0  0  0  0  0  0  0  0  0  0  0  0
    0.0390   -3.2192   -1.6335 C   0  0  0  0  0  0  0  0  0  0  0  0
    0.8220   -3.6008   -0.9911 H   0  0  0  0  0  0  0  0  0  0  0  0
   -0.6600    1.1486    0.4782 C   0  0  0  0  0  0  0  0  0  0  0  0
   -1.5001    1.7648   -0.1771 O   0  0  0  0  0  0  0  0  0  0  0  0
    0.1634    1.7559    1.3418 N   0  0  0  0  0  0  0  0  0  0  0  0
    0.8618    1.1897    1.8008 H   0  0  0  0  0  0  0  0  0  0  0  0
    0.1509    3.1886    1.6256 C   0  0  0  0  0  0  0  0  0  0  0  0
   -0.8272    3.4794    2.0152 H   0  0  0  0  0  0  0  0  0  0  0  0
    0.9172    3.4314    2.3624 H   0  0  0  0  0  0  0  0  0  0  0  0
    0.3414    3.7499    0.7095 H   0  0  0  0  0  0  0  0  0  0  0  0
  5  6  2  0  0  0  0
  5  7  1  0  0  0  0
  2  3  1  0  0  0  0
  2  4  1  0  0  0  0
  2  5  1  0  0  0  0
  1  2  1  0  0  0  0
 22 23  2  0  0  0  0
 22 24  1  0  0  0  0
 20 21  1  0  0  0  0
 19 20  1  0  0  0  0
 17 18  1  0  0  0  0
 17 19  2  0  0  0  0
 15 16  1  0  0  0  0
 15 17  1  0  0  0  0
 14 15  1  0  0  0  0
 14 20  2  0  0  0  0
 11 12  1  0  0  0  0
 11 13  1  0  0  0  0
 11 14  1  0  0  0  0
  9 10  1  0  0  0  0
  9 11  1  0  0  0  0
  9 22  1  0  0  0  0
  7  8  1  0  0  0  0
  7  9  1  0  0  0  0
 26 27  1  0  0  0  0
 26 28  1  0  0  0  0
 26 29  1  0  0  0  0
 24 25  1  0  0  0  0
 24 26  1  0  0  0  0
M  END
$$$$
default_name
  -OEChem-02102213163D

 29 29  0     1  0  0  0  0  0999 V2000
   -3.6042   -3.5728    1.4576 H   0  0  0  0  0  0  0  0  0  0  0  0
   -3.5202   -2.6488    0.8866 C   0  0  0  0  0  0  0  0  0  0  0  0
   -4.2052   -1.9048    1.2896 H   0  0  0  0  0  0  0  0  0  0  0  0
   -3.7552   -2.8428   -0.1584 H   0  0  0  0  0  0  0  0  0  0  0  0
   -2.1052   -2.1358    0.9946 C   0  0  0  0  0  0  0  0  0  0  0  0
   -1.2852   -2.7288    1.6826 O   0  0  0  0  0  0  0  0  0  0  0  0
   -1.8202   -1.0288    0.3146 N   0  0  0  0  0  0  0  0  0  0  0  0
   -2.5542   -0.5788   -0.2104 H   0  0  0  0  0  0  0  0  0  0  0  0
   -0.5102   -0.3728    0.3086 C   0  0  1  0  0  0  0  0  0  0  0  0
    0.0719   -0.7468    1.1521 H   0  0  0  0  0  0  0  0  0  0  0  0
    0.2338   -0.7427   -0.9878 C   0  0  0  0  0  0  0  0  0  0  0  0
    0.2352    0.1192   -1.6574 H   0  0  0  0  0  0  0  0  0  0  0  0
    1.2711   -0.9820   -0.7467 H   0  0  0  0  0  0  0  0  0  0  0  0
   -0.3701   -1.9149   -1.7168 C   0  0  0  0  0  0  0  0  0  0  0  0
   -1.1260   -1.8581   -2.8681 N   0  0  0  0  0  0  0  0  0  0  0  0
   -1.4399   -1.0193   -3.3329 H   0  0  0  0  0  0  0  0  0  0  0  0
   -1.3781   -3.1177   -3.2623 C   0  0  0  0  0  0  0  0  0  0  0  0
   -1.9564   -3.3968   -4.1346 H   0  0  0  0  0  0  0  0  0  0  0  0
   -0.8060   -3.9910   -2.4206 N   0  0  0  0  0  0  0  0  0  0  0  0
   -0.1661   -3.2388   -1.4321 C   0  0  0  0  0  0  0  0  0  0  0  0
    0.4176   -3.6301   -0.6089 H   0  0  0  0  0  0  0  0  0  0  0  0
   -0.6600    1.1486    0.4782 C   0  0  0  0  0  0  0  0  0  0  0  0
   -1.5001    1.7648   -0.1771 O   0  0  0  0  0  0  0  0  0  0  0  0
    0.1634    1.7559    1.3418 N   0  0  0  0  0  0  0  0  0  0  0  0
    0.8618    1.1897    1.8008 H   0  0  0  0  0  0  0  0  0  0  0  0
    0.1509    3.1886    1.6256 C   0  0  0  0  0  0  0  0  0  0  0  0
   -0.8272    3.4794    2.0152 H   0  0  0  0  0  0  0  0  0  0  0  0
    0.9172    3.4314    2.3624 H   0  0  0  0  0  0  0  0  0  0  0  0
    0.3414    3.7499    0.7095 H   0  0  0  0  0  0  0  0  0  0  0  0
  5  6  2  0  0  0  0
  5  7  1  0  0  0  0
  2  3  1  0  0  0  0
  2  4  1  0  0  0  0
  2  5  1  0  0  0  0
  1  2  1  0  0  0  0
 22 23  2  0  0  0  0
 22 24  1  0  0  0  0
 20 21  1  0  0  0  0
 19 20  1  0  0  0  0
 17 18  1  0  0  0  0
 17 19  2  0  0  0  0
 15 16  1  0  0  0  0
 15 17  1  0  0  0  0
 14 15  1  0  0  0  0
 14 20  2  0  0  0  0
 11 12  1  0  0  0  0
 11 13  1  0  0  0  0
 11 14  1  0  0  0  0
  9 10  1  0  0  0  0
  9 11  1  0  0  0  0
  9 22  1  0  0  0  0
  7  8  1  0  0  0  0
  7  9  1  0  0  0  0
 26 27  1  0  0  0  0
 26 28  1  0  0  0  0
 26 29  1  0  0  0  0
 24 25  1  0  0  0  0
 24 26  1  0  0  0  0
M  END
$$$$
default_name
  -OEChem-02102213163D

 29 29  0     1  0  0  0  0  0999 V2000
   -3.6042   -3.5728    1.4576 H   0  0  0  0  0  0  0  0  0  0  0  0
   -3.5202   -2.6488    0.8866 C   0  0  0  0  0  0  0  0  0  0  0  0
   -4.2052   -1.9048    1.2896 H   0  0  0  0  0  0  0  0  0  0  0  0
   -3.7552   -2.8428   -0.1584 H   0  0  0  0  0  0  0  0  0  0  0  0
   -2.1052   -2.1358    0.9946 C   0  0  0  0  0  0  0  0  0  0  0  0
   -1.2852   -2.7288    1.6826 O   0  0  0  0  0  0  0  0  0  0  0  0
   -1.8202   -1.0288    0.3146 N   0  0  0  0  0  0  0  0  0  0  0  0
   -2.5542   -0.5788   -0.2104 H   0  0  0  0  0  0  0  0  0  0  0  0
   -0.5102   -0.3728    0.3086 C   0  0  1  0  0  0  0  0  0  0  0  0
    0.0719   -0.7468    1.1521 H   0  0  0  0  0  0  0  0  0  0  0  0
    0.2338   -0.7427   -0.9878 C   0  0  0  0  0  0  0  0  0  0  0  0
    0.2352    0.1192   -1.6574 H   0  0  0  0  0  0  0  0  0  0  0  0
    1.2711   -0.9820   -0.7467 H   0  0  0  0  0  0  0  0  0  0  0  0
   -0.3701   -1.9149   -1.7168 C   0  0  0  0  0  0  0  0  0  0  0  0
   -0.8725   -1.9064   -3.0004 N   0  0  0  0  0  0  0  0  0  0  0  0
   -0.9729   -1.0971   -3.5946 H   0  0  0  0  0  0  0  0  0  0  0  0
   -1.2116   -3.1661   -3.3223 C   0  0  0  0  0  0  0  0  0  0  0  0
   -1.6415   -3.4768   -4.2667 H   0  0  0  0  0  0  0  0  0  0  0  0
   -0.9385   -3.9951   -2.3042 N   0  0  0  0  0  0  0  0  0  0  0  0
   -0.4073   -3.2112   -1.2767 C   0  0  0  0  0  0  0  0  0  0  0  0
   -0.0538   -3.5682   -0.3181 H   0  0  0  0  0  0  0  0  0  0  0  0
   -0.6600    1.1486    0.4782 C   0  0  0  0  0  0  0  0  0  0  0  0
   -1.5001    1.7648   -0.1771 O   0  0  0  0  0  0  0  0  0  0  0  0
    0.1634    1.7559    1.3418 N   0  0  0  0  0  0  0  0  0  0  0  0
    0.8618    1.1897    1.8008 H   0  0  0  0  0  0  0  0  0  0  0  0
    0.1509    3.1886    1.6256 C   0  0  0  0  0  0  0  0  0  0  0  0
   -0.8272    3.4794    2.0152 H   0  0  0  0  0  0  0  0  0  0  0  0
    0.9172    3.4314    2.3624 H   0  0  0  0  0  0  0  0  0  0  0  0
    0.3414    3.7499    0.7095 H   0  0  0  0  0  0  0  0  0  0  0  0
  5  6  2  0  0  0  0
  5  7  1  0  0  0  0
  2  3  1  0  0  0  0
  2  4  1  0  0  0  0
  2  5  1  0  0  0  0
  1  2  1  0  0  0  0
 22 23  2  0  0  0  0
 22 24  1  0  0  0  0
 20 21  1  0  0  0  0
 19 20  1  0  0  0  0
 17 18  1  0  0  0  0
 17 19  2  0  0  0  0
 15 16  1  0  0  0  0
 15 17  1  0  0  0  0
 14 15  1  0  0  0  0
 14 20  2  0  0  0  0
 11 12  1  0  0  0  0
 11 13  1  0  0  0  0
 11 14  1  0  0  0  0
  9 10  1  0  0  0  0
  9 11  1  0  0  0  0
  9 22  1  0  0  0  0
  7  8  1  0  0  0  0
  7  9  1  0  0  0  0
 26 27  1  0  0  0  0
 26 28  1  0  0  0  0
 26 29  1  0  0  0  0
 24 25  1  0  0  0  0
 24 26  1  0  0  0  0
M  END
$$$$
default_name
  -OEChem-02102213163D

 29 29  0     1  0  0  0  0  0999 V2000
   -3.6042   -3.5728    1.4576 H   0  0  0  0  0  0  0  0  0  0  0  0
   -3.5202   -2.6488    0.8866 C   0  0  0  0  0  0  0  0  0  0  0  0
   -4.2052   -1.9048    1.2896 H   0  0  0  0  0  0  0  0  0  0  0  0
   -3.7552   -2.8428   -0.1584 H   0  0  0  0  0  0  0  0  0  0  0  0
   -2.1052   -2.1358    0.9946 C   0  0  0  0  0  0  0  0  0  0  0  0
   -1.2852   -2.7288    1.6826 O   0  0  0  0  0  0  0  0  0  0  0  0
   -1.8202   -1.0288    0.3146 N   0  0  0  0  0  0  0  0  0  0  0  0
   -2.5542   -0.5788   -0.2104 H   0  0  0  0  0  0  0  0  0  0  0  0
   -0.5102   -0.3728    0.3086 C   0  0  1  0  0  0  0  0  0  0  0  0
    0.0719   -0.7468    1.1521 H   0  0  0  0  0  0  0  0  0  0  0  0
    0.2338   -0.7427   -0.9878 C   0  0  0  0  0  0  0  0  0  0  0  0
    0.2352    0.1192   -1.6574 H   0  0  0  0  0  0  0  0  0  0  0  0
    1.2711   -0.9820   -0.7467 H   0  0  0  0  0  0  0  0  0  0  0  0
   -0.3701   -1.9149   -1.7168 C   0  0  0  0  0  0  0  0  0  0  0  0
   -0.6070   -1.9986   -3.0722 N   0  0  0  0  0  0  0  0  0  0  0  0
   -0.4789   -1.2579   -3.7454 H   0  0  0  0  0  0  0  0  0  0  0  0
   -1.0449   -3.2400   -3.3416 C   0  0  0  0  0  0  0  0  0  0  0  0
   -1.3207   -3.6073   -4.3226 H   0  0  0  0  0  0  0  0  0  0  0  0
   -1.0905   -3.9705   -2.2180 N   0  0  0  0  0  0  0  0  0  0  0  0
   -0.6680   -3.1382   -1.1781 C   0  0  0  0  0  0  0  0  0  0  0  0
   -0.5598   -3.4192   -0.1385 H   0  0  0  0  0  0  0  0  0  0  0  0
   -0.6600    1.1486    0.4782 C   0  0  0  0  0  0  0  0  0  0  0  0
   -1.5001    1.7648   -0.1771 O   0  0  0  0  0  0  0  0  0  0  0  0
    0.1634    1.7559    1.3418 N   0  0  0  0  0  0  0  0  0  0  0  0
    0.8618    1.1897    1.8008 H   0  0  0  0  0  0  0  0  0  0  0  0
    0.1509    3.1886    1.6256 C   0  0  0  0  0  0  0  0  0  0  0  0
   -0.8272    3.4794    2.0152 H   0  0  0  0  0  0  0  0  0  0  0  0
    0.9172    3.4314    2.3624 H   0  0  0  0  0  0  0  0  0  0  0  0
    0.3414    3.7499    0.7095 H   0  0  0  0  0  0  0  0  0  0  0  0
  5  6  2  0  0  0  0
  5  7  1  0  0  0  0
  2  3  1  0  0  0  0
  2  4  1  0  0  0  0
  2  5  1  0  0  0  0
  1  2  1  0  0  0  0
 22 23  2  0  0  0  0
 22 24  1  0  0  0  0
 20 21  1  0  0  0  0
 19 20  1  0  0  0  0
 17 18  1  0  0  0  0
 17 19  2  0  0  0  0
 15 16  1  0  0  0  0
 15 17  1  0  0  0  0
 14 15  1  0  0  0  0
 14 20  2  0  0  0  0
 11 12  1  0  0  0  0
 11 13  1  0  0  0  0
 11 14  1  0  0  0  0
  9 10  1  0  0  0  0
  9 11  1  0  0  0  0
  9 22  1  0  0  0  0
  7  8  1  0  0  0  0
  7  9  1  0  0  0  0
 26 27  1  0  0  0  0
 26 28  1  0  0  0  0
 26 29  1  0  0  0  0
 24 25  1  0  0  0  0
 24 26  1  0  0  0  0
M  END
$$$$
default_name
  -OEChem-02102213163D

 29 29  0     1  0  0  0  0  0999 V2000
   -3.6042   -3.5728    1.4576 H   0  0  0  0  0  0  0  0  0  0  0  0
   -3.5202   -2.6488    0.8866 C   0  0  0  0  0  0  0  0  0  0  0  0
   -4.2052   -1.9048    1.2896 H   0  0  0  0  0  0  0  0  0  0  0  0
   -3.7552   -2.8428   -0.1584 H   0  0  0  0  0  0  0  0  0  0  0  0
   -2.1052   -2.1358    0.9946 C   0  0  0  0  0  0  0  0  0  0  0  0
   -1.2852   -2.7288    1.6826 O   0  0  0  0  0  0  0  0  0  0  0  0
   -1.8202   -1.0288    0.3146 N   0  0  0  0  0  0  0  0  0  0  0  0
   -2.5542   -0.5788   -0.2104 H   0  0  0  0  0  0  0  0  0  0  0  0
   -0.5102   -0.3728    0.3086 C   0  0  1  0  0  0  0  0  0  0  0  0
    0.0719   -0.7468    1.1521 H   0  0  0  0  0  0  0  0  0  0  0  0
    0.2338   -0.7427   -0.9878 C   0  0  0  0  0  0  0  0  0  0  0  0
    0.2352    0.1192   -1.6574 H   0  0  0  0  0  0  0  0  0  0  0  0
    1.2711   -0.9820   -0.7467 H   0  0  0  0  0  0  0  0  0  0  0  0
   -0.3701   -1.9149   -1.7168 C   0  0  0  0  0  0  0  0  0  0  0  0
   -0.3476   -2.1283   -3.0785 N   0  0  0  0  0  0  0  0  0  0  0  0
    0.0086   -1.4907   -3.7748 H   0  0  0  0  0  0  0  0  0  0  0  0
   -0.8892   -3.3342   -3.3191 C   0  0  0  0  0  0  0  0  0  0  0  0
   -1.0160   -3.7793   -4.2984 H   0  0  0  0  0  0  0  0  0  0  0  0
   -1.2515   -3.9187   -2.1679 N   0  0  0  0  0  0  0  0  0  0  0  0
   -0.9306   -3.0248   -1.1430 C   0  0  0  0  0  0  0  0  0  0  0  0
   -1.0661   -3.1932   -0.0824 H   0  0  0  0  0  0  0  0  0  0  0  0
   -0.6600    1.1486    0.4782 C   0  0  0  0  0  0  0  0  0  0  0  0
   -1.5001    1.7648   -0.1771 O   0  0  0  0  0  0  0  0  0  0  0  0
    0.1634    1.7559    1.3418 N   0  0  0  0  0  0  0  0  0  0  0  0
    0.8618    1.1897    1.8008 H   0  0  0  0  0  0  0  0  0  0  0  0
    0.1509    3.1886    1.6256 C   0  0  0  0  0  0  0  0  0  0  0  0
   -0.8272    3.4794    2.0152 H   0  0  0  0  0  0  0  0  0  0  0  0
    0.9172    3.4314    2.3624 H   0  0  0  0  0  0  0  0  0  0  0  0
    0.3414    3.7499    0.7095 H   0  0  0  0  0  0  0  0  0  0  0  0
  5  6  2  0  0  0  0
  5  7  1  0  0  0  0
  2  3  1  0  0  0  0
  2  4  1  0  0  0  0
  2  5  1  0  0  0  0
  1  2  1  0  0  0  0
 22 23  2  0  0  0  0
 22 24  1  0  0  0  0
 20 21  1  0  0  0  0
 19 20  1  0  0  0  0
 17 18  1  0  0  0  0
 17 19  2  0  0  0  0
 15 16  1  0  0  0  0
 15 17  1  0  0  0  0
 14 15  1  0  0  0  0
 14 20  2  0  0  0  0
 11 12  1  0  0  0  0
 11 13  1  0  0  0  0
 11 14  1  0  0  0  0
  9 10  1  0  0  0  0
  9 11  1  0  0  0  0
  9 22  1  0  0  0  0
  7  8  1  0  0  0  0
  7  9  1  0  0  0  0
 26 27  1  0  0  0  0
 26 28  1  0  0  0  0
 26 29  1  0  0  0  0
 24 25  1  0  0  0  0
 24 26  1  0  0  0  0
M  END
$$$$
default_name
  -OEChem-02102213163D

 29 29  0     1  0  0  0  0  0999 V2000
   -3.6042   -3.5728    1.4576 H   0  0  0  0  0  0  0  0  0  0  0  0
   -3.5202   -2.6488    0.8866 C   0  0  0  0  0  0  0  0  0  0  0  0
   -4.2052   -1.9048    1.2896 H   0  0  0  0  0  0  0  0  0  0  0  0
   -3.7552   -2.8428   -0.1584 H   0  0  0  0  0  0  0  0  0  0  0  0
   -2.1052   -2.1358    0.9946 C   0  0  0  0  0  0  0  0  0  0  0  0
   -1.2852   -2.7288    1.6826 O   0  0  0  0  0  0  0  0  0  0  0  0
   -1.8202   -1.0288    0.3146 N   0  0  0  0  0  0  0  0  0  0  0  0
   -2.5542   -0.5788   -0.2104 H   0  0  0  0  0  0  0  0  0  0  0  0
   -0.5102   -0.3728    0.3086 C   0  0  1  0  0  0  0  0  0  0  0  0
    0.0719   -0.7468    1.1521 H   0  0  0  0  0  0  0  0  0  0  0  0
    0.2338   -0.7427   -0.9878 C   0  0  0  0  0  0  0  0  0  0  0  0
    0.2352    0.1192   -1.6574 H   0  0  0  0  0  0  0  0  0  0  0  0
    1.2711   -0.9820   -0.7467 H   0  0  0  0  0  0  0  0  0  0  0  0
   -0.3701   -1.9149   -1.7168 C   0  0  0  0  0  0  0  0  0  0  0  0
   -0.1121   -2.2867   -3.0189 N   0  0  0  0  0  0  0  0  0  0  0  0
    0.4562   -1.7797   -3.6809 H   0  0  0  0  0  0  0  0  0  0  0  0
   -0.7551   -3.4424   -3.2563 C   0  0  0  0  0  0  0  0  0  0  0  0
   -0.7480   -3.9811   -4.1959 H   0  0  0  0  0  0  0  0  0  0  0  0
   -1.4107   -3.8433   -2.1573 N   0  0  0  0  0  0  0  0  0  0  0  0
   -1.1771   -2.8787   -1.1736 C   0  0  0  0  0  0  0  0  0  0  0  0
   -1.5382   -2.9058   -0.1537 H   0  0  0  0  0  0  0  0  0  0  0  0
   -0.6600    1.1486    0.4782 C   0  0  0  0  0  0  0  0  0  0  0  0
   -1.5001    1.7648   -0.1771 O   0  0  0  0  0  0  0  0  0  0  0  0
    0.1634    1.7559    1.3418 N   0  0  0  0  0  0  0  0  0  0  0  0
    0.8618    1.1897    1.8008 H   0  0  0  0  0  0  0  0  0  0  0  0
    0.1509    3.1886    1.6256 C   0  0  0  0  0  0  0  0  0  0  0  0
   -0.8272    3.4794    2.0152 H   0  0  0  0  0  0  0  0  0  0  0  0
    0.9172    3.4314    2.3624 H   0  0  0  0  0  0  0  0  0  0  0  0
    0.3414    3.7499    0.7095 H   0  0  0  0  0  0  0  0  0  0  0  0
  5  6  2  0  0  0  0
  5  7  1  0  0  0  0
  2  3  1  0  0  0  0
  2  4  1  0  0  0  0
  2  5  1  0  0  0  0
  1  2  1  0  0  0  0
 22 23  2  0  0  0  0
 22 24  1  0  0  0  0
 20 21  1  0  0  0  0
 19 20  1  0  0  0  0
 17 18  1  0  0  0  0
 17 19  2  0  0  0  0
 15 16  1  0  0  0  0
 15 17  1  0  0  0  0
 14 15  1  0  0  0  0
 14 20  2  0  0  0  0
 11 12  1  0  0  0  0
 11 13  1  0  0  0  0
 11 14  1  0  0  0  0
  9 10  1  0  0  0  0
  9 11  1  0  0  0  0
  9 22  1  0  0  0  0
  7  8  1  0  0  0  0
  7  9  1  0  0  0  0
 26 27  1  0  0  0  0
 26 28  1  0  0  0  0
 26 29  1  0  0  0  0
 24 25  1  0  0  0  0
 24 26  1  0  0  0  0
M  END
$$$$
default_name
  -OEChem-02102213163D

 29 29  0     1  0  0  0  0  0999 V2000
   -3.6042   -3.5728    1.4576 H   0  0  0  0  0  0  0  0  0  0  0  0
   -3.5202   -2.6488    0.8866 C   0  0  0  0  0  0  0  0  0  0  0  0
   -4.2052   -1.9048    1.2896 H   0  0  0  0  0  0  0  0  0  0  0  0
   -3.7552   -2.8428   -0.1584 H   0  0  0  0  0  0  0  0  0  0  0  0
   -2.1052   -2.1358    0.9946 C   0  0  0  0  0  0  0  0  0  0  0  0
   -1.2852   -2.7288    1.6826 O   0  0  0  0  0  0  0  0  0  0  0  0
   -1.8202   -1.0288    0.3146 N   0  0  0  0  0  0  0  0  0  0  0  0
   -2.5542   -0.5788   -0.2104 H   0  0  0  0  0  0  0  0  0  0  0  0
   -0.5102   -0.3728    0.3086 C   0  0  1  0  0  0  0  0  0  0  0  0
    0.0719   -0.7468    1.1521 H   0  0  0  0  0  0  0  0  0  0  0  0
    0.2338   -0.7427   -0.9878 C   0  0  0  0  0  0  0  0  0  0  0  0
    0.4705    0.1703   -1.5370 H   0  0  0  0  0  0  0  0  0  0  0  0
    1.1745   -1.2329   -0.7305 H   0  0  0  0  0  0  0  0  0  0  0  0
   -0.5496   -1.6572   -1.8935 C   0  0  0  0  0  0  0  0  0  0  0  0
   -0.1353   -2.1488   -3.1128 N   0  0  0  0  0  0  0  0  0  0  0  0
    0.7150   -1.9011   -3.5963 H   0  0  0  0  0  0  0  0  0  0  0  0
   -1.0658   -3.0139   -3.5499 C   0  0  0  0  0  0  0  0  0  0  0  0
   -1.0237   -3.5589   -4.4851 H   0  0  0  0  0  0  0  0  0  0  0  0
   -2.0624   -3.1139   -2.6583 N   0  0  0  0  0  0  0  0  0  0  0  0
   -1.7479   -2.2533   -1.6033 C   0  0  0  0  0  0  0  0  0  0  0  0
   -2.3279   -2.1101   -0.7008 H   0  0  0  0  0  0  0  0  0  0  0  0
   -0.6600    1.1486    0.4782 C   0  0  0  0  0  0  0  0  0  0  0  0
   -1.5001    1.7648   -0.1771 O   0  0  0  0  0  0  0  0  0  0  0  0
    0.1634    1.7559    1.3418 N   0  0  0  0  0  0  0  0  0  0  0  0
    0.8618    1.1897    1.8008 H   0  0  0  0  0  0  0  0  0  0  0  0
    0.1509    3.1886    1.6256 C   0  0  0  0  0  0  0  0  0  0  0  0
   -0.8272    3.4794    2.0152 H   0  0  0  0  0  0  0  0  0  0  0  0
    0.9172    3.4314    2.3624 H   0  0  0  0  0  0  0  0  0  0  0  0
    0.3414    3.7499    0.7095 H   0  0  0  0  0  0  0  0  0  0  0  0
  5  6  2  0  0  0  0
  5  7  1  0  0  0  0
  2  3  1  0  0  0  0
  2  4  1  0  0  0  0
  2  5  1  0  0  0  0
  1  2  1  0  0  0  0
 22 23  2  0  0  0  0
 22 24  1  0  0  0  0
 20 21  1  0  0  0  0
 19 20  1  0  0  0  0
 17 18  1  0  0  0  0
 17 19  2  0  0  0  0
 15 16  1  0  0  0  0
 15 17  1  0  0  0  0
 14 15  1  0  0  0  0
 14 20  2  0  0  0  0
 11 12  1  0  0  0  0
 11 13  1  0  0  0  0
 11 14  1  0  0  0  0
  9 10  1  0  0  0  0
  9 11  1  0  0  0  0
  9 22  1  0  0  0  0
  7  8  1  0  0  0  0
  7  9  1  0  0  0  0
 26 27  1  0  0  0  0
 26 28  1  0  0  0  0
 26 29  1  0  0  0  0
 24 25  1  0  0  0  0
 24 26  1  0  0  0  0
M  END
$$$$
default_name
  -OEChem-02102213163D

 29 29  0     1  0  0  0  0  0999 V2000
   -3.6042   -3.5728    1.4576 H   0  0  0  0  0  0  0  0  0  0  0  0
   -3.5202   -2.6488    0.8866 C   0  0  0  0  0  0  0  0  0  0  0  0
   -4.2052   -1.9048    1.2896 H   0  0  0  0  0  0  0  0  0  0  0  0
   -3.7552   -2.8428   -0.1584 H   0  0  0  0  0  0  0  0  0  0  0  0
   -2.1052   -2.1358    0.9946 C   0  0  0  0  0  0  0  0  0  0  0  0
   -1.2852   -2.7288    1.6826 O   0  0  0  0  0  0  0  0  0  0  0  0
   -1.8202   -1.0288    0.3146 N   0  0  0  0  0  0  0  0  0  0  0  0
   -2.5542   -0.5788   -0.2104 H   0  0  0  0  0  0  0  0  0  0  0  0
   -0.5102   -0.3728    0.3086 C   0  0  1  0  0  0  0  0  0  0  0  0
    0.0719   -0.7468    1.1521 H   0  0  0  0  0  0  0  0  0  0  0  0
    0.2338   -0.7427   -0.9878 C   0  0  0  0  0  0  0  0  0  0  0  0
    0.4705    0.1703   -1.5370 H   0  0  0  0  0  0  0  0  0  0  0  0
    1.1745   -1.2329   -0.7305 H   0  0  0  0  0  0  0  0  0  0  0  0
   -0.5496   -1.6572   -1.8935 C   0  0  0  0  0  0  0  0  0  0  0  0
   -0.0488   -2.3775   -2.9567 N   0  0  0  0  0  0  0  0  0  0  0  0
    0.8924   -2.3293   -3.3173 H   0  0  0  0  0  0  0  0  0  0  0  0
   -1.0360   -3.1535   -3.4347 C   0  0  0  0  0  0  0  0  0  0  0  0
   -0.9487   -3.8303   -4.2759 H   0  0  0  0  0  0  0  0  0  0  0  0
   -2.1551   -2.9759   -2.7175 N   0  0  0  0  0  0  0  0  0  0  0  0
   -1.8597   -2.0243   -1.7378 C   0  0  0  0  0  0  0  0  0  0  0  0
   -2.5337   -1.6675   -0.9698 H   0  0  0  0  0  0  0  0  0  0  0  0
   -0.6600    1.1486    0.4782 C   0  0  0  0  0  0  0  0  0  0  0  0
   -1.5001    1.7648   -0.1771 O   0  0  0  0  0  0  0  0  0  0  0  0
    0.1634    1.7559    1.3418 N   0  0  0  0  0  0  0  0  0  0  0  0
    0.8618    1.1897    1.8008 H   0  0  0  0  0  0  0  0  0  0  0  0
    0.1509    3.1886    1.6256 C   0  0  0  0  0  0  0  0  0  0  0  0
   -0.8272    3.4794    2.0152 H   0  0  0  0  0  0  0  0  0  0  0  0
    0.9172    3.4314    2.3624 H   0  0  0  0  0  0  0  0  0  0  0  0
    0.3414    3.7499    0.7095 H   0  0  0  0  0  0  0  0  0  0  0  0
  5  6  2  0  0  0  0
  5  7  1  0  0  0  0
  2  3  1  0  0  0  0
  2  4  1  0  0  0  0
  2  5  1  0  0  0  0
  1  2  1  0  0  0  0
 22 23  2  0  0  0  0
 22 24  1  0  0  0  0
 20 21  1  0  0  0  0
 19 20  1  0  0  0  0
 17 18  1  0  0  0  0
 17 19  2  0  0  0  0
 15 16  1  0  0  0  0
 15 17  1  0  0  0  0
 14 15  1  0  0  0  0
 14 20  2  0  0  0  0
 11 12  1  0  0  0  0
 11 13  1  0  0  0  0
 11 14  1  0  0  0  0
  9 10  1  0  0  0  0
  9 11  1  0  0  0  0
  9 22  1  0  0  0  0
  7  8  1  0  0  0  0
  7  9  1  0  0  0  0
 26 27  1  0  0  0  0
 26 28  1  0  0  0  0
 26 29  1  0  0  0  0
 24 25  1  0  0  0  0
 24 26  1  0  0  0  0
M  END
$$$$
default_name
  -OEChem-02102213163D

 29 29  0     1  0  0  0  0  0999 V2000
   -3.6042   -3.5728    1.4576 H   0  0  0  0  0  0  0  0  0  0  0  0
   -3.5202   -2.6488    0.8866 C   0  0  0  0  0  0  0  0  0  0  0  0
   -4.2052   -1.9048    1.2896 H   0  0  0  0  0  0  0  0  0  0  0  0
   -3.7552   -2.8428   -0.1584 H   0  0  0  0  0  0  0  0  0  0  0  0
   -2.1052   -2.1358    0.9946 C   0  0  0  0  0  0  0  0  0  0  0  0
   -1.2852   -2.7288    1.6826 O   0  0  0  0  0  0  0  0  0  0  0  0
   -1.8202   -1.0288    0.3146 N   0  0  0  0  0  0  0  0  0  0  0  0
   -2.5542   -0.5788   -0.2104 H   0  0  0  0  0  0  0  0  0  0  0  0
   -0.5102   -0.3728    0.3086 C   0  0  1  0  0  0  0  0  0  0  0  0
    0.0719   -0.7468    1.1521 H   0  0  0  0  0  0  0  0  0  0  0  0
    0.2338   -0.7427   -0.9878 C   0  0  0  0  0  0  0  0  0  0  0  0
    0.4705    0.1703   -1.5370 H   0  0  0  0  0  0  0  0  0  0  0  0
    1.1745   -1.2329   -0.7305 H   0  0  0  0  0  0  0  0  0  0  0  0
   -0.5496   -1.6572   -1.8935 C   0  0  0  0  0  0  0  0  0  0  0  0
   -0.0254   -2.5908   -2.7615 N   0  0  0  0  0  0  0  0  0  0  0  0
    0.9532   -2.7330   -2.9623 H   0  0  0  0  0  0  0  0  0  0  0  0
   -1.0471   -3.2774   -3.3000 C   0  0  0  0  0  0  0  0  0  0  0  0
   -0.9514   -4.0760   -4.0256 H   0  0  0  0  0  0  0  0  0  0  0  0
   -2.2138   -2.8361   -2.8078 N   0  0  0  0  0  0  0  0  0  0  0  0
   -1.9110   -1.8038   -1.9161 C   0  0  0  0  0  0  0  0  0  0  0  0
   -2.6213   -1.2441   -1.3214 H   0  0  0  0  0  0  0  0  0  0  0  0
   -0.6600    1.1486    0.4782 C   0  0  0  0  0  0  0  0  0  0  0  0
   -1.5001    1.7648   -0.1771 O   0  0  0  0  0  0  0  0  0  0  0  0
    0.1634    1.7559    1.3418 N   0  0  0  0  0  0  0  0  0  0  0  0
    0.8618    1.1897    1.8008 H   0  0  0  0  0  0  0  0  0  0  0  0
    0.1509    3.1886    1.6256 C   0  0  0  0  0  0  0  0  0  0  0  0
   -0.8272    3.4794    2.0152 H   0  0  0  0  0  0  0  0  0  0  0  0
    0.9172    3.4314    2.3624 H   0  0  0  0  0  0  0  0  0  0  0  0
    0.3414    3.7499    0.7095 H   0  0  0  0  0  0  0  0  0  0  0  0
  5  6  2  0  0  0  0
  5  7  1  0  0  0  0
  2  3  1  0  0  0  0
  2  4  1  0  0  0  0
  2  5  1  0  0  0  0
  1  2  1  0  0  0  0
 22 23  2  0  0  0  0
 22 24  1  0  0  0  0
 20 21  1  0  0  0  0
 19 20  1  0  0  0  0
 17 18  1  0  0  0  0
 17 19  2  0  0  0  0
 15 16  1  0  0  0  0
 15 17  1  0  0  0  0
 14 15  1  0  0  0  0
 14 20  2  0  0  0  0
 11 12  1  0  0  0  0
 11 13  1  0  0  0  0
 11 14  1  0  0  0  0
  9 10  1  0  0  0  0
  9 11  1  0  0  0  0
  9 22  1  0  0  0  0
  7  8  1  0  0  0  0
  7  9  1  0  0  0  0
 26 27  1  0  0  0  0
 26 28  1  0  0  0  0
 26 29  1  0  0  0  0
 24 25  1  0  0  0  0
 24 26  1  0  0  0  0
M  END
$$$$
default_name
  -OEChem-02102213163D

 29 29  0     1  0  0  0  0  0999 V2000
   -3.6042   -3.5728    1.4576 H   0  0  0  0  0  0  0  0  0  0  0  0
   -3.5202   -2.6488    0.8866 C   0  0  0  0  0  0  0  0  0  0  0  0
   -4.2052   -1.9048    1.2896 H   0  0  0  0  0  0  0  0  0  0  0  0
   -3.7552   -2.8428   -0.1584 H   0  0  0  0  0  0  0  0  0  0  0  0
   -2.1052   -2.1358    0.9946 C   0  0  0  0  0  0  0  0  0  0  0  0
   -1.2852   -2.7288    1.6826 O   0  0  0  0  0  0  0  0  0  0  0  0
   -1.8202   -1.0288    0.3146 N   0  0  0  0  0  0  0  0  0  0  0  0
   -2.5542   -0.5788   -0.2104 H   0  0  0  0  0  0  0  0  0  0  0  0
   -0.5102   -0.3728    0.3086 C   0  0  1  0  0  0  0  0  0  0  0  0
    0.0719   -0.7468    1.1521 H   0  0  0  0  0  0  0  0  0  0  0  0
    0.2338   -0.7427   -0.9878 C   0  0  0  0  0  0  0  0  0  0  0  0
    0.4705    0.1703   -1.5370 H   0  0  0  0  0  0  0  0  0  0  0  0
    1.1745   -1.2329   -0.7305 H   0  0  0  0  0  0  0  0  0  0  0  0
   -0.5496   -1.6572   -1.8935 C   0  0  0  0  0  0  0  0  0  0  0  0
   -0.0666   -2.7742   -2.5407 N   0  0  0  0  0  0  0  0  0  0  0  0
    0.8935   -3.0846   -2.5556 H   0  0  0  0  0  0  0  0  0  0  0  0
   -1.0983   -3.3773   -3.1549 C   0  0  0  0  0  0  0  0  0  0  0  0
   -1.0314   -4.2792   -3.7511 H   0  0  0  0  0  0  0  0  0  0  0  0
   -2.2347   -2.7042   -2.9230 N   0  0  0  0  0  0  0  0  0  0  0  0
   -1.8982   -1.6068   -2.1261 C   0  0  0  0  0  0  0  0  0  0  0  0
   -2.5849   -0.8689   -1.7318 H   0  0  0  0  0  0  0  0  0  0  0  0
   -0.6600    1.1486    0.4782 C   0  0  0  0  0  0  0  0  0  0  0  0
   -1.5001    1.7648   -0.1771 O   0  0  0  0  0  0  0  0  0  0  0  0
    0.1634    1.7559    1.3418 N   0  0  0  0  0  0  0  0  0  0  0  0
    0.8618    1.1897    1.8008 H   0  0  0  0  0  0  0  0  0  0  0  0
    0.1509    3.1886    1.6256 C   0  0  0  0  0  0  0  0  0  0  0  0
   -0.8272    3.4794    2.0152 H   0  0  0  0  0  0  0  0  0  0  0  0
    0.9172    3.4314    2.3624 H   0  0  0  0  0  0  0  0  0  0  0  0
    0.3414    3.7499    0.7095 H   0  0  0  0  0  0  0  0  0  0  0  0
  5  6  2  0  0  0  0
  5  7  1  0  0  0  0
  2  3  1  0  0  0  0
  2  4  1  0  0  0  0
  2  5  1  0  0  0  0
  1  2  1  0  0  0  0
 22 23  2  0  0  0  0
 22 24  1  0  0  0  0
 20 21  1  0  0  0  0
 19 20  1  0  0  0  0
 17 18  1  0  0  0  0
 17 19  2  0  0  0  0
 15 16  1  0  0  0  0
 15 17  1  0  0  0  0
 14 15  1  0  0  0  0
 14 20  2  0  0  0  0
 11 12  1  0  0  0  0
 11 13  1  0  0  0  0
 11 14  1  0  0  0  0
  9 10  1  0  0  0  0
  9 11  1  0  0  0  0
  9 22  1  0  0  0  0
  7  8  1  0  0  0  0
  7  9  1  0  0  0  0
 26 27  1  0  0  0  0
 26 28  1  0  0  0  0
 26 29  1  0  0  0  0
 24 25  1  0  0  0  0
 24 26  1  0  0  0  0
M  END
$$$$
default_name
  -OEChem-02102213163D

 29 29  0     1  0  0  0  0  0999 V2000
   -3.6042   -3.5728    1.4576 H   0  0  0  0  0  0  0  0  0  0  0  0
   -3.5202   -2.6488    0.8866 C   0  0  0  0  0  0  0  0  0  0  0  0
   -4.2052   -1.9048    1.2896 H   0  0  0  0  0  0  0  0  0  0  0  0
   -3.7552   -2.8428   -0.1584 H   0  0  0  0  0  0  0  0  0  0  0  0
   -2.1052   -2.1358    0.9946 C   0  0  0  0  0  0  0  0  0  0  0  0
   -1.2852   -2.7288    1.6826 O   0  0  0  0  0  0  0  0  0  0  0  0
   -1.8202   -1.0288    0.3146 N   0  0  0  0  0  0  0  0  0  0  0  0
   -2.5542   -0.5788   -0.2104 H   0  0  0  0  0  0  0  0  0  0  0  0
   -0.5102   -0.3728    0.3086 C   0  0  1  0  0  0  0  0  0  0  0  0
    0.0719   -0.7468    1.1521 H   0  0  0  0  0  0  0  0  0  0  0  0
    0.2338   -0.7427   -0.9878 C   0  0  0  0  0  0  0  0  0  0  0  0
    0.4705    0.1703   -1.5370 H   0  0  0  0  0  0  0  0  0  0  0  0
    1.1745   -1.2329   -0.7305 H   0  0  0  0  0  0  0  0  0  0  0  0
   -0.5496   -1.6572   -1.8935 C   0  0  0  0  0  0  0  0  0  0  0  0
   -0.1696   -2.9153   -2.3091 N   0  0  0  0  0  0  0  0  0  0  0  0
    0.7171   -3.3602   -2.1248 H   0  0  0  0  0  0  0  0  0  0  0  0
   -1.1860   -3.4463   -3.0094 C   0  0  0  0  0  0  0  0  0  0  0  0
   -1.1835   -4.4260   -3.4712 H   0  0  0  0  0  0  0  0  0  0  0  0
   -2.2161   -2.5890   -3.0553 N   0  0  0  0  0  0  0  0  0  0  0  0
   -1.8223   -1.4468   -2.3534 C   0  0  0  0  0  0  0  0  0  0  0  0
   -2.4269   -0.5674   -2.1730 H   0  0  0  0  0  0  0  0  0  0  0  0
   -0.6600    1.1486    0.4782 C   0  0  0  0  0  0  0  0  0  0  0  0
   -1.5001    1.7648   -0.1771 O   0  0  0  0  0  0  0  0  0  0  0  0
    0.1634    1.7559    1.3418 N   0  0  0  0  0  0  0  0  0  0  0  0
    0.8618    1.1897    1.8008 H   0  0  0  0  0  0  0  0  0  0  0  0
    0.1509    3.1886    1.6256 C   0  0  0  0  0  0  0  0  0  0  0  0
   -0.8272    3.4794    2.0152 H   0  0  0  0  0  0  0  0  0  0  0  0
    0.9172    3.4314    2.3624 H   0  0  0  0  0  0  0  0  0  0  0  0
    0.3414    3.7499    0.7095 H   0  0  0  0  0  0  0  0  0  0  0  0
  5  6  2  0  0  0  0
  5  7  1  0  0  0  0
  2  3  1  0  0  0  0
  2  4  1  0  0  0  0
  2  5  1  0  0  0  0
  1  2  1  0  0  0  0
 22 23  2  0  0  0  0
 22 24  1  0  0  0  0
 20 21  1  0  0  0  0
 19 20  1  0  0  0  0
 17 18  1  0  0  0  0
 17 19  2  0  0  0  0
 15 16  1  0  0  0  0
 15 17  1  0  0  0  0
 14 15  1  0  0  0  0
 14 20  2  0  0  0  0
 11 12  1  0  0  0  0
 11 13  1  0  0  0  0
 11 14  1  0  0  0  0
  9 10  1  0  0  0  0
  9 11  1  0  0  0  0
  9 22  1  0  0  0  0
  7  8  1  0  0  0  0
  7  9  1  0  0  0  0
 26 27  1  0  0  0  0
 26 28  1  0  0  0  0
 26 29  1  0  0  0  0
 24 25  1  0  0  0  0
 24 26  1  0  0  0  0
M  END
$$$$
default_name
  -OEChem-02102213163D

 29 29  0     1  0  0  0  0  0999 V2000
   -3.6042   -3.5728    1.4576 H   0  0  0  0  0  0  0  0  0  0  0  0
   -3.5202   -2.6488    0.8866 C   0  0  0  0  0  0  0  0  0  0  0  0
   -4.2052   -1.9048    1.2896 H   0  0  0  0  0  0  0  0  0  0  0  0
   -3.7552   -2.8428   -0.1584 H   0  0  0  0  0  0  0  0  0  0  0  0
   -2.1052   -2.1358    0.9946 C   0  0  0  0  0  0  0  0  0  0  0  0
   -1.2852   -2.7288    1.6826 O   0  0  0  0  0  0  0  0  0  0  0  0
   -1.8202   -1.0288    0.3146 N   0  0  0  0  0  0  0  0  0  0  0  0
   -2.5542   -0.5788   -0.2104 H   0  0  0  0  0  0  0  0  0  0  0  0
   -0.5102   -0.3728    0.3086 C   0  0  1  0  0  0  0  0  0  0  0  0
    0.0719   -0.7468    1.1521 H   0  0  0  0  0  0  0  0  0  0  0  0
    0.2338   -0.7427   -0.9878 C   0  0  0  0  0  0  0  0  0  0  0  0
    0.4705    0.1703   -1.5370 H   0  0  0  0  0  0  0  0  0  0  0  0
    1.1745   -1.2329   -0.7305 H   0  0  0  0  0  0  0  0  0  0  0  0
   -0.5496   -1.6572   -1.8935 C   0  0  0  0  0  0  0  0  0  0  0  0
   -0.3274   -3.0044   -2.0826 N   0  0  0  0  0  0  0  0  0  0  0  0
    0.4363   -3.5410   -1.6992 H   0  0  0  0  0  0  0  0  0  0  0  0
   -1.3043   -3.4797   -2.8733 C   0  0  0  0  0  0  0  0  0  0  0  0
   -1.3973   -4.5066   -3.2050 H   0  0  0  0  0  0  0  0  0  0  0  0
   -2.1596   -2.4984   -3.1958 N   0  0  0  0  0  0  0  0  0  0  0  0
   -1.6883   -1.3346   -2.5825 C   0  0  0  0  0  0  0  0  0  0  0  0
   -2.1580   -0.3601   -2.6149 H   0  0  0  0  0  0  0  0  0  0  0  0
   -0.6600    1.1486    0.4782 C   0  0  0  0  0  0  0  0  0  0  0  0
   -1.5001    1.7648   -0.1771 O   0  0  0  0  0  0  0  0  0  0  0  0
    0.1634    1.7559    1.3418 N   0  0  0  0  0  0  0  0  0  0  0  0
    0.8618    1.1897    1.8008 H   0  0  0  0  0  0  0  0  0  0  0  0
    0.1509    3.1886    1.6256 C   0  0  0  0  0  0  0  0  0  0  0  0
   -0.8272    3.4794    2.0152 H   0  0  0  0  0  0  0  0  0  0  0  0
    0.9172    3.4314    2.3624 H   0  0  0  0  0  0  0  0  0  0  0  0
    0.3414    3.7499    0.7095 H   0  0  0  0  0  0  0  0  0  0  0  0
  5  6  2  0  0  0  0
  5  7  1  0  0  0  0
  2  3  1  0  0  0  0
  2  4  1  0  0  0  0
  2  5  1  0  0  0  0
  1  2  1  0  0  0  0
 22 23  2  0  0  0  0
 22 24  1  0  0  0  0
 20 21  1  0  0  0  0
 19 20  1  0  0  0  0
 17 18  1  0  0  0  0
 17 19  2  0  0  0  0
 15 16  1  0  0  0  0
 15 17  1  0  0  0  0
 14 15  1  0  0  0  0
 14 20  2  0  0  0  0
 11 12  1  0  0  0  0
 11 13  1  0  0  0  0
 11 14  1  0  0  0  0
  9 10  1  0  0  0  0
  9 11  1  0  0  0  0
  9 22  1  0  0  0  0
  7  8  1  0  0  0  0
  7  9  1  0  0  0  0
 26 27  1  0  0  0  0
 26 28  1  0  0  0  0
 26 29  1  0  0  0  0
 24 25  1  0  0  0  0
 24 26  1  0  0  0  0
M  END
$$$$
default_name
  -OEChem-02102213163D

 29 29  0     1  0  0  0  0  0999 V2000
   -3.6042   -3.5728    1.4576 H   0  0  0  0  0  0  0  0  0  0  0  0
   -3.5202   -2.6488    0.8866 C   0  0  0  0  0  0  0  0  0  0  0  0
   -4.2052   -1.9048    1.2896 H   0  0  0  0  0  0  0  0  0  0  0  0
   -3.7552   -2.8428   -0.1584 H   0  0  0  0  0  0  0  0  0  0  0  0
   -2.1052   -2.1358    0.9946 C   0  0  0  0  0  0  0  0  0  0  0  0
   -1.2852   -2.7288    1.6826 O   0  0  0  0  0  0  0  0  0  0  0  0
   -1.8202   -1.0288    0.3146 N   0  0  0  0  0  0  0  0  0  0  0  0
   -2.5542   -0.5788   -0.2104 H   0  0  0  0  0  0  0  0  0  0  0  0
   -0.5102   -0.3728    0.3086 C   0  0  1  0  0  0  0  0  0  0  0  0
    0.0719   -0.7468    1.1521 H   0  0  0  0  0  0  0  0  0  0  0  0
    0.2338   -0.7427   -0.9878 C   0  0  0  0  0  0  0  0  0  0  0  0
    0.4705    0.1703   -1.5370 H   0  0  0  0  0  0  0  0  0  0  0  0
    1.1745   -1.2329   -0.7305 H   0  0  0  0  0  0  0  0  0  0  0  0
   -0.5496   -1.6572   -1.8935 C   0  0  0  0  0  0  0  0  0  0  0  0
   -0.5293   -3.0354   -1.8767 N   0  0  0  0  0  0  0  0  0  0  0  0
    0.0700   -3.6146   -1.3080 H   0  0  0  0  0  0  0  0  0  0  0  0
   -1.4452   -3.4752   -2.7560 C   0  0  0  0  0  0  0  0  0  0  0  0
   -1.6580   -4.5153   -2.9706 H   0  0  0  0  0  0  0  0  0  0  0  0
   -2.0687   -2.4386   -3.3347 N   0  0  0  0  0  0  0  0  0  0  0  0
   -1.5054   -1.2780   -2.7979 C   0  0  0  0  0  0  0  0  0  0  0  0
   -1.7967   -0.2611   -3.0274 H   0  0  0  0  0  0  0  0  0  0  0  0
   -0.6600    1.1486    0.4782 C   0  0  0  0  0  0  0  0  0  0  0  0
   -1.5001    1.7648   -0.1771 O   0  0  0  0  0  0  0  0  0  0  0  0
    0.1634    1.7559    1.3418 N   0  0  0  0  0  0  0  0  0  0  0  0
    0.8618    1.1897    1.8008 H   0  0  0  0  0  0  0  0  0  0  0  0
    0.1509    3.1886    1.6256 C   0  0  0  0  0  0  0  0  0  0  0  0
   -0.8272    3.4794    2.0152 H   0  0  0  0  0  0  0  0  0  0  0  0
    0.9172    3.4314    2.3624 H   0  0  0  0  0  0  0  0  0  0  0  0
    0.3414    3.7499    0.7095 H   0  0  0  0  0  0  0  0  0  0  0  0
  5  6  2  0  0  0  0
  5  7  1  0  0  0  0
  2  3  1  0  0  0  0
  2  4  1  0  0  0  0
  2  5  1  0  0  0  0
  1  2  1  0  0  0  0
 22 23  2  0  0  0  0
 22 24  1  0  0  0  0
 20 21  1  0  0  0  0
 19 20  1  0  0  0  0
 17 18  1  0  0  0  0
 17 19  2  0  0  0  0
 15 16  1  0  0  0  0
 15 17  1  0  0  0  0
 14 15  1  0  0  0  0
 14 20  2  0  0  0  0
 11 12  1  0  0  0  0
 11 13  1  0  0  0  0
 11 14  1  0  0  0  0
  9 10  1  0  0  0  0
  9 11  1  0  0  0  0
  9 22  1  0  0  0  0
  7  8  1  0  0  0  0
  7  9  1  0  0  0  0
 26 27  1  0  0  0  0
 26 28  1  0  0  0  0
 26 29  1  0  0  0  0
 24 25  1  0  0  0  0
 24 26  1  0  0  0  0
M  END
$$$$
default_name
  -OEChem-02102213163D

 29 29  0     1  0  0  0  0  0999 V2000
   -3.6042   -3.5728    1.4576 H   0  0  0  0  0  0  0  0  0  0  0  0
   -3.5202   -2.6488    0.8866 C   0  0  0  0  0  0  0  0  0  0  0  0
   -4.2052   -1.9048    1.2896 H   0  0  0  0  0  0  0  0  0  0  0  0
   -3.7552   -2.8428   -0.1584 H   0  0  0  0  0  0  0  0  0  0  0  0
   -2.1052   -2.1358    0.9946 C   0  0  0  0  0  0  0  0  0  0  0  0
   -1.2852   -2.7288    1.6826 O   0  0  0  0  0  0  0  0  0  0  0  0
   -1.8202   -1.0288    0.3146 N   0  0  0  0  0  0  0  0  0  0  0  0
   -2.5542   -0.5788   -0.2104 H   0  0  0  0  0  0  0  0  0  0  0  0
   -0.5102   -0.3728    0.3086 C   0  0  1  0  0  0  0  0  0  0  0  0
    0.0719   -0.7468    1.1521 H   0  0  0  0  0  0  0  0  0  0  0  0
    0.2338   -0.7427   -0.9878 C   0  0  0  0  0  0  0  0  0  0  0  0
    0.4705    0.1703   -1.5370 H   0  0  0  0  0  0  0  0  0  0  0  0
    1.1745   -1.2329   -0.7305 H   0  0  0  0  0  0  0  0  0  0  0  0
   -0.5496   -1.6572   -1.8935 C   0  0  0  0  0  0  0  0  0  0  0  0
   -0.7615   -3.0062   -1.7053 N   0  0  0  0  0  0  0  0  0  0  0  0
   -0.3567   -3.5762   -0.9777 H   0  0  0  0  0  0  0  0  0  0  0  0
   -1.5990   -3.4332   -2.6653 C   0  0  0  0  0  0  0  0  0  0  0  0
   -1.9481   -4.4516   -2.7839 H   0  0  0  0  0  0  0  0  0  0  0  0
   -1.9499   -2.4137   -3.4627 N   0  0  0  0  0  0  0  0  0  0  0  0
   -1.2862   -1.2807   -2.9849 C   0  0  0  0  0  0  0  0  0  0  0  0
   -1.3674   -0.2773   -3.3824 H   0  0  0  0  0  0  0  0  0  0  0  0
   -0.6600    1.1486    0.4782 C   0  0  0  0  0  0  0  0  0  0  0  0
   -1.5001    1.7648   -0.1771 O   0  0  0  0  0  0  0  0  0  0  0  0
    0.1634    1.7559    1.3418 N   0  0  0  0  0  0  0  0  0  0  0  0
    0.8618    1.1897    1.8008 H   0  0  0  0  0  0  0  0  0  0  0  0
    0.1509    3.1886    1.6256 C   0  0  0  0  0  0  0  0  0  0  0  0
   -0.8272    3.4794    2.0152 H   0  0  0  0  0  0  0  0  0  0  0  0
    0.9172    3.4314    2.3624 H   0  0  0  0  0  0  0  0  0  0  0  0
    0.3414    3.7499    0.7095 H   0  0  0  0  0  0  0  0  0  0  0  0
  5  6  2  0  0  0  0
  5  7  1  0  0  0  0
  2  3  1  0  0  0  0
  2  4  1  0  0  0  0
  2  5  1  0  0  0  0
  1  2  1  0  0  0  0
 22 23  2  0  0  0  0
 22 24  1  0  0  0  0
 20 21  1  0  0  0  0
 19 20  1  0  0  0  0
 17 18  1  0  0  0  0
 17 19  2  0  0  0  0
 15 16  1  0  0  0  0
 15 17  1  0  0  0  0
 14 15  1  0  0  0  0
 14 20  2  0  0  0  0
 11 12  1  0  0  0  0
 11 13  1  0  0  0  0
 11 14  1  0  0  0  0
  9 10  1  0  0  0  0
  9 11  1  0  0  0  0
  9 22  1  0  0  0  0
  7  8  1  0  0  0  0
  7  9  1  0  0  0  0
 26 27  1  0  0  0  0
 26 28  1  0  0  0  0
 26 29  1  0  0  0  0
 24 25  1  0  0  0  0
 24 26  1  0  0  0  0
M  END
$$$$
default_name
  -OEChem-02102213163D

 29 29  0     1  0  0  0  0  0999 V2000
   -3.6042   -3.5728    1.4576 H   0  0  0  0  0  0  0  0  0  0  0  0
   -3.5202   -2.6488    0.8866 C   0  0  0  0  0  0  0  0  0  0  0  0
   -4.2052   -1.9048    1.2896 H   0  0  0  0  0  0  0  0  0  0  0  0
   -3.7552   -2.8428   -0.1584 H   0  0  0  0  0  0  0  0  0  0  0  0
   -2.1052   -2.1358    0.9946 C   0  0  0  0  0  0  0  0  0  0  0  0
   -1.2852   -2.7288    1.6826 O   0  0  0  0  0  0  0  0  0  0  0  0
   -1.8202   -1.0288    0.3146 N   0  0  0  0  0  0  0  0  0  0  0  0
   -2.5542   -0.5788   -0.2104 H   0  0  0  0  0  0  0  0  0  0  0  0
   -0.5102   -0.3728    0.3086 C   0  0  1  0  0  0  0  0  0  0  0  0
    0.0719   -0.7468    1.1521 H   0  0  0  0  0  0  0  0  0  0  0  0
    0.2338   -0.7427   -0.9878 C   0  0  0  0  0  0  0  0  0  0  0  0
    0.4705    0.1703   -1.5370 H   0  0  0  0  0  0  0  0  0  0  0  0
    1.1745   -1.2329   -0.7305 H   0  0  0  0  0  0  0  0  0  0  0  0
   -0.5496   -1.6572   -1.8935 C   0  0  0  0  0  0  0  0  0  0  0  0
   -1.0081   -2.9188   -1.5802 N   0  0  0  0  0  0  0  0  0  0  0  0
   -0.8147   -3.4282   -0.7309 H   0  0  0  0  0  0  0  0  0  0  0  0
   -1.7552   -3.3565   -2.6076 C   0  0  0  0  0  0  0  0  0  0  0  0
   -2.2477   -4.3199   -2.6578 H   0  0  0  0  0  0  0  0  0  0  0  0
   -1.8111   -2.4253   -3.5710 N   0  0  0  0  0  0  0  0  0  0  0  0
   -1.0454   -1.3426   -3.1306 C   0  0  0  0  0  0  0  0  0  0  0  0
   -0.8996   -0.4075   -3.6557 H   0  0  0  0  0  0  0  0  0  0  0  0
   -0.6600    1.1486    0.4782 C   0  0  0  0  0  0  0  0  0  0  0  0
   -1.5001    1.7648   -0.1771 O   0  0  0  0  0  0  0  0  0  0  0  0
    0.1634    1.7559    1.3418 N   0  0  0  0  0  0  0  0  0  0  0  0
    0.8618    1.1897    1.8008 H   0  0  0  0  0  0  0  0  0  0  0  0
    0.1509    3.1886    1.6256 C   0  0  0  0  0  0  0  0  0  0  0  0
   -0.8272    3.4794    2.0152 H   0  0  0  0  0  0  0  0  0  0  0  0
    0.9172    3.4314    2.3624 H   0  0  0  0  0  0  0  0  0  0  0  0
    0.3414    3.7499    0.7095 H   0  0  0  0  0  0  0  0  0  0  0  0
  5  6  2  0  0  0  0
  5  7  1  0  0  0  0
  2  3  1  0  0  0  0
  2  4  1  0  0  0  0
  2  5  1  0  0  0  0
  1  2  1  0  0  0  0
 22 23  2  0  0  0  0
 22 24  1  0  0  0  0
 20 21  1  0  0  0  0
 19 20  1  0  0  0  0
 17 18  1  0  0  0  0
 17 19  2  0  0  0  0
 15 16  1  0  0  0  0
 15 17  1  0  0  0  0
 14 15  1  0  0  0  0
 14 20  2  0  0  0  0
 11 12  1  0  0  0  0
 11 13  1  0  0  0  0
 11 14  1  0  0  0  0
  9 10  1  0  0  0  0
  9 11  1  0  0  0  0
  9 22  1  0  0  0  0
  7  8  1  0  0  0  0
  7  9  1  0  0  0  0
 26 27  1  0  0  0  0
 26 28  1  0  0  0  0
 26 29  1  0  0  0  0
 24 25  1  0  0  0  0
 24 26  1  0  0  0  0
M  END
$$$$
default_name
  -OEChem-02102213163D

 29 29  0     1  0  0  0  0  0999 V2000
   -3.6042   -3.5728    1.4576 H   0  0  0  0  0  0  0  0  0  0  0  0
   -3.5202   -2.6488    0.8866 C   0  0  0  0  0  0  0  0  0  0  0  0
   -4.2052   -1.9048    1.2896 H   0  0  0  0  0  0  0  0  0  0  0  0
   -3.7552   -2.8428   -0.1584 H   0  0  0  0  0  0  0  0  0  0  0  0
   -2.1052   -2.1358    0.9946 C   0  0  0  0  0  0  0  0  0  0  0  0
   -1.2852   -2.7288    1.6826 O   0  0  0  0  0  0  0  0  0  0  0  0
   -1.8202   -1.0288    0.3146 N   0  0  0  0  0  0  0  0  0  0  0  0
   -2.5542   -0.5788   -0.2104 H   0  0  0  0  0  0  0  0  0  0  0  0
   -0.5102   -0.3728    0.3086 C   0  0  1  0  0  0  0  0  0  0  0  0
    0.0719   -0.7468    1.1521 H   0  0  0  0  0  0  0  0  0  0  0  0
    0.2338   -0.7427   -0.9878 C   0  0  0  0  0  0  0  0  0  0  0  0
    0.4705    0.1703   -1.5370 H   0  0  0  0  0  0  0  0  0  0  0  0
    1.1745   -1.2329   -0.7305 H   0  0  0  0  0  0  0  0  0  0  0  0
   -0.5496   -1.6572   -1.8935 C   0  0  0  0  0  0  0  0  0  0  0  0
   -1.2524   -2.7792   -1.5098 N   0  0  0  0  0  0  0  0  0  0  0  0
   -1.2729   -3.1808   -0.5843 H   0  0  0  0  0  0  0  0  0  0  0  0
   -1.9033   -3.2503   -2.5867 C   0  0  0  0  0  0  0  0  0  0  0  0
   -2.5365   -4.1290   -2.6007 H   0  0  0  0  0  0  0  0  0  0  0  0
   -1.6618   -2.4727   -3.6523 N   0  0  0  0  0  0  0  0  0  0  0  0
   -0.7996   -1.4594   -3.2253 C   0  0  0  0  0  0  0  0  0  0  0  0
   -0.4250   -0.6427   -3.8287 H   0  0  0  0  0  0  0  0  0  0  0  0
   -0.6600    1.1486    0.4782 C   0  0  0  0  0  0  0  0  0  0  0  0
   -1.5001    1.7648   -0.1771 O   0  0  0  0  0  0  0  0  0  0  0  0
    0.1634    1.7559    1.3418 N   0  0  0  0  0  0  0  0  0  0  0  0
    0.8618    1.1897    1.8008 H   0  0  0  0  0  0  0  0  0  0  0  0
    0.1509    3.1886    1.6256 C   0  0  0  0  0  0  0  0  0  0  0  0
   -0.8272    3.4794    2.0152 H   0  0  0  0  0  0  0  0  0  0  0  0
    0.9172    3.4314    2.3624 H   0  0  0  0  0  0  0  0  0  0  0  0
    0.3414    3.7499    0.7095 H   0  0  0  0  0  0  0  0  0  0  0  0
  5  6  2  0  0  0  0
  5  7  1  0  0  0  0
  2  3  1  0  0  0  0
  2  4  1  0  0  0  0
  2  5  1  0  0  0  0
  1  2  1  0  0  0  0
 22 23  2  0  0  0  0
 22 24  1  0  0  0  0
 20 21  1  0  0  0  0
 19 20  1  0  0  0  0
 17 18  1  0  0  0  0
 17 19  2  0  0  0  0
 15 16  1  0  0  0  0
 15 17  1  0  0  0  0
 14 15  1  0  0  0  0
 14 20  2  0  0  0  0
 11 12  1  0  0  0  0
 11 13  1  0  0  0  0
 11 14  1  0  0  0  0
  9 10  1  0  0  0  0
  9 11  1  0  0  0  0
  9 22  1  0  0  0  0
  7  8  1  0  0  0  0
  7  9  1  0  0  0  0
 26 27  1  0  0  0  0
 26 28  1  0  0  0  0
 26 29  1  0  0  0  0
 24 25  1  0  0  0  0
 24 26  1  0  0  0  0
M  END
$$$$
default_name
  -OEChem-02102213163D

 29 29  0     1  0  0  0  0  0999 V2000
   -3.6042   -3.5728    1.4576 H   0  0  0  0  0  0  0  0  0  0  0  0
   -3.5202   -2.6488    0.8866 C   0  0  0  0  0  0  0  0  0  0  0  0
   -4.2052   -1.9048    1.2896 H   0  0  0  0  0  0  0  0  0  0  0  0
   -3.7552   -2.8428   -0.1584 H   0  0  0  0  0  0  0  0  0  0  0  0
   -2.1052   -2.1358    0.9946 C   0  0  0  0  0  0  0  0  0  0  0  0
   -1.2852   -2.7288    1.6826 O   0  0  0  0  0  0  0  0  0  0  0  0
   -1.8202   -1.0288    0.3146 N   0  0  0  0  0  0  0  0  0  0  0  0
   -2.5542   -0.5788   -0.2104 H   0  0  0  0  0  0  0  0  0  0  0  0
   -0.5102   -0.3728    0.3086 C   0  0  1  0  0  0  0  0  0  0  0  0
    0.0719   -0.7468    1.1521 H   0  0  0  0  0  0  0  0  0  0  0  0
    0.2338   -0.7427   -0.9878 C   0  0  0  0  0  0  0  0  0  0  0  0
    0.4705    0.1703   -1.5370 H   0  0  0  0  0  0  0  0  0  0  0  0
    1.1745   -1.2329   -0.7305 H   0  0  0  0  0  0  0  0  0  0  0  0
   -0.5496   -1.6572   -1.8935 C   0  0  0  0  0  0  0  0  0  0  0  0
   -1.4778   -2.5969   -1.4990 N   0  0  0  0  0  0  0  0  0  0  0  0
   -1.7001   -2.8508   -0.5480 H   0  0  0  0  0  0  0  0  0  0  0  0
   -2.0331   -3.1219   -2.6041 C   0  0  0  0  0  0  0  0  0  0  0  0
   -2.7946   -3.8921   -2.6167 H   0  0  0  0  0  0  0  0  0  0  0  0
   -1.5123   -2.5526   -3.7009 N   0  0  0  0  0  0  0  0  0  0  0  0
   -0.5655   -1.6233   -3.2624 C   0  0  0  0  0  0  0  0  0  0  0  0
    0.0241   -0.9671   -3.8896 H   0  0  0  0  0  0  0  0  0  0  0  0
   -0.6600    1.1486    0.4782 C   0  0  0  0  0  0  0  0  0  0  0  0
   -1.5001    1.7648   -0.1771 O   0  0  0  0  0  0  0  0  0  0  0  0
    0.1634    1.7559    1.3418 N   0  0  0  0  0  0  0  0  0  0  0  0
    0.8618    1.1897    1.8008 H   0  0  0  0  0  0  0  0  0  0  0  0
    0.1509    3.1886    1.6256 C   0  0  0  0  0  0  0  0  0  0  0  0
   -0.8272    3.4794    2.0152 H   0  0  0  0  0  0  0  0  0  0  0  0
    0.9172    3.4314    2.3624 H   0  0  0  0  0  0  0  0  0  0  0  0
    0.3414    3.7499    0.7095 H   0  0  0  0  0  0  0  0  0  0  0  0
  5  6  2  0  0  0  0
  5  7  1  0  0  0  0
  2  3  1  0  0  0  0
  2  4  1  0  0  0  0
  2  5  1  0  0  0  0
  1  2  1  0  0  0  0
 22 23  2  0  0  0  0
 22 24  1  0  0  0  0
 20 21  1  0  0  0  0
 19 20  1  0  0  0  0
 17 18  1  0  0  0  0
 17 19  2  0  0  0  0
 15 16  1  0  0  0  0
 15 17  1  0  0  0  0
 14 15  1  0  0  0  0
 14 20  2  0  0  0  0
 11 12  1  0  0  0  0
 11 13  1  0  0  0  0
 11 14  1  0  0  0  0
  9 10  1  0  0  0  0
  9 11  1  0  0  0  0
  9 22  1  0  0  0  0
  7  8  1  0  0  0  0
  7  9  1  0  0  0  0
 26 27  1  0  0  0  0
 26 28  1  0  0  0  0
 26 29  1  0  0  0  0
 24 25  1  0  0  0  0
 24 26  1  0  0  0  0
M  END
$$$$
default_name
  -OEChem-02102213163D

 29 29  0     1  0  0  0  0  0999 V2000
   -3.6042   -3.5728    1.4576 H   0  0  0  0  0  0  0  0  0  0  0  0
   -3.5202   -2.6488    0.8866 C   0  0  0  0  0  0  0  0  0  0  0  0
   -4.2052   -1.9048    1.2896 H   0  0  0  0  0  0  0  0  0  0  0  0
   -3.7552   -2.8428   -0.1584 H   0  0  0  0  0  0  0  0  0  0  0  0
   -2.1052   -2.1358    0.9946 C   0  0  0  0  0  0  0  0  0  0  0  0
   -1.2852   -2.7288    1.6826 O   0  0  0  0  0  0  0  0  0  0  0  0
   -1.8202   -1.0288    0.3146 N   0  0  0  0  0  0  0  0  0  0  0  0
   -2.5542   -0.5788   -0.2104 H   0  0  0  0  0  0  0  0  0  0  0  0
   -0.5102   -0.3728    0.3086 C   0  0  1  0  0  0  0  0  0  0  0  0
    0.0719   -0.7468    1.1521 H   0  0  0  0  0  0  0  0  0  0  0  0
    0.2338   -0.7427   -0.9878 C   0  0  0  0  0  0  0  0  0  0  0  0
    0.4705    0.1703   -1.5370 H   0  0  0  0  0  0  0  0  0  0  0  0
    1.1745   -1.2329   -0.7305 H   0  0  0  0  0  0  0  0  0  0  0  0
   -0.5496   -1.6572   -1.8935 C   0  0  0  0  0  0  0  0  0  0  0  0
   -1.6687   -2.3842   -1.5485 N   0  0  0  0  0  0  0  0  0  0  0  0
   -2.0670   -2.4607   -0.6245 H   0  0  0  0  0  0  0  0  0  0  0  0
   -2.1358   -2.9800   -2.6586 C   0  0  0  0  0  0  0  0  0  0  0  0
   -3.0046   -3.6252   -2.7045 H   0  0  0  0  0  0  0  0  0  0  0  0
   -1.3726   -2.6597   -3.7137 N   0  0  0  0  0  0  0  0  0  0  0  0
   -0.3590   -1.8229   -3.2394 C   0  0  0  0  0  0  0  0  0  0  0  0
    0.4169   -1.3585   -3.8342 H   0  0  0  0  0  0  0  0  0  0  0  0
   -0.6600    1.1486    0.4782 C   0  0  0  0  0  0  0  0  0  0  0  0
   -1.5001    1.7648   -0.1771 O   0  0  0  0  0  0  0  0  0  0  0  0
    0.1634    1.7559    1.3418 N   0  0  0  0  0  0  0  0  0  0  0  0
    0.8618    1.1897    1.8008 H   0  0  0  0  0  0  0  0  0  0  0  0
    0.1509    3.1886    1.6256 C   0  0  0  0  0  0  0  0  0  0  0  0
   -0.8272    3.4794    2.0152 H   0  0  0  0  0  0  0  0  0  0  0  0
    0.9172    3.4314    2.3624 H   0  0  0  0  0  0  0  0  0  0  0  0
    0.3414    3.7499    0.7095 H   0  0  0  0  0  0  0  0  0  0  0  0
  5  6  2  0  0  0  0
  5  7  1  0  0  0  0
  2  3  1  0  0  0  0
  2  4  1  0  0  0  0
  2  5  1  0  0  0  0
  1  2  1  0  0  0  0
 22 23  2  0  0  0  0
 22 24  1  0  0  0  0
 20 21  1  0  0  0  0
 19 20  1  0  0  0  0
 17 18  1  0  0  0  0
 17 19  2  0  0  0  0
 15 16  1  0  0  0  0
 15 17  1  0  0  0  0
 14 15  1  0  0  0  0
 14 20  2  0  0  0  0
 11 12  1  0  0  0  0
 11 13  1  0  0  0  0
 11 14  1  0  0  0  0
  9 10  1  0  0  0  0
  9 11  1  0  0  0  0
  9 22  1  0  0  0  0
  7  8  1  0  0  0  0
  7  9  1  0  0  0  0
 26 27  1  0  0  0  0
 26 28  1  0  0  0  0
 26 29  1  0  0  0  0
 24 25  1  0  0  0  0
 24 26  1  0  0  0  0
M  END
$$$$
default_name
  -OEChem-02102213163D

 29 29  0     1  0  0  0  0  0999 V2000
   -3.6042   -3.5728    1.4576 H   0  0  0  0  0  0  0  0  0  0  0  0
   -3.5202   -2.6488    0.8866 C   0  0  0  0  0  0  0  0  0  0  0  0
   -4.2052   -1.9048    1.2896 H   0  0  0  0  0  0  0  0  0  0  0  0
   -3.7552   -2.8428   -0.1584 H   0  0  0  0  0  0  0  0  0  0  0  0
   -2.1052   -2.1358    0.9946 C   0  0  0  0  0  0  0  0  0  0  0  0
   -1.2852   -2.7288    1.6826 O   0  0  0  0  0  0  0  0  0  0  0  0
   -1.8202   -1.0288    0.3146 N   0  0  0  0  0  0  0  0  0  0  0  0
   -2.5542   -0.5788   -0.2104 H   0  0  0  0  0  0  0  0  0  0  0  0
   -0.5102   -0.3728    0.3086 C   0  0  1  0  0  0  0  0  0  0  0  0
    0.0719   -0.7468    1.1521 H   0  0  0  0  0  0  0  0  0  0  0  0
    0.2338   -0.7427   -0.9878 C   0  0  0  0  0  0  0  0  0  0  0  0
    0.4705    0.1703   -1.5370 H   0  0  0  0  0  0  0  0  0  0  0  0
    1.1745   -1.2329   -0.7305 H   0  0  0  0  0  0  0  0  0  0  0  0
   -0.5496   -1.6572   -1.8935 C   0  0  0  0  0  0  0  0  0  0  0  0
   -1.8124   -2.1558   -1.6549 N   0  0  0  0  0  0  0  0  0  0  0  0
   -2.3487   -2.0371   -0.8085 H   0  0  0  0  0  0  0  0  0  0  0  0
   -2.2043   -2.8343   -2.7464 C   0  0  0  0  0  0  0  0  0  0  0  0
   -3.1521   -3.3466   -2.8582 H   0  0  0  0  0  0  0  0  0  0  0  0
   -1.2523   -2.7865   -3.6896 N   0  0  0  0  0  0  0  0  0  0  0  0
   -0.1942   -2.0449   -3.1579 C   0  0  0  0  0  0  0  0  0  0  0  0
    0.7267   -1.7902   -3.6663 H   0  0  0  0  0  0  0  0  0  0  0  0
   -0.6600    1.1486    0.4782 C   0  0  0  0  0  0  0  0  0  0  0  0
   -1.5001    1.7648   -0.1771 O   0  0  0  0  0  0  0  0  0  0  0  0
    0.1634    1.7559    1.3418 N   0  0  0  0  0  0  0  0  0  0  0  0
    0.8618    1.1897    1.8008 H   0  0  0  0  0  0  0  0  0  0  0  0
    0.1509    3.1886    1.6256 C   0  0  0  0  0  0  0  0  0  0  0  0
   -0.8272    3.4794    2.0152 H   0  0  0  0  0  0  0  0  0  0  0  0
    0.9172    3.4314    2.3624 H   0  0  0  0  0  0  0  0  0  0  0  0
    0.3414    3.7499    0.7095 H   0  0  0  0  0  0  0  0  0  0  0  0
  5  6  2  0  0  0  0
  5  7  1  0  0  0  0
  2  3  1  0  0  0  0
  2  4  1  0  0  0  0
  2  5  1  0  0  0  0
  1  2  1  0  0  0  0
 22 23  2  0  0  0  0
 22 24  1  0  0  0  0
 20 21  1  0  0  0  0
 19 20  1  0  0  0  0
 17 18  1  0  0  0  0
 17 19  2  0  0  0  0
 15 16  1  0  0  0  0
 15 17  1  0  0  0  0
 14 15  1  0  0  0  0
 14 20  2  0  0  0  0
 11 12  1  0  0  0  0
 11 13  1  0  0  0  0
 11 14  1  0  0  0  0
  9 10  1  0  0  0  0
  9 11  1  0  0  0  0
  9 22  1  0  0  0  0
  7  8  1  0  0  0  0
  7  9  1  0  0  0  0
 26 27  1  0  0  0  0
 26 28  1  0  0  0  0
 26 29  1  0  0  0  0
 24 25  1  0  0  0  0
 24 26  1  0  0  0  0
M  END
$$$$
default_name
  -OEChem-02102213163D

 29 29  0     1  0  0  0  0  0999 V2000
   -3.6042   -3.5728    1.4576 H   0  0  0  0  0  0  0  0  0  0  0  0
   -3.5202   -2.6488    0.8866 C   0  0  0  0  0  0  0  0  0  0  0  0
   -4.2052   -1.9048    1.2896 H   0  0  0  0  0  0  0  0  0  0  0  0
   -3.7552   -2.8428   -0.1584 H   0  0  0  0  0  0  0  0  0  0  0  0
   -2.1052   -2.1358    0.9946 C   0  0  0  0  0  0  0  0  0  0  0  0
   -1.2852   -2.7288    1.6826 O   0  0  0  0  0  0  0  0  0  0  0  0
   -1.8202   -1.0288    0.3146 N   0  0  0  0  0  0  0  0  0  0  0  0
   -2.5542   -0.5788   -0.2104 H   0  0  0  0  0  0  0  0  0  0  0  0
   -0.5102   -0.3728    0.3086 C   0  0  1  0  0  0  0  0  0  0  0  0
    0.0719   -0.7468    1.1521 H   0  0  0  0  0  0  0  0  0  0  0  0
    0.2338   -0.7427   -0.9878 C   0  0  0  0  0  0  0  0  0  0  0  0
    0.4705    0.1703   -1.5370 H   0  0  0  0  0  0  0  0  0  0  0  0
    1.1745   -1.2329   -0.7305 H   0  0  0  0  0  0  0  0  0  0  0  0
   -0.5496   -1.6572   -1.8935 C   0  0  0  0  0  0  0  0  0  0  0  0
   -1.8988   -1.9271   -1.8110 N   0  0  0  0  0  0  0  0  0  0  0  0
   -2.5261   -1.6089   -1.0875 H   0  0  0  0  0  0  0  0  0  0  0  0
   -2.2341   -2.6947   -2.8616 C   0  0  0  0  0  0  0  0  0  0  0  0
   -3.2271   -3.0752   -3.0674 H   0  0  0  0  0  0  0  0  0  0  0  0
   -1.1597   -2.9245   -3.6305 N   0  0  0  0  0  0  0  0  0  0  0  0
   -0.0824   -2.2739   -3.0234 C   0  0  0  0  0  0  0  0  0  0  0  0
    0.9325   -2.2328   -3.3974 H   0  0  0  0  0  0  0  0  0  0  0  0
   -0.6600    1.1486    0.4782 C   0  0  0  0  0  0  0  0  0  0  0  0
   -1.5001    1.7648   -0.1771 O   0  0  0  0  0  0  0  0  0  0  0  0
    0.1634    1.7559    1.3418 N   0  0  0  0  0  0  0  0  0  0  0  0
    0.8618    1.1897    1.8008 H   0  0  0  0  0  0  0  0  0  0  0  0
    0.1509    3.1886    1.6256 C   0  0  0  0  0  0  0  0  0  0  0  0
   -0.8272    3.4794    2.0152 H   0  0  0  0  0  0  0  0  0  0  0  0
    0.9172    3.4314    2.3624 H   0  0  0  0  0  0  0  0  0  0  0  0
    0.3414    3.7499    0.7095 H   0  0  0  0  0  0  0  0  0  0  0  0
  5  6  2  0  0  0  0
  5  7  1  0  0  0  0
  2  3  1  0  0  0  0
  2  4  1  0  0  0  0
  2  5  1  0  0  0  0
  1  2  1  0  0  0  0
 22 23  2  0  0  0  0
 22 24  1  0  0  0  0
 20 21  1  0  0  0  0
 19 20  1  0  0  0  0
 17 18  1  0  0  0  0
 17 19  2  0  0  0  0
 15 16  1  0  0  0  0
 15 17  1  0  0  0  0
 14 15  1  0  0  0  0
 14 20  2  0  0  0  0
 11 12  1  0  0  0  0
 11 13  1  0  0  0  0
 11 14  1  0  0  0  0
  9 10  1  0  0  0  0
  9 11  1  0  0  0  0
  9 22  1  0  0  0  0
  7  8  1  0  0  0  0
  7  9  1  0  0  0  0
 26 27  1  0  0  0  0
 26 28  1  0  0  0  0
 26 29  1  0  0  0  0
 24 25  1  0  0  0  0
 24 26  1  0  0  0  0
M  END
$$$$
default_name
  -OEChem-02102213163D

 29 29  0     1  0  0  0  0  0999 V2000
   -3.6042   -3.5728    1.4576 H   0  0  0  0  0  0  0  0  0  0  0  0
   -3.5202   -2.6488    0.8866 C   0  0  0  0  0  0  0  0  0  0  0  0
   -4.2052   -1.9048    1.2896 H   0  0  0  0  0  0  0  0  0  0  0  0
   -3.7552   -2.8428   -0.1584 H   0  0  0  0  0  0  0  0  0  0  0  0
   -2.1052   -2.1358    0.9946 C   0  0  0  0  0  0  0  0  0  0  0  0
   -1.2852   -2.7288    1.6826 O   0  0  0  0  0  0  0  0  0  0  0  0
   -1.8202   -1.0288    0.3146 N   0  0  0  0  0  0  0  0  0  0  0  0
   -2.5542   -0.5788   -0.2104 H   0  0  0  0  0  0  0  0  0  0  0  0
   -0.5102   -0.3728    0.3086 C   0  0  1  0  0  0  0  0  0  0  0  0
    0.0719   -0.7468    1.1521 H   0  0  0  0  0  0  0  0  0  0  0  0
    0.2338   -0.7427   -0.9878 C   0  0  0  0  0  0  0  0  0  0  0  0
    0.4705    0.1703   -1.5370 H   0  0  0  0  0  0  0  0  0  0  0  0
    1.1745   -1.2329   -0.7305 H   0  0  0  0  0  0  0  0  0  0  0  0
   -0.5496   -1.6572   -1.8935 C   0  0  0  0  0  0  0  0  0  0  0  0
   -1.9223   -1.7138   -2.0061 N   0  0  0  0  0  0  0  0  0  0  0  0
   -2.5869   -1.2052   -1.4424 H   0  0  0  0  0  0  0  0  0  0  0  0
   -2.2230   -2.5708   -2.9963 C   0  0  0  0  0  0  0  0  0  0  0  0
   -3.2245   -2.8295   -3.3178 H   0  0  0  0  0  0  0  0  0  0  0  0
   -1.1009   -3.0642   -3.5402 N   0  0  0  0  0  0  0  0  0  0  0  0
   -0.0311   -2.4944   -2.8451 C   0  0  0  0  0  0  0  0  0  0  0  0
    1.0201   -2.6561   -3.0458 H   0  0  0  0  0  0  0  0  0  0  0  0
   -0.6600    1.1486    0.4782 C   0  0  0  0  0  0  0  0  0  0  0  0
   -1.5001    1.7648   -0.1771 O   0  0  0  0  0  0  0  0  0  0  0  0
    0.1634    1.7559    1.3418 N   0  0  0  0  0  0  0  0  0  0  0  0
    0.8618    1.1897    1.8008 H   0  0  0  0  0  0  0  0  0  0  0  0
    0.1509    3.1886    1.6256 C   0  0  0  0  0  0  0  0  0  0  0  0
   -0.8272    3.4794    2.0152 H   0  0  0  0  0  0  0  0  0  0  0  0
    0.9172    3.4314    2.3624 H   0  0  0  0  0  0  0  0  0  0  0  0
    0.3414    3.7499    0.7095 H   0  0  0  0  0  0  0  0  0  0  0  0
  5  6  2  0  0  0  0
  5  7  1  0  0  0  0
  2  3  1  0  0  0  0
  2  4  1  0  0  0  0
  2  5  1  0  0  0  0
  1  2  1  0  0  0  0
 22 23  2  0  0  0  0
 22 24  1  0  0  0  0
 20 21  1  0  0  0  0
 19 20  1  0  0  0  0
 17 18  1  0  0  0  0
 17 19  2  0  0  0  0
 15 16  1  0  0  0  0
 15 17  1  0  0  0  0
 14 15  1  0  0  0  0
 14 20  2  0  0  0  0
 11 12  1  0  0  0  0
 11 13  1  0  0  0  0
 11 14  1  0  0  0  0
  9 10  1  0  0  0  0
  9 11  1  0  0  0  0
  9 22  1  0  0  0  0
  7  8  1  0  0  0  0
  7  9  1  0  0  0  0
 26 27  1  0  0  0  0
 26 28  1  0  0  0  0
 26 29  1  0  0  0  0
 24 25  1  0  0  0  0
 24 26  1  0  0  0  0
M  END
$$$$
default_name
  -OEChem-02102213163D

 29 29  0     1  0  0  0  0  0999 V2000
   -3.6042   -3.5728    1.4576 H   0  0  0  0  0  0  0  0  0  0  0  0
   -3.5202   -2.6488    0.8866 C   0  0  0  0  0  0  0  0  0  0  0  0
   -4.2052   -1.9048    1.2896 H   0  0  0  0  0  0  0  0  0  0  0  0
   -3.7552   -2.8428   -0.1584 H   0  0  0  0  0  0  0  0  0  0  0  0
   -2.1052   -2.1358    0.9946 C   0  0  0  0  0  0  0  0  0  0  0  0
   -1.2852   -2.7288    1.6826 O   0  0  0  0  0  0  0  0  0  0  0  0
   -1.8202   -1.0288    0.3146 N   0  0  0  0  0  0  0  0  0  0  0  0
   -2.5542   -0.5788   -0.2104 H   0  0  0  0  0  0  0  0  0  0  0  0
   -0.5102   -0.3728    0.3086 C   0  0  1  0  0  0  0  0  0  0  0  0
    0.0719   -0.7468    1.1521 H   0  0  0  0  0  0  0  0  0  0  0  0
    0.2338   -0.7427   -0.9878 C   0  0  0  0  0  0  0  0  0  0  0  0
    0.4705    0.1703   -1.5370 H   0  0  0  0  0  0  0  0  0  0  0  0
    1.1745   -1.2329   -0.7305 H   0  0  0  0  0  0  0  0  0  0  0  0
   -0.5496   -1.6572   -1.8935 C   0  0  0  0  0  0  0  0  0  0  0  0
   -1.8811   -1.5304   -2.2270 N   0  0  0  0  0  0  0  0  0  0  0  0
   -2.5272   -0.8536   -1.8491 H   0  0  0  0  0  0  0  0  0  0  0  0
   -2.1718   -2.4709   -3.1414 C   0  0  0  0  0  0  0  0  0  0  0  0
   -3.1444   -2.6263   -3.5922 H   0  0  0  0  0  0  0  0  0  0  0  0
   -1.0801   -3.1962   -3.4250 N   0  0  0  0  0  0  0  0  0  0  0  0
   -0.0439   -2.6913   -2.6351 C   0  0  0  0  0  0  0  0  0  0  0  0
    0.9837   -3.0313   -2.6354 H   0  0  0  0  0  0  0  0  0  0  0  0
   -0.6600    1.1486    0.4782 C   0  0  0  0  0  0  0  0  0  0  0  0
   -1.5001    1.7648   -0.1771 O   0  0  0  0  0  0  0  0  0  0  0  0
    0.1634    1.7559    1.3418 N   0  0  0  0  0  0  0  0  0  0  0  0
    0.8618    1.1897    1.8008 H   0  0  0  0  0  0  0  0  0  0  0  0
    0.1509    3.1886    1.6256 C   0  0  0  0  0  0  0  0  0  0  0  0
   -0.8272    3.4794    2.0152 H   0  0  0  0  0  0  0  0  0  0  0  0
    0.9172    3.4314    2.3624 H   0  0  0  0  0  0  0  0  0  0  0  0
    0.3414    3.7499    0.7095 H   0  0  0  0  0  0  0  0  0  0  0  0
  5  6  2  0  0  0  0
  5  7  1  0  0  0  0
  2  3  1  0  0  0  0
  2  4  1  0  0  0  0
  2  5  1  0  0  0  0
  1  2  1  0  0  0  0
 22 23  2  0  0  0  0
 22 24  1  0  0  0  0
 20 21  1  0  0  0  0
 19 20  1  0  0  0  0
 17 18  1  0  0  0  0
 17 19  2  0  0  0  0
 15 16  1  0  0  0  0
 15 17  1  0  0  0  0
 14 15  1  0  0  0  0
 14 20  2  0  0  0  0
 11 12  1  0  0  0  0
 11 13  1  0  0  0  0
 11 14  1  0  0  0  0
  9 10  1  0  0  0  0
  9 11  1  0  0  0  0
  9 22  1  0  0  0  0
  7  8  1  0  0  0  0
  7  9  1  0  0  0  0
 26 27  1  0  0  0  0
 26 28  1  0  0  0  0
 26 29  1  0  0  0  0
 24 25  1  0  0  0  0
 24 26  1  0  0  0  0
M  END
$$$$
default_name
  -OEChem-02102213163D

 29 29  0     1  0  0  0  0  0999 V2000
   -3.6042   -3.5728    1.4576 H   0  0  0  0  0  0  0  0  0  0  0  0
   -3.5202   -2.6488    0.8866 C   0  0  0  0  0  0  0  0  0  0  0  0
   -4.2052   -1.9048    1.2896 H   0  0  0  0  0  0  0  0  0  0  0  0
   -3.7552   -2.8428   -0.1584 H   0  0  0  0  0  0  0  0  0  0  0  0
   -2.1052   -2.1358    0.9946 C   0  0  0  0  0  0  0  0  0  0  0  0
   -1.2852   -2.7288    1.6826 O   0  0  0  0  0  0  0  0  0  0  0  0
   -1.8202   -1.0288    0.3146 N   0  0  0  0  0  0  0  0  0  0  0  0
   -2.5542   -0.5788   -0.2104 H   0  0  0  0  0  0  0  0  0  0  0  0
   -0.5102   -0.3728    0.3086 C   0  0  1  0  0  0  0  0  0  0  0  0
    0.0719   -0.7468    1.1521 H   0  0  0  0  0  0  0  0  0  0  0  0
    0.2338   -0.7427   -0.9878 C   0  0  0  0  0  0  0  0  0  0  0  0
    0.4705    0.1703   -1.5370 H   0  0  0  0  0  0  0  0  0  0  0  0
    1.1745   -1.2329   -0.7305 H   0  0  0  0  0  0  0  0  0  0  0  0
   -0.5496   -1.6572   -1.8935 C   0  0  0  0  0  0  0  0  0  0  0  0
   -1.7781   -1.3893   -2.4585 N   0  0  0  0  0  0  0  0  0  0  0  0
   -2.3509   -0.5780   -2.2800 H   0  0  0  0  0  0  0  0  0  0  0  0
   -2.0841   -2.4020   -3.2869 C   0  0  0  0  0  0  0  0  0  0  0  0
   -2.9923   -2.4794   -3.8721 H   0  0  0  0  0  0  0  0  0  0  0  0
   -1.0986   -3.3114   -3.2926 N   0  0  0  0  0  0  0  0  0  0  0  0
   -0.1198   -2.8513   -2.4078 C   0  0  0  0  0  0  0  0  0  0  0  0
    0.8256   -3.3329   -2.1942 H   0  0  0  0  0  0  0  0  0  0  0  0
   -0.6600    1.1486    0.4782 C   0  0  0  0  0  0  0  0  0  0  0  0
   -1.5001    1.7648   -0.1771 O   0  0  0  0  0  0  0  0  0  0  0  0
    0.1634    1.7559    1.3418 N   0  0  0  0  0  0  0  0  0  0  0  0
    0.8618    1.1897    1.8008 H   0  0  0  0  0  0  0  0  0  0  0  0
    0.1509    3.1886    1.6256 C   0  0  0  0  0  0  0  0  0  0  0  0
   -0.8272    3.4794    2.0152 H   0  0  0  0  0  0  0  0  0  0  0  0
    0.9172    3.4314    2.3624 H   0  0  0  0  0  0  0  0  0  0  0  0
    0.3414    3.7499    0.7095 H   0  0  0  0  0  0  0  0  0  0  0  0
  5  6  2  0  0  0  0
  5  7  1  0  0  0  0
  2  3  1  0  0  0  0
  2  4  1  0  0  0  0
  2  5  1  0  0  0  0
  1  2  1  0  0  0  0
 22 23  2  0  0  0  0
 22 24  1  0  0  0  0
 20 21  1  0  0  0  0
 19 20  1  0  0  0  0
 17 18  1  0  0  0  0
 17 19  2  0  0  0  0
 15 16  1  0  0  0  0
 15 17  1  0  0  0  0
 14 15  1  0  0  0  0
 14 20  2  0  0  0  0
 11 12  1  0  0  0  0
 11 13  1  0  0  0  0
 11 14  1  0  0  0  0
  9 10  1  0  0  0  0
  9 11  1  0  0  0  0
  9 22  1  0  0  0  0
  7  8  1  0  0  0  0
  7  9  1  0  0  0  0
 26 27  1  0  0  0  0
 26 28  1  0  0  0  0
 26 29  1  0  0  0  0
 24 25  1  0  0  0  0
 24 26  1  0  0  0  0
M  END
$$$$
default_name
  -OEChem-02102213163D

 29 29  0     1  0  0  0  0  0999 V2000
   -3.6042   -3.5728    1.4576 H   0  0  0  0  0  0  0  0  0  0  0  0
   -3.5202   -2.6488    0.8866 C   0  0  0  0  0  0  0  0  0  0  0  0
   -4.2052   -1.9048    1.2896 H   0  0  0  0  0  0  0  0  0  0  0  0
   -3.7552   -2.8428   -0.1584 H   0  0  0  0  0  0  0  0  0  0  0  0
   -2.1052   -2.1358    0.9946 C   0  0  0  0  0  0  0  0  0  0  0  0
   -1.2852   -2.7288    1.6826 O   0  0  0  0  0  0  0  0  0  0  0  0
   -1.8202   -1.0288    0.3146 N   0  0  0  0  0  0  0  0  0  0  0  0
   -2.5542   -0.5788   -0.2104 H   0  0  0  0  0  0  0  0  0  0  0  0
   -0.5102   -0.3728    0.3086 C   0  0  1  0  0  0  0  0  0  0  0  0
    0.0719   -0.7468    1.1521 H   0  0  0  0  0  0  0  0  0  0  0  0
    0.2338   -0.7427   -0.9878 C   0  0  0  0  0  0  0  0  0  0  0  0
    0.4705    0.1703   -1.5370 H   0  0  0  0  0  0  0  0  0  0  0  0
    1.1745   -1.2329   -0.7305 H   0  0  0  0  0  0  0  0  0  0  0  0
   -0.5496   -1.6572   -1.8935 C   0  0  0  0  0  0  0  0  0  0  0  0
   -1.6202   -1.3003   -2.6850 N   0  0  0  0  0  0  0  0  0  0  0  0
   -2.0700   -0.3972   -2.7055 H   0  0  0  0  0  0  0  0  0  0  0  0
   -1.9658   -2.3686   -3.4230 C   0  0  0  0  0  0  0  0  0  0  0  0
   -2.7786   -2.3988   -4.1383 H   0  0  0  0  0  0  0  0  0  0  0  0
   -1.1552   -3.4020   -3.1522 N   0  0  0  0  0  0  0  0  0  0  0  0
   -0.2538   -2.9635   -2.1787 C   0  0  0  0  0  0  0  0  0  0  0  0
    0.5568   -3.5402   -1.7523 H   0  0  0  0  0  0  0  0  0  0  0  0
   -0.6600    1.1486    0.4782 C   0  0  0  0  0  0  0  0  0  0  0  0
   -1.5001    1.7648   -0.1771 O   0  0  0  0  0  0  0  0  0  0  0  0
    0.1634    1.7559    1.3418 N   0  0  0  0  0  0  0  0  0  0  0  0
    0.8618    1.1897    1.8008 H   0  0  0  0  0  0  0  0  0  0  0  0
    0.1509    3.1886    1.6256 C   0  0  0  0  0  0  0  0  0  0  0  0
   -0.8272    3.4794    2.0152 H   0  0  0  0  0  0  0  0  0  0  0  0
    0.9172    3.4314    2.3624 H   0  0  0  0  0  0  0  0  0  0  0  0
    0.3414    3.7499    0.7095 H   0  0  0  0  0  0  0  0  0  0  0  0
  5  6  2  0  0  0  0
  5  7  1  0  0  0  0
  2  3  1  0  0  0  0
  2  4  1  0  0  0  0
  2  5  1  0  0  0  0
  1  2  1  0  0  0  0
 22 23  2  0  0  0  0
 22 24  1  0  0  0  0
 20 21  1  0  0  0  0
 19 20  1  0  0  0  0
 17 18  1  0  0  0  0
 17 19  2  0  0  0  0
 15 16  1  0  0  0  0
 15 17  1  0  0  0  0
 14 15  1  0  0  0  0
 14 20  2  0  0  0  0
 11 12  1  0  0  0  0
 11 13  1  0  0  0  0
 11 14  1  0  0  0  0
  9 10  1  0  0  0  0
  9 11  1  0  0  0  0
  9 22  1  0  0  0  0
  7  8  1  0  0  0  0
  7  9  1  0  0  0  0
 26 27  1  0  0  0  0
 26 28  1  0  0  0  0
 26 29  1  0  0  0  0
 24 25  1  0  0  0  0
 24 26  1  0  0  0  0
M  END
$$$$
default_name
  -OEChem-02102213163D

 29 29  0     1  0  0  0  0  0999 V2000
   -3.6042   -3.5728    1.4576 H   0  0  0  0  0  0  0  0  0  0  0  0
   -3.5202   -2.6488    0.8866 C   0  0  0  0  0  0  0  0  0  0  0  0
   -4.2052   -1.9048    1.2896 H   0  0  0  0  0  0  0  0  0  0  0  0
   -3.7552   -2.8428   -0.1584 H   0  0  0  0  0  0  0  0  0  0  0  0
   -2.1052   -2.1358    0.9946 C   0  0  0  0  0  0  0  0  0  0  0  0
   -1.2852   -2.7288    1.6826 O   0  0  0  0  0  0  0  0  0  0  0  0
   -1.8202   -1.0288    0.3146 N   0  0  0  0  0  0  0  0  0  0  0  0
   -2.5542   -0.5788   -0.2104 H   0  0  0  0  0  0  0  0  0  0  0  0
   -0.5102   -0.3728    0.3086 C   0  0  1  0  0  0  0  0  0  0  0  0
    0.0719   -0.7468    1.1521 H   0  0  0  0  0  0  0  0  0  0  0  0
    0.2338   -0.7427   -0.9878 C   0  0  0  0  0  0  0  0  0  0  0  0
    0.4705    0.1703   -1.5370 H   0  0  0  0  0  0  0  0  0  0  0  0
    1.1745   -1.2329   -0.7305 H   0  0  0  0  0  0  0  0  0  0  0  0
   -0.5496   -1.6572   -1.8935 C   0  0  0  0  0  0  0  0  0  0  0  0
   -1.4183   -1.2693   -2.8909 N   0  0  0  0  0  0  0  0  0  0  0  0
   -1.7037   -0.3236   -3.0967 H   0  0  0  0  0  0  0  0  0  0  0  0
   -1.8249   -2.3730   -3.5404 C   0  0  0  0  0  0  0  0  0  0  0  0
   -2.5178   -2.3901   -4.3727 H   0  0  0  0  0  0  0  0  0  0  0  0
   -1.2460   -3.4618   -3.0132 N   0  0  0  0  0  0  0  0  0  0  0  0
   -0.4367   -3.0202   -1.9633 C   0  0  0  0  0  0  0  0  0  0  0  0
    0.1954   -3.6391   -1.3398 H   0  0  0  0  0  0  0  0  0  0  0  0
   -0.6600    1.1486    0.4782 C   0  0  0  0  0  0  0  0  0  0  0  0
   -1.5001    1.7648   -0.1771 O   0  0  0  0  0  0  0  0  0  0  0  0
    0.1634    1.7559    1.3418 N   0  0  0  0  0  0  0  0  0  0  0  0
    0.8618    1.1897    1.8008 H   0  0  0  0  0  0  0  0  0  0  0  0
    0.1509    3.1886    1.6256 C   0  0  0  0  0  0  0  0  0  0  0  0
   -0.8272    3.4794    2.0152 H   0  0  0  0  0  0  0  0  0  0  0  0
    0.9172    3.4314    2.3624 H   0  0  0  0  0  0  0  0  0  0  0  0
    0.3414    3.7499    0.7095 H   0  0  0  0  0  0  0  0  0  0  0  0
  5  6  2  0  0  0  0
  5  7  1  0  0  0  0
  2  3  1  0  0  0  0
  2  4  1  0  0  0  0
  2  5  1  0  0  0  0
  1  2  1  0  0  0  0
 22 23  2  0  0  0  0
 22 24  1  0  0  0  0
 20 21  1  0  0  0  0
 19 20  1  0  0  0  0
 17 18  1  0  0  0  0
 17 19  2  0  0  0  0
 15 16  1  0  0  0  0
 15 17  1  0  0  0  0
 14 15  1  0  0  0  0
 14 20  2  0  0  0  0
 11 12  1  0  0  0  0
 11 13  1  0  0  0  0
 11 14  1  0  0  0  0
  9 10  1  0  0  0  0
  9 11  1  0  0  0  0
  9 22  1  0  0  0  0
  7  8  1  0  0  0  0
  7  9  1  0  0  0  0
 26 27  1  0  0  0  0
 26 28  1  0  0  0  0
 26 29  1  0  0  0  0
 24 25  1  0  0  0  0
 24 26  1  0  0  0  0
M  END
$$$$
default_name
  -OEChem-02102213163D

 29 29  0     1  0  0  0  0  0999 V2000
   -3.6042   -3.5728    1.4576 H   0  0  0  0  0  0  0  0  0  0  0  0
   -3.5202   -2.6488    0.8866 C   0  0  0  0  0  0  0  0  0  0  0  0
   -4.2052   -1.9048    1.2896 H   0  0  0  0  0  0  0  0  0  0  0  0
   -3.7552   -2.8428   -0.1584 H   0  0  0  0  0  0  0  0  0  0  0  0
   -2.1052   -2.1358    0.9946 C   0  0  0  0  0  0  0  0  0  0  0  0
   -1.2852   -2.7288    1.6826 O   0  0  0  0  0  0  0  0  0  0  0  0
   -1.8202   -1.0288    0.3146 N   0  0  0  0  0  0  0  0  0  0  0  0
   -2.5542   -0.5788   -0.2104 H   0  0  0  0  0  0  0  0  0  0  0  0
   -0.5102   -0.3728    0.3086 C   0  0  1  0  0  0  0  0  0  0  0  0
    0.0719   -0.7468    1.1521 H   0  0  0  0  0  0  0  0  0  0  0  0
    0.2338   -0.7427   -0.9878 C   0  0  0  0  0  0  0  0  0  0  0  0
    0.4705    0.1703   -1.5370 H   0  0  0  0  0  0  0  0  0  0  0  0
    1.1745   -1.2329   -0.7305 H   0  0  0  0  0  0  0  0  0  0  0  0
   -0.5496   -1.6572   -1.8935 C   0  0  0  0  0  0  0  0  0  0  0  0
   -1.1862   -1.2984   -3.0623 N   0  0  0  0  0  0  0  0  0  0  0  0
   -1.2770   -0.3620   -3.4270 H   0  0  0  0  0  0  0  0  0  0  0  0
   -1.6711   -2.4151   -3.6310 C   0  0  0  0  0  0  0  0  0  0  0  0
   -2.2277   -2.4538   -4.5594 H   0  0  0  0  0  0  0  0  0  0  0  0
   -1.3649   -3.4867   -2.8853 N   0  0  0  0  0  0  0  0  0  0  0  0
   -0.6559   -3.0174   -1.7763 C   0  0  0  0  0  0  0  0  0  0  0  0
   -0.2338   -3.6230   -0.9848 H   0  0  0  0  0  0  0  0  0  0  0  0
   -0.6600    1.1486    0.4782 C   0  0  0  0  0  0  0  0  0  0  0  0
   -1.5001    1.7648   -0.1771 O   0  0  0  0  0  0  0  0  0  0  0  0
    0.1634    1.7559    1.3418 N   0  0  0  0  0  0  0  0  0  0  0  0
    0.8618    1.1897    1.8008 H   0  0  0  0  0  0  0  0  0  0  0  0
    0.1509    3.1886    1.6256 C   0  0  0  0  0  0  0  0  0  0  0  0
   -0.8272    3.4794    2.0152 H   0  0  0  0  0  0  0  0  0  0  0  0
    0.9172    3.4314    2.3624 H   0  0  0  0  0  0  0  0  0  0  0  0
    0.3414    3.7499    0.7095 H   0  0  0  0  0  0  0  0  0  0  0  0
  5  6  2  0  0  0  0
  5  7  1  0  0  0  0
  2  3  1  0  0  0  0
  2  4  1  0  0  0  0
  2  5  1  0  0  0  0
  1  2  1  0  0  0  0
 22 23  2  0  0  0  0
 22 24  1  0  0  0  0
 20 21  1  0  0  0  0
 19 20  1  0  0  0  0
 17 18  1  0  0  0  0
 17 19  2  0  0  0  0
 15 16  1  0  0  0  0
 15 17  1  0  0  0  0
 14 15  1  0  0  0  0
 14 20  2  0  0  0  0
 11 12  1  0  0  0  0
 11 13  1  0  0  0  0
 11 14  1  0  0  0  0
  9 10  1  0  0  0  0
  9 11  1  0  0  0  0
  9 22  1  0  0  0  0
  7  8  1  0  0  0  0
  7  9  1  0  0  0  0
 26 27  1  0  0  0  0
 26 28  1  0  0  0  0
 26 29  1  0  0  0  0
 24 25  1  0  0  0  0
 24 26  1  0  0  0  0
M  END
$$$$
default_name
  -OEChem-02102213163D

 29 29  0     1  0  0  0  0  0999 V2000
   -3.6042   -3.5728    1.4576 H   0  0  0  0  0  0  0  0  0  0  0  0
   -3.5202   -2.6488    0.8866 C   0  0  0  0  0  0  0  0  0  0  0  0
   -4.2052   -1.9048    1.2896 H   0  0  0  0  0  0  0  0  0  0  0  0
   -3.7552   -2.8428   -0.1584 H   0  0  0  0  0  0  0  0  0  0  0  0
   -2.1052   -2.1358    0.9946 C   0  0  0  0  0  0  0  0  0  0  0  0
   -1.2852   -2.7288    1.6826 O   0  0  0  0  0  0  0  0  0  0  0  0
   -1.8202   -1.0288    0.3146 N   0  0  0  0  0  0  0  0  0  0  0  0
   -2.5542   -0.5788   -0.2104 H   0  0  0  0  0  0  0  0  0  0  0  0
   -0.5102   -0.3728    0.3086 C   0  0  1  0  0  0  0  0  0  0  0  0
    0.0719   -0.7468    1.1521 H   0  0  0  0  0  0  0  0  0  0  0  0
    0.2338   -0.7427   -0.9878 C   0  0  0  0  0  0  0  0  0  0  0  0
    0.4705    0.1703   -1.5370 H   0  0  0  0  0  0  0  0  0  0  0  0
    1.1745   -1.2329   -0.7305 H   0  0  0  0  0  0  0  0  0  0  0  0
   -0.5496   -1.6572   -1.8935 C   0  0  0  0  0  0  0  0  0  0  0  0
   -0.9395   -1.3858   -3.1875 N   0  0  0  0  0  0  0  0  0  0  0  0
   -0.8190   -0.5100   -3.6739 H   0  0  0  0  0  0  0  0  0  0  0  0
   -1.5148   -2.4918   -3.6887 C   0  0  0  0  0  0  0  0  0  0  0  0
   -1.9281   -2.5856   -4.6855 H   0  0  0  0  0  0  0  0  0  0  0  0
   -1.5037   -3.4751   -2.7769 N   0  0  0  0  0  0  0  0  0  0  0  0
   -0.8967   -2.9556   -1.6306 C   0  0  0  0  0  0  0  0  0  0  0  0
   -0.7017   -3.4928   -0.7115 H   0  0  0  0  0  0  0  0  0  0  0  0
   -0.6600    1.1486    0.4782 C   0  0  0  0  0  0  0  0  0  0  0  0
   -1.5001    1.7648   -0.1771 O   0  0  0  0  0  0  0  0  0  0  0  0
    0.1634    1.7559    1.3418 N   0  0  0  0  0  0  0  0  0  0  0  0
    0.8618    1.1897    1.8008 H   0  0  0  0  0  0  0  0  0  0  0  0
    0.1509    3.1886    1.6256 C   0  0  0  0  0  0  0  0  0  0  0  0
   -0.8272    3.4794    2.0152 H   0  0  0  0  0  0  0  0  0  0  0  0
    0.9172    3.4314    2.3624 H   0  0  0  0  0  0  0  0  0  0  0  0
    0.3414    3.7499    0.7095 H   0  0  0  0  0  0  0  0  0  0  0  0
  5  6  2  0  0  0  0
  5  7  1  0  0  0  0
  2  3  1  0  0  0  0
  2  4  1  0  0  0  0
  2  5  1  0  0  0  0
  1  2  1  0  0  0  0
 22 23  2  0  0  0  0
 22 24  1  0  0  0  0
 20 21  1  0  0  0  0
 19 20  1  0  0  0  0
 17 18  1  0  0  0  0
 17 19  2  0  0  0  0
 15 16  1  0  0  0  0
 15 17  1  0  0  0  0
 14 15  1  0  0  0  0
 14 20  2  0  0  0  0
 11 12  1  0  0  0  0
 11 13  1  0  0  0  0
 11 14  1  0  0  0  0
  9 10  1  0  0  0  0
  9 11  1  0  0  0  0
  9 22  1  0  0  0  0
  7  8  1  0  0  0  0
  7  9  1  0  0  0  0
 26 27  1  0  0  0  0
 26 28  1  0  0  0  0
 26 29  1  0  0  0  0
 24 25  1  0  0  0  0
 24 26  1  0  0  0  0
M  END
$$$$
default_name
  -OEChem-02102213163D

 29 29  0     1  0  0  0  0  0999 V2000
   -3.6042   -3.5728    1.4576 H   0  0  0  0  0  0  0  0  0  0  0  0
   -3.5202   -2.6488    0.8866 C   0  0  0  0  0  0  0  0  0  0  0  0
   -4.2052   -1.9048    1.2896 H   0  0  0  0  0  0  0  0  0  0  0  0
   -3.7552   -2.8428   -0.1584 H   0  0  0  0  0  0  0  0  0  0  0  0
   -2.1052   -2.1358    0.9946 C   0  0  0  0  0  0  0  0  0  0  0  0
   -1.2852   -2.7288    1.6826 O   0  0  0  0  0  0  0  0  0  0  0  0
   -1.8202   -1.0288    0.3146 N   0  0  0  0  0  0  0  0  0  0  0  0
   -2.5542   -0.5788   -0.2104 H   0  0  0  0  0  0  0  0  0  0  0  0
   -0.5102   -0.3728    0.3086 C   0  0  1  0  0  0  0  0  0  0  0  0
    0.0719   -0.7468    1.1521 H   0  0  0  0  0  0  0  0  0  0  0  0
    0.2338   -0.7427   -0.9878 C   0  0  0  0  0  0  0  0  0  0  0  0
    0.4705    0.1703   -1.5370 H   0  0  0  0  0  0  0  0  0  0  0  0
    1.1745   -1.2329   -0.7305 H   0  0  0  0  0  0  0  0  0  0  0  0
   -0.5496   -1.6572   -1.8935 C   0  0  0  0  0  0  0  0  0  0  0  0
   -0.6952   -1.5254   -3.2578 N   0  0  0  0  0  0  0  0  0  0  0  0
   -0.3608   -0.7574   -3.8204 H   0  0  0  0  0  0  0  0  0  0  0  0
   -1.3668   -2.5979   -3.7096 C   0  0  0  0  0  0  0  0  0  0  0  0
   -1.6394   -2.7764   -4.7426 H   0  0  0  0  0  0  0  0  0  0  0  0
   -1.6529   -3.4277   -2.6957 N   0  0  0  0  0  0  0  0  0  0  0  0
   -1.1425   -2.8387   -1.5359 C   0  0  0  0  0  0  0  0  0  0  0  0
   -1.1763   -3.2575   -0.5385 H   0  0  0  0  0  0  0  0  0  0  0  0
   -0.6600    1.1486    0.4782 C   0  0  0  0  0  0  0  0  0  0  0  0
   -1.5001    1.7648   -0.1771 O   0  0  0  0  0  0  0  0  0  0  0  0
    0.1634    1.7559    1.3418 N   0  0  0  0  0  0  0  0  0  0  0  0
    0.8618    1.1897    1.8008 H   0  0  0  0  0  0  0  0  0  0  0  0
    0.1509    3.1886    1.6256 C   0  0  0  0  0  0  0  0  0  0  0  0
   -0.8272    3.4794    2.0152 H   0  0  0  0  0  0  0  0  0  0  0  0
    0.9172    3.4314    2.3624 H   0  0  0  0  0  0  0  0  0  0  0  0
    0.3414    3.7499    0.7095 H   0  0  0  0  0  0  0  0  0  0  0  0
  5  6  2  0  0  0  0
  5  7  1  0  0  0  0
  2  3  1  0  0  0  0
  2  4  1  0  0  0  0
  2  5  1  0  0  0  0
  1  2  1  0  0  0  0
 22 23  2  0  0  0  0
 22 24  1  0  0  0  0
 20 21  1  0  0  0  0
 19 20  1  0  0  0  0
 17 18  1  0  0  0  0
 17 19  2  0  0  0  0
 15 16  1  0  0  0  0
 15 17  1  0  0  0  0
 14 15  1  0  0  0  0
 14 20  2  0  0  0  0
 11 12  1  0  0  0  0
 11 13  1  0  0  0  0
 11 14  1  0  0  0  0
  9 10  1  0  0  0  0
  9 11  1  0  0  0  0
  9 22  1  0  0  0  0
  7  8  1  0  0  0  0
  7  9  1  0  0  0  0
 26 27  1  0  0  0  0
 26 28  1  0  0  0  0
 26 29  1  0  0  0  0
 24 25  1  0  0  0  0
 24 26  1  0  0  0  0
M  END
$$$$
default_name
  -OEChem-02102213163D

 29 29  0     1  0  0  0  0  0999 V2000
   -3.6042   -3.5728    1.4576 H   0  0  0  0  0  0  0  0  0  0  0  0
   -3.5202   -2.6488    0.8866 C   0  0  0  0  0  0  0  0  0  0  0  0
   -4.2052   -1.9048    1.2896 H   0  0  0  0  0  0  0  0  0  0  0  0
   -3.7552   -2.8428   -0.1584 H   0  0  0  0  0  0  0  0  0  0  0  0
   -2.1052   -2.1358    0.9946 C   0  0  0  0  0  0  0  0  0  0  0  0
   -1.2852   -2.7288    1.6826 O   0  0  0  0  0  0  0  0  0  0  0  0
   -1.8202   -1.0288    0.3146 N   0  0  0  0  0  0  0  0  0  0  0  0
   -2.5542   -0.5788   -0.2104 H   0  0  0  0  0  0  0  0  0  0  0  0
   -0.5102   -0.3728    0.3086 C   0  0  1  0  0  0  0  0  0  0  0  0
    0.0719   -0.7468    1.1521 H   0  0  0  0  0  0  0  0  0  0  0  0
    0.2338   -0.7427   -0.9878 C   0  0  0  0  0  0  0  0  0  0  0  0
    0.4705    0.1703   -1.5370 H   0  0  0  0  0  0  0  0  0  0  0  0
    1.1745   -1.2329   -0.7305 H   0  0  0  0  0  0  0  0  0  0  0  0
   -0.5496   -1.6572   -1.8935 C   0  0  0  0  0  0  0  0  0  0  0  0
   -0.4699   -1.7078   -3.2687 N   0  0  0  0  0  0  0  0  0  0  0  0
    0.0663   -1.0874   -3.8567 H   0  0  0  0  0  0  0  0  0  0  0  0
   -1.2370   -2.7263   -3.6922 C   0  0  0  0  0  0  0  0  0  0  0  0
   -1.3812   -3.0134   -4.7266 H   0  0  0  0  0  0  0  0  0  0  0  0
   -1.8025   -3.3477   -2.6470 N   0  0  0  0  0  0  0  0  0  0  0  0
   -1.3766   -2.6749   -1.4988 C   0  0  0  0  0  0  0  0  0  0  0  0
   -1.6253   -2.9331   -0.4776 H   0  0  0  0  0  0  0  0  0  0  0  0
   -0.6600    1.1486    0.4782 C   0  0  0  0  0  0  0  0  0  0  0  0
   -1.5001    1.7648   -0.1771 O   0  0  0  0  0  0  0  0  0  0  0  0
    0.1634    1.7559    1.3418 N   0  0  0  0  0  0  0  0  0  0  0  0
    0.8618    1.1897    1.8008 H   0  0  0  0  0  0  0  0  0  0  0  0
    0.1509    3.1886    1.6256 C   0  0  0  0  0  0  0  0  0  0  0  0
   -0.8272    3.4794    2.0152 H   0  0  0  0  0  0  0  0  0  0  0  0
    0.9172    3.4314    2.3624 H   0  0  0  0  0  0  0  0  0  0  0  0
    0.3414    3.7499    0.7095 H   0  0  0  0  0  0  0  0  0  0  0  0
  5  6  2  0  0  0  0
  5  7  1  0  0  0  0
  2  3  1  0  0  0  0
  2  4  1  0  0  0  0
  2  5  1  0  0  0  0
  1  2  1  0  0  0  0
 22 23  2  0  0  0  0
 22 24  1  0  0  0  0
 20 21  1  0  0  0  0
 19 20  1  0  0  0  0
 17 18  1  0  0  0  0
 17 19  2  0  0  0  0
 15 16  1  0  0  0  0
 15 17  1  0  0  0  0
 14 15  1  0  0  0  0
 14 20  2  0  0  0  0
 11 12  1  0  0  0  0
 11 13  1  0  0  0  0
 11 14  1  0  0  0  0
  9 10  1  0  0  0  0
  9 11  1  0  0  0  0
  9 22  1  0  0  0  0
  7  8  1  0  0  0  0
  7  9  1  0  0  0  0
 26 27  1  0  0  0  0
 26 28  1  0  0  0  0
 26 29  1  0  0  0  0
 24 25  1  0  0  0  0
 24 26  1  0  0  0  0
M  END
$$$$
default_name
  -OEChem-02102213163D

 29 29  0     1  0  0  0  0  0999 V2000
   -3.6042   -3.5728    1.4576 H   0  0  0  0  0  0  0  0  0  0  0  0
   -3.5202   -2.6488    0.8866 C   0  0  0  0  0  0  0  0  0  0  0  0
   -4.2052   -1.9048    1.2896 H   0  0  0  0  0  0  0  0  0  0  0  0
   -3.7552   -2.8428   -0.1584 H   0  0  0  0  0  0  0  0  0  0  0  0
   -2.1052   -2.1358    0.9946 C   0  0  0  0  0  0  0  0  0  0  0  0
   -1.2852   -2.7288    1.6826 O   0  0  0  0  0  0  0  0  0  0  0  0
   -1.8202   -1.0288    0.3146 N   0  0  0  0  0  0  0  0  0  0  0  0
   -2.5542   -0.5788   -0.2104 H   0  0  0  0  0  0  0  0  0  0  0  0
   -0.5102   -0.3728    0.3086 C   0  0  1  0  0  0  0  0  0  0  0  0
    0.0719   -0.7468    1.1521 H   0  0  0  0  0  0  0  0  0  0  0  0
    0.2338   -0.7427   -0.9878 C   0  0  0  0  0  0  0  0  0  0  0  0
    0.4705    0.1703   -1.5370 H   0  0  0  0  0  0  0  0  0  0  0  0
    1.1745   -1.2329   -0.7305 H   0  0  0  0  0  0  0  0  0  0  0  0
   -0.5496   -1.6572   -1.8935 C   0  0  0  0  0  0  0  0  0  0  0  0
   -0.2789   -1.9204   -3.2192 N   0  0  0  0  0  0  0  0  0  0  0  0
    0.4333   -1.4775   -3.7802 H   0  0  0  0  0  0  0  0  0  0  0  0
   -1.1343   -2.8682   -3.6378 C   0  0  0  0  0  0  0  0  0  0  0  0
   -1.1712   -3.2802   -4.6388 H   0  0  0  0  0  0  0  0  0  0  0  0
   -1.9422   -3.2407   -2.6343 N   0  0  0  0  0  0  0  0  0  0  0  0
   -1.5831   -2.4752   -1.5218 C   0  0  0  0  0  0  0  0  0  0  0  0
   -2.0181   -2.5418   -0.5330 H   0  0  0  0  0  0  0  0  0  0  0  0
   -0.6600    1.1486    0.4782 C   0  0  0  0  0  0  0  0  0  0  0  0
   -1.5001    1.7648   -0.1771 O   0  0  0  0  0  0  0  0  0  0  0  0
    0.1634    1.7559    1.3418 N   0  0  0  0  0  0  0  0  0  0  0  0
    0.8618    1.1897    1.8008 H   0  0  0  0  0  0  0  0  0  0  0  0
    0.1509    3.1886    1.6256 C   0  0  0  0  0  0  0  0  0  0  0  0
   -0.8272    3.4794    2.0152 H   0  0  0  0  0  0  0  0  0  0  0  0
    0.9172    3.4314    2.3624 H   0  0  0  0  0  0  0  0  0  0  0  0
    0.3414    3.7499    0.7095 H   0  0  0  0  0  0  0  0  0  0  0  0
  5  6  2  0  0  0  0
  5  7  1  0  0  0  0
  2  3  1  0  0  0  0
  2  4  1  0  0  0  0
  2  5  1  0  0  0  0
  1  2  1  0  0  0  0
 22 23  2  0  0  0  0
 22 24  1  0  0  0  0
 20 21  1  0  0  0  0
 19 20  1  0  0  0  0
 17 18  1  0  0  0  0
 17 19  2  0  0  0  0
 15 16  1  0  0  0  0
 15 17  1  0  0  0  0
 14 15  1  0  0  0  0
 14 20  2  0  0  0  0
 11 12  1  0  0  0  0
 11 13  1  0  0  0  0
 11 14  1  0  0  0  0
  9 10  1  0  0  0  0
  9 11  1  0  0  0  0
  9 22  1  0  0  0  0
  7  8  1  0  0  0  0
  7  9  1  0  0  0  0
 26 27  1  0  0  0  0
 26 28  1  0  0  0  0
 26 29  1  0  0  0  0
 24 25  1  0  0  0  0
 24 26  1  0  0  0  0
M  END
$$$$
default_name
  -OEChem-02102213163D

 29 29  0     1  0  0  0  0  0999 V2000
   -3.6042   -3.5728    1.4576 H   0  0  0  0  0  0  0  0  0  0  0  0
   -3.5202   -2.6488    0.8866 C   0  0  0  0  0  0  0  0  0  0  0  0
   -4.2052   -1.9048    1.2896 H   0  0  0  0  0  0  0  0  0  0  0  0
   -3.7552   -2.8428   -0.1584 H   0  0  0  0  0  0  0  0  0  0  0  0
   -2.1052   -2.1358    0.9946 C   0  0  0  0  0  0  0  0  0  0  0  0
   -1.2852   -2.7288    1.6826 O   0  0  0  0  0  0  0  0  0  0  0  0
   -1.8202   -1.0288    0.3146 N   0  0  0  0  0  0  0  0  0  0  0  0
   -2.5542   -0.5788   -0.2104 H   0  0  0  0  0  0  0  0  0  0  0  0
   -0.5102   -0.3728    0.3086 C   0  0  1  0  0  0  0  0  0  0  0  0
    0.0719   -0.7468    1.1521 H   0  0  0  0  0  0  0  0  0  0  0  0
    0.2338   -0.7427   -0.9878 C   0  0  0  0  0  0  0  0  0  0  0  0
    0.7014    0.1534   -1.3996 H   0  0  0  0  0  0  0  0  0  0  0  0
    1.0255   -1.4563   -0.7523 H   0  0  0  0  0  0  0  0  0  0  0  0
   -0.6560   -1.3470   -2.0430 C   0  0  0  0  0  0  0  0  0  0  0  0
   -0.2649   -1.7707   -3.2950 N   0  0  0  0  0  0  0  0  0  0  0  0
    0.6530   -1.6624   -3.7000 H   0  0  0  0  0  0  0  0  0  0  0  0
   -1.3229   -2.3499   -3.8870 C   0  0  0  0  0  0  0  0  0  0  0  0
   -1.3274   -2.7762   -4.8827 H   0  0  0  0  0  0  0  0  0  0  0  0
   -2.3827   -2.3309   -3.0656 N   0  0  0  0  0  0  0  0  0  0  0  0
   -1.9725   -1.6924   -1.8923 C   0  0  0  0  0  0  0  0  0  0  0  0
   -2.5754   -1.5317   -1.0079 H   0  0  0  0  0  0  0  0  0  0  0  0
   -0.6600    1.1486    0.4782 C   0  0  0  0  0  0  0  0  0  0  0  0
   -1.5001    1.7648   -0.1771 O   0  0  0  0  0  0  0  0  0  0  0  0
    0.1634    1.7559    1.3418 N   0  0  0  0  0  0  0  0  0  0  0  0
    0.8618    1.1897    1.8008 H   0  0  0  0  0  0  0  0  0  0  0  0
    0.1509    3.1886    1.6256 C   0  0  0  0  0  0  0  0  0  0  0  0
   -0.8272    3.4794    2.0152 H   0  0  0  0  0  0  0  0  0  0  0  0
    0.9172    3.4314    2.3624 H   0  0  0  0  0  0  0  0  0  0  0  0
    0.3414    3.7499    0.7095 H   0  0  0  0  0  0  0  0  0  0  0  0
  5  6  2  0  0  0  0
  5  7  1  0  0  0  0
  2  3  1  0  0  0  0
  2  4  1  0  0  0  0
  2  5  1  0  0  0  0
  1  2  1  0  0  0  0
 22 23  2  0  0  0  0
 22 24  1  0  0  0  0
 20 21  1  0  0  0  0
 19 20  1  0  0  0  0
 17 18  1  0  0  0  0
 17 19  2  0  0  0  0
 15 16  1  0  0  0  0
 15 17  1  0  0  0  0
 14 15  1  0  0  0  0
 14 20  2  0  0  0  0
 11 12  1  0  0  0  0
 11 13  1  0  0  0  0
 11 14  1  0  0  0  0
  9 10  1  0  0  0  0
  9 11  1  0  0  0  0
  9 22  1  0  0  0  0
  7  8  1  0  0  0  0
  7  9  1  0  0  0  0
 26 27  1  0  0  0  0
 26 28  1  0  0  0  0
 26 29  1  0  0  0  0
 24 25  1  0  0  0  0
 24 26  1  0  0  0  0
M  END
$$$$
default_name
  -OEChem-02102213163D

 29 29  0     1  0  0  0  0  0999 V2000
   -3.6042   -3.5728    1.4576 H   0  0  0  0  0  0  0  0  0  0  0  0
   -3.5202   -2.6488    0.8866 C   0  0  0  0  0  0  0  0  0  0  0  0
   -4.2052   -1.9048    1.2896 H   0  0  0  0  0  0  0  0  0  0  0  0
   -3.7552   -2.8428   -0.1584 H   0  0  0  0  0  0  0  0  0  0  0  0
   -2.1052   -2.1358    0.9946 C   0  0  0  0  0  0  0  0  0  0  0  0
   -1.2852   -2.7288    1.6826 O   0  0  0  0  0  0  0  0  0  0  0  0
   -1.8202   -1.0288    0.3146 N   0  0  0  0  0  0  0  0  0  0  0  0
   -2.5542   -0.5788   -0.2104 H   0  0  0  0  0  0  0  0  0  0  0  0
   -0.5102   -0.3728    0.3086 C   0  0  1  0  0  0  0  0  0  0  0  0
    0.0719   -0.7468    1.1521 H   0  0  0  0  0  0  0  0  0  0  0  0
    0.2338   -0.7427   -0.9878 C   0  0  0  0  0  0  0  0  0  0  0  0
    0.7014    0.1534   -1.3996 H   0  0  0  0  0  0  0  0  0  0  0  0
    1.0255   -1.4563   -0.7523 H   0  0  0  0  0  0  0  0  0  0  0  0
   -0.6560   -1.3470   -2.0430 C   0  0  0  0  0  0  0  0  0  0  0  0
   -0.2415   -2.0296   -3.1665 N   0  0  0  0  0  0  0  0  0  0  0  0
    0.7129   -2.1492   -3.4717 H   0  0  0  0  0  0  0  0  0  0  0  0
   -1.3326   -2.5052   -3.7899 C   0  0  0  0  0  0  0  0  0  0  0  0
   -1.3284   -3.0803   -4.7078 H   0  0  0  0  0  0  0  0  0  0  0  0
   -2.4389   -2.1698   -3.1104 N   0  0  0  0  0  0  0  0  0  0  0  0
   -2.0222   -1.4300   -2.0006 C   0  0  0  0  0  0  0  0  0  0  0  0
   -2.6606   -1.0259   -1.2257 H   0  0  0  0  0  0  0  0  0  0  0  0
   -0.6600    1.1486    0.4782 C   0  0  0  0  0  0  0  0  0  0  0  0
   -1.5001    1.7648   -0.1771 O   0  0  0  0  0  0  0  0  0  0  0  0
    0.1634    1.7559    1.3418 N   0  0  0  0  0  0  0  0  0  0  0  0
    0.8618    1.1897    1.8008 H   0  0  0  0  0  0  0  0  0  0  0  0
    0.1509    3.1886    1.6256 C   0  0  0  0  0  0  0  0  0  0  0  0
   -0.8272    3.4794    2.0152 H   0  0  0  0  0  0  0  0  0  0  0  0
    0.9172    3.4314    2.3624 H   0  0  0  0  0  0  0  0  0  0  0  0
    0.3414    3.7499    0.7095 H   0  0  0  0  0  0  0  0  0  0  0  0
  5  6  2  0  0  0  0
  5  7  1  0  0  0  0
  2  3  1  0  0  0  0
  2  4  1  0  0  0  0
  2  5  1  0  0  0  0
  1  2  1  0  0  0  0
 22 23  2  0  0  0  0
 22 24  1  0  0  0  0
 20 21  1  0  0  0  0
 19 20  1  0  0  0  0
 17 18  1  0  0  0  0
 17 19  2  0  0  0  0
 15 16  1  0  0  0  0
 15 17  1  0  0  0  0
 14 15  1  0  0  0  0
 14 20  2  0  0  0  0
 11 12  1  0  0  0  0
 11 13  1  0  0  0  0
 11 14  1  0  0  0  0
  9 10  1  0  0  0  0
  9 11  1  0  0  0  0
  9 22  1  0  0  0  0
  7  8  1  0  0  0  0
  7  9  1  0  0  0  0
 26 27  1  0  0  0  0
 26 28  1  0  0  0  0
 26 29  1  0  0  0  0
 24 25  1  0  0  0  0
 24 26  1  0  0  0  0
M  END
$$$$
default_name
  -OEChem-02102213163D

 29 29  0     1  0  0  0  0  0999 V2000
   -3.6042   -3.5728    1.4576 H   0  0  0  0  0  0  0  0  0  0  0  0
   -3.5202   -2.6488    0.8866 C   0  0  0  0  0  0  0  0  0  0  0  0
   -4.2052   -1.9048    1.2896 H   0  0  0  0  0  0  0  0  0  0  0  0
   -3.7552   -2.8428   -0.1584 H   0  0  0  0  0  0  0  0  0  0  0  0
   -2.1052   -2.1358    0.9946 C   0  0  0  0  0  0  0  0  0  0  0  0
   -1.2852   -2.7288    1.6826 O   0  0  0  0  0  0  0  0  0  0  0  0
   -1.8202   -1.0288    0.3146 N   0  0  0  0  0  0  0  0  0  0  0  0
   -2.5542   -0.5788   -0.2104 H   0  0  0  0  0  0  0  0  0  0  0  0
   -0.5102   -0.3728    0.3086 C   0  0  1  0  0  0  0  0  0  0  0  0
    0.0719   -0.7468    1.1521 H   0  0  0  0  0  0  0  0  0  0  0  0
    0.2338   -0.7427   -0.9878 C   0  0  0  0  0  0  0  0  0  0  0  0
    0.7014    0.1534   -1.3996 H   0  0  0  0  0  0  0  0  0  0  0  0
    1.0255   -1.4563   -0.7523 H   0  0  0  0  0  0  0  0  0  0  0  0
   -0.6560   -1.3470   -2.0430 C   0  0  0  0  0  0  0  0  0  0  0  0
   -0.2791   -2.2644   -3.0003 N   0  0  0  0  0  0  0  0  0  0  0  0
    0.6588   -2.5953   -3.1706 H   0  0  0  0  0  0  0  0  0  0  0  0
   -1.3801   -2.6386   -3.6734 C   0  0  0  0  0  0  0  0  0  0  0  0
   -1.4025   -3.3470   -4.4925 H   0  0  0  0  0  0  0  0  0  0  0  0
   -2.4594   -2.0108   -3.1842 N   0  0  0  0  0  0  0  0  0  0  0  0
   -2.0114   -1.1842   -2.1505 C   0  0  0  0  0  0  0  0  0  0  0  0
   -2.6287   -0.5552   -1.5222 H   0  0  0  0  0  0  0  0  0  0  0  0
   -0.6600    1.1486    0.4782 C   0  0  0  0  0  0  0  0  0  0  0  0
   -1.5001    1.7648   -0.1771 O   0  0  0  0  0  0  0  0  0  0  0  0
    0.1634    1.7559    1.3418 N   0  0  0  0  0  0  0  0  0  0  0  0
    0.8618    1.1897    1.8008 H   0  0  0  0  0  0  0  0  0  0  0  0
    0.1509    3.1886    1.6256 C   0  0  0  0  0  0  0  0  0  0  0  0
   -0.8272    3.4794    2.0152 H   0  0  0  0  0  0  0  0  0  0  0  0
    0.9172    3.4314    2.3624 H   0  0  0  0  0  0  0  0  0  0  0  0
    0.3414    3.7499    0.7095 H   0  0  0  0  0  0  0  0  0  0  0  0
  5  6  2  0  0  0  0
  5  7  1  0  0  0  0
  2  3  1  0  0  0  0
  2  4  1  0  0  0  0
  2  5  1  0  0  0  0
  1  2  1  0  0  0  0
 22 23  2  0  0  0  0
 22 24  1  0  0  0  0
 20 21  1  0  0  0  0
 19 20  1  0  0  0  0
 17 18  1  0  0  0  0
 17 19  2  0  0  0  0
 15 16  1  0  0  0  0
 15 17  1  0  0  0  0
 14 15  1  0  0  0  0
 14 20  2  0  0  0  0
 11 12  1  0  0  0  0
 11 13  1  0  0  0  0
 11 14  1  0  0  0  0
  9 10  1  0  0  0  0
  9 11  1  0  0  0  0
  9 22  1  0  0  0  0
  7  8  1  0  0  0  0
  7  9  1  0  0  0  0
 26 27  1  0  0  0  0
 26 28  1  0  0  0  0
 26 29  1  0  0  0  0
 24 25  1  0  0  0  0
 24 26  1  0  0  0  0
M  END
$$$$
default_name
  -OEChem-02102213163D

 29 29  0     1  0  0  0  0  0999 V2000
   -3.6042   -3.5728    1.4576 H   0  0  0  0  0  0  0  0  0  0  0  0
   -3.5202   -2.6488    0.8866 C   0  0  0  0  0  0  0  0  0  0  0  0
   -4.2052   -1.9048    1.2896 H   0  0  0  0  0  0  0  0  0  0  0  0
   -3.7552   -2.8428   -0.1584 H   0  0  0  0  0  0  0  0  0  0  0  0
   -2.1052   -2.1358    0.9946 C   0  0  0  0  0  0  0  0  0  0  0  0
   -1.2852   -2.7288    1.6826 O   0  0  0  0  0  0  0  0  0  0  0  0
   -1.8202   -1.0288    0.3146 N   0  0  0  0  0  0  0  0  0  0  0  0
   -2.5542   -0.5788   -0.2104 H   0  0  0  0  0  0  0  0  0  0  0  0
   -0.5102   -0.3728    0.3086 C   0  0  1  0  0  0  0  0  0  0  0  0
    0.0719   -0.7468    1.1521 H   0  0  0  0  0  0  0  0  0  0  0  0
    0.2338   -0.7427   -0.9878 C   0  0  0  0  0  0  0  0  0  0  0  0
    0.7014    0.1534   -1.3996 H   0  0  0  0  0  0  0  0  0  0  0  0
    1.0255   -1.4563   -0.7523 H   0  0  0  0  0  0  0  0  0  0  0  0
   -0.6560   -1.3470   -2.0430 C   0  0  0  0  0  0  0  0  0  0  0  0
   -0.3753   -2.4589   -2.8078 N   0  0  0  0  0  0  0  0  0  0  0  0
    0.4944   -2.9705   -2.8172 H   0  0  0  0  0  0  0  0  0  0  0  0
   -1.4623   -2.7411   -3.5454 C   0  0  0  0  0  0  0  0  0  0  0  0
   -1.5449   -3.5584   -4.2514 H   0  0  0  0  0  0  0  0  0  0  0  0
   -2.4427   -1.8649   -3.2819 N   0  0  0  0  0  0  0  0  0  0  0  0
   -1.9409   -0.9716   -2.3318 C   0  0  0  0  0  0  0  0  0  0  0  0
   -2.4817   -0.1516   -1.8773 H   0  0  0  0  0  0  0  0  0  0  0  0
   -0.6600    1.1486    0.4782 C   0  0  0  0  0  0  0  0  0  0  0  0
   -1.5001    1.7648   -0.1771 O   0  0  0  0  0  0  0  0  0  0  0  0
    0.1634    1.7559    1.3418 N   0  0  0  0  0  0  0  0  0  0  0  0
    0.8618    1.1897    1.8008 H   0  0  0  0  0  0  0  0  0  0  0  0
    0.1509    3.1886    1.6256 C   0  0  0  0  0  0  0  0  0  0  0  0
   -0.8272    3.4794    2.0152 H   0  0  0  0  0  0  0  0  0  0  0  0
    0.9172    3.4314    2.3624 H   0  0  0  0  0  0  0  0  0  0  0  0
    0.3414    3.7499    0.7095 H   0  0  0  0  0  0  0  0  0  0  0  0
  5  6  2  0  0  0  0
  5  7  1  0  0  0  0
  2  3  1  0  0  0  0
  2  4  1  0  0  0  0
  2  5  1  0  0  0  0
  1  2  1  0  0  0  0
 22 23  2  0  0  0  0
 22 24  1  0  0  0  0
 20 21  1  0  0  0  0
 19 20  1  0  0  0  0
 17 18  1  0  0  0  0
 17 19  2  0  0  0  0
 15 16  1  0  0  0  0
 15 17  1  0  0  0  0
 14 15  1  0  0  0  0
 14 20  2  0  0  0  0
 11 12  1  0  0  0  0
 11 13  1  0  0  0  0
 11 14  1  0  0  0  0
  9 10  1  0  0  0  0
  9 11  1  0  0  0  0
  9 22  1  0  0  0  0
  7  8  1  0  0  0  0
  7  9  1  0  0  0  0
 26 27  1  0  0  0  0
 26 28  1  0  0  0  0
 26 29  1  0  0  0  0
 24 25  1  0  0  0  0
 24 26  1  0  0  0  0
M  END
$$$$
default_name
  -OEChem-02102213163D

 29 29  0     1  0  0  0  0  0999 V2000
   -3.6042   -3.5728    1.4576 H   0  0  0  0  0  0  0  0  0  0  0  0
   -3.5202   -2.6488    0.8866 C   0  0  0  0  0  0  0  0  0  0  0  0
   -4.2052   -1.9048    1.2896 H   0  0  0  0  0  0  0  0  0  0  0  0
   -3.7552   -2.8428   -0.1584 H   0  0  0  0  0  0  0  0  0  0  0  0
   -2.1052   -2.1358    0.9946 C   0  0  0  0  0  0  0  0  0  0  0  0
   -1.2852   -2.7288    1.6826 O   0  0  0  0  0  0  0  0  0  0  0  0
   -1.8202   -1.0288    0.3146 N   0  0  0  0  0  0  0  0  0  0  0  0
   -2.5542   -0.5788   -0.2104 H   0  0  0  0  0  0  0  0  0  0  0  0
   -0.5102   -0.3728    0.3086 C   0  0  1  0  0  0  0  0  0  0  0  0
    0.0719   -0.7468    1.1521 H   0  0  0  0  0  0  0  0  0  0  0  0
    0.2338   -0.7427   -0.9878 C   0  0  0  0  0  0  0  0  0  0  0  0
    0.7014    0.1534   -1.3996 H   0  0  0  0  0  0  0  0  0  0  0  0
    1.0255   -1.4563   -0.7523 H   0  0  0  0  0  0  0  0  0  0  0  0
   -0.6560   -1.3470   -2.0430 C   0  0  0  0  0  0  0  0  0  0  0  0
   -0.5234   -2.5999   -2.6022 N   0  0  0  0  0  0  0  0  0  0  0  0
    0.2310   -3.2490   -2.4355 H   0  0  0  0  0  0  0  0  0  0  0  0
   -1.5736   -2.8056   -3.4147 C   0  0  0  0  0  0  0  0  0  0  0  0
   -1.7457   -3.6999   -4.0011 H   0  0  0  0  0  0  0  0  0  0  0  0
   -2.3899   -1.7418   -3.3968 N   0  0  0  0  0  0  0  0  0  0  0  0
   -1.8154   -0.8067   -2.5321 C   0  0  0  0  0  0  0  0  0  0  0  0
   -2.2297    0.1573   -2.2666 H   0  0  0  0  0  0  0  0  0  0  0  0
   -0.6600    1.1486    0.4782 C   0  0  0  0  0  0  0  0  0  0  0  0
   -1.5001    1.7648   -0.1771 O   0  0  0  0  0  0  0  0  0  0  0  0
    0.1634    1.7559    1.3418 N   0  0  0  0  0  0  0  0  0  0  0  0
    0.8618    1.1897    1.8008 H   0  0  0  0  0  0  0  0  0  0  0  0
    0.1509    3.1886    1.6256 C   0  0  0  0  0  0  0  0  0  0  0  0
   -0.8272    3.4794    2.0152 H   0  0  0  0  0  0  0  0  0  0  0  0
    0.9172    3.4314    2.3624 H   0  0  0  0  0  0  0  0  0  0  0  0
    0.3414    3.7499    0.7095 H   0  0  0  0  0  0  0  0  0  0  0  0
  5  6  2  0  0  0  0
  5  7  1  0  0  0  0
  2  3  1  0  0  0  0
  2  4  1  0  0  0  0
  2  5  1  0  0  0  0
  1  2  1  0  0  0  0
 22 23  2  0  0  0  0
 22 24  1  0  0  0  0
 20 21  1  0  0  0  0
 19 20  1  0  0  0  0
 17 18  1  0  0  0  0
 17 19  2  0  0  0  0
 15 16  1  0  0  0  0
 15 17  1  0  0  0  0
 14 15  1  0  0  0  0
 14 20  2  0  0  0  0
 11 12  1  0  0  0  0
 11 13  1  0  0  0  0
 11 14  1  0  0  0  0
  9 10  1  0  0  0  0
  9 11  1  0  0  0  0
  9 22  1  0  0  0  0
  7  8  1  0  0  0  0
  7  9  1  0  0  0  0
 26 27  1  0  0  0  0
 26 28  1  0  0  0  0
 26 29  1  0  0  0  0
 24 25  1  0  0  0  0
 24 26  1  0  0  0  0
M  END
$$$$
default_name
  -OEChem-02102213163D

 29 29  0     1  0  0  0  0  0999 V2000
   -3.6042   -3.5728    1.4576 H   0  0  0  0  0  0  0  0  0  0  0  0
   -3.5202   -2.6488    0.8866 C   0  0  0  0  0  0  0  0  0  0  0  0
   -4.2052   -1.9048    1.2896 H   0  0  0  0  0  0  0  0  0  0  0  0
   -3.7552   -2.8428   -0.1584 H   0  0  0  0  0  0  0  0  0  0  0  0
   -2.1052   -2.1358    0.9946 C   0  0  0  0  0  0  0  0  0  0  0  0
   -1.2852   -2.7288    1.6826 O   0  0  0  0  0  0  0  0  0  0  0  0
   -1.8202   -1.0288    0.3146 N   0  0  0  0  0  0  0  0  0  0  0  0
   -2.5542   -0.5788   -0.2104 H   0  0  0  0  0  0  0  0  0  0  0  0
   -0.5102   -0.3728    0.3086 C   0  0  1  0  0  0  0  0  0  0  0  0
    0.0719   -0.7468    1.1521 H   0  0  0  0  0  0  0  0  0  0  0  0
    0.2338   -0.7427   -0.9878 C   0  0  0  0  0  0  0  0  0  0  0  0
    0.7014    0.1534   -1.3996 H   0  0  0  0  0  0  0  0  0  0  0  0
    1.0255   -1.4563   -0.7523 H   0  0  0  0  0  0  0  0  0  0  0  0
   -0.6560   -1.3470   -2.0430 C   0  0  0  0  0  0  0  0  0  0  0  0
   -0.7134   -2.6779   -2.3973 N   0  0  0  0  0  0  0  0  0  0  0  0
   -0.1136   -3.4120   -2.0516 H   0  0  0  0  0  0  0  0  0  0  0  0
   -1.7063   -2.8277   -3.2901 C   0  0  0  0  0  0  0  0  0  0  0  0
   -1.9913   -3.7619   -3.7584 H   0  0  0  0  0  0  0  0  0  0  0  0
   -2.3048   -1.6501   -3.5212 N   0  0  0  0  0  0  0  0  0  0  0  0
   -1.6435   -0.7008   -2.7377 C   0  0  0  0  0  0  0  0  0  0  0  0
   -1.8900    0.3505   -2.6638 H   0  0  0  0  0  0  0  0  0  0  0  0
   -0.6600    1.1486    0.4782 C   0  0  0  0  0  0  0  0  0  0  0  0
   -1.5001    1.7648   -0.1771 O   0  0  0  0  0  0  0  0  0  0  0  0
    0.1634    1.7559    1.3418 N   0  0  0  0  0  0  0  0  0  0  0  0
    0.8618    1.1897    1.8008 H   0  0  0  0  0  0  0  0  0  0  0  0
    0.1509    3.1886    1.6256 C   0  0  0  0  0  0  0  0  0  0  0  0
   -0.8272    3.4794    2.0152 H   0  0  0  0  0  0  0  0  0  0  0  0
    0.9172    3.4314    2.3624 H   0  0  0  0  0  0  0  0  0  0  0  0
    0.3414    3.7499    0.7095 H   0  0  0  0  0  0  0  0  0  0  0  0
  5  6  2  0  0  0  0
  5  7  1  0  0  0  0
  2  3  1  0  0  0  0
  2  4  1  0  0  0  0
  2  5  1  0  0  0  0
  1  2  1  0  0  0  0
 22 23  2  0  0  0  0
 22 24  1  0  0  0  0
 20 21  1  0  0  0  0
 19 20  1  0  0  0  0
 17 18  1  0  0  0  0
 17 19  2  0  0  0  0
 15 16  1  0  0  0  0
 15 17  1  0  0  0  0
 14 15  1  0  0  0  0
 14 20  2  0  0  0  0
 11 12  1  0  0  0  0
 11 13  1  0  0  0  0
 11 14  1  0  0  0  0
  9 10  1  0  0  0  0
  9 11  1  0  0  0  0
  9 22  1  0  0  0  0
  7  8  1  0  0  0  0
  7  9  1  0  0  0  0
 26 27  1  0  0  0  0
 26 28  1  0  0  0  0
 26 29  1  0  0  0  0
 24 25  1  0  0  0  0
 24 26  1  0  0  0  0
M  END
$$$$
default_name
  -OEChem-02102213163D

 29 29  0     1  0  0  0  0  0999 V2000
   -3.6042   -3.5728    1.4576 H   0  0  0  0  0  0  0  0  0  0  0  0
   -3.5202   -2.6488    0.8866 C   0  0  0  0  0  0  0  0  0  0  0  0
   -4.2052   -1.9048    1.2896 H   0  0  0  0  0  0  0  0  0  0  0  0
   -3.7552   -2.8428   -0.1584 H   0  0  0  0  0  0  0  0  0  0  0  0
   -2.1052   -2.1358    0.9946 C   0  0  0  0  0  0  0  0  0  0  0  0
   -1.2852   -2.7288    1.6826 O   0  0  0  0  0  0  0  0  0  0  0  0
   -1.8202   -1.0288    0.3146 N   0  0  0  0  0  0  0  0  0  0  0  0
   -2.5542   -0.5788   -0.2104 H   0  0  0  0  0  0  0  0  0  0  0  0
   -0.5102   -0.3728    0.3086 C   0  0  1  0  0  0  0  0  0  0  0  0
    0.0719   -0.7468    1.1521 H   0  0  0  0  0  0  0  0  0  0  0  0
    0.2338   -0.7427   -0.9878 C   0  0  0  0  0  0  0  0  0  0  0  0
    0.7014    0.1534   -1.3996 H   0  0  0  0  0  0  0  0  0  0  0  0
    1.0255   -1.4563   -0.7523 H   0  0  0  0  0  0  0  0  0  0  0  0
   -0.6560   -1.3470   -2.0430 C   0  0  0  0  0  0  0  0  0  0  0  0
   -0.9323   -2.6874   -2.2073 N   0  0  0  0  0  0  0  0  0  0  0  0
   -0.5158   -3.4482   -1.6917 H   0  0  0  0  0  0  0  0  0  0  0  0
   -1.8515   -2.8060   -3.1801 C   0  0  0  0  0  0  0  0  0  0  0  0
   -2.2650   -3.7402   -3.5401 H   0  0  0  0  0  0  0  0  0  0  0  0
   -2.1930   -1.5960   -3.6465 N   0  0  0  0  0  0  0  0  0  0  0  0
   -1.4369   -0.6610   -2.9346 C   0  0  0  0  0  0  0  0  0  0  0  0
   -1.4855    0.4149   -3.0417 H   0  0  0  0  0  0  0  0  0  0  0  0
   -0.6600    1.1486    0.4782 C   0  0  0  0  0  0  0  0  0  0  0  0
   -1.5001    1.7648   -0.1771 O   0  0  0  0  0  0  0  0  0  0  0  0
    0.1634    1.7559    1.3418 N   0  0  0  0  0  0  0  0  0  0  0  0
    0.8618    1.1897    1.8008 H   0  0  0  0  0  0  0  0  0  0  0  0
    0.1509    3.1886    1.6256 C   0  0  0  0  0  0  0  0  0  0  0  0
   -0.8272    3.4794    2.0152 H   0  0  0  0  0  0  0  0  0  0  0  0
    0.9172    3.4314    2.3624 H   0  0  0  0  0  0  0  0  0  0  0  0
    0.3414    3.7499    0.7095 H   0  0  0  0  0  0  0  0  0  0  0  0
  5  6  2  0  0  0  0
  5  7  1  0  0  0  0
  2  3  1  0  0  0  0
  2  4  1  0  0  0  0
  2  5  1  0  0  0  0
  1  2  1  0  0  0  0
 22 23  2  0  0  0  0
 22 24  1  0  0  0  0
 20 21  1  0  0  0  0
 19 20  1  0  0  0  0
 17 18  1  0  0  0  0
 17 19  2  0  0  0  0
 15 16  1  0  0  0  0
 15 17  1  0  0  0  0
 14 15  1  0  0  0  0
 14 20  2  0  0  0  0
 11 12  1  0  0  0  0
 11 13  1  0  0  0  0
 11 14  1  0  0  0  0
  9 10  1  0  0  0  0
  9 11  1  0  0  0  0
  9 22  1  0  0  0  0
  7  8  1  0  0  0  0
  7  9  1  0  0  0  0
 26 27  1  0  0  0  0
 26 28  1  0  0  0  0
 26 29  1  0  0  0  0
 24 25  1  0  0  0  0
 24 26  1  0  0  0  0
M  END
$$$$
default_name
  -OEChem-02102213163D

 29 29  0     1  0  0  0  0  0999 V2000
   -3.6042   -3.5728    1.4576 H   0  0  0  0  0  0  0  0  0  0  0  0
   -3.5202   -2.6488    0.8866 C   0  0  0  0  0  0  0  0  0  0  0  0
   -4.2052   -1.9048    1.2896 H   0  0  0  0  0  0  0  0  0  0  0  0
   -3.7552   -2.8428   -0.1584 H   0  0  0  0  0  0  0  0  0  0  0  0
   -2.1052   -2.1358    0.9946 C   0  0  0  0  0  0  0  0  0  0  0  0
   -1.2852   -2.7288    1.6826 O   0  0  0  0  0  0  0  0  0  0  0  0
   -1.8202   -1.0288    0.3146 N   0  0  0  0  0  0  0  0  0  0  0  0
   -2.5542   -0.5788   -0.2104 H   0  0  0  0  0  0  0  0  0  0  0  0
   -0.5102   -0.3728    0.3086 C   0  0  1  0  0  0  0  0  0  0  0  0
    0.0719   -0.7468    1.1521 H   0  0  0  0  0  0  0  0  0  0  0  0
    0.2338   -0.7427   -0.9878 C   0  0  0  0  0  0  0  0  0  0  0  0
    0.7014    0.1534   -1.3996 H   0  0  0  0  0  0  0  0  0  0  0  0
    1.0255   -1.4563   -0.7523 H   0  0  0  0  0  0  0  0  0  0  0  0
   -0.6560   -1.3470   -2.0430 C   0  0  0  0  0  0  0  0  0  0  0  0
   -1.1652   -2.6279   -2.0450 N   0  0  0  0  0  0  0  0  0  0  0  0
   -0.9482   -3.3554   -1.3802 H   0  0  0  0  0  0  0  0  0  0  0  0
   -1.9992   -2.7419   -3.0923 C   0  0  0  0  0  0  0  0  0  0  0  0
   -2.5481   -3.6362   -3.3609 H   0  0  0  0  0  0  0  0  0  0  0  0
   -2.0621   -1.5831   -3.7641 N   0  0  0  0  0  0  0  0  0  0  0  0
   -1.2097   -0.6902   -3.1095 C   0  0  0  0  0  0  0  0  0  0  0  0
   -1.0439    0.3460   -3.3746 H   0  0  0  0  0  0  0  0  0  0  0  0
   -0.6600    1.1486    0.4782 C   0  0  0  0  0  0  0  0  0  0  0  0
   -1.5001    1.7648   -0.1771 O   0  0  0  0  0  0  0  0  0  0  0  0
    0.1634    1.7559    1.3418 N   0  0  0  0  0  0  0  0  0  0  0  0
    0.8618    1.1897    1.8008 H   0  0  0  0  0  0  0  0  0  0  0  0
    0.1509    3.1886    1.6256 C   0  0  0  0  0  0  0  0  0  0  0  0
   -0.8272    3.4794    2.0152 H   0  0  0  0  0  0  0  0  0  0  0  0
    0.9172    3.4314    2.3624 H   0  0  0  0  0  0  0  0  0  0  0  0
    0.3414    3.7499    0.7095 H   0  0  0  0  0  0  0  0  0  0  0  0
  5  6  2  0  0  0  0
  5  7  1  0  0  0  0
  2  3  1  0  0  0  0
  2  4  1  0  0  0  0
  2  5  1  0  0  0  0
  1  2  1  0  0  0  0
 22 23  2  0  0  0  0
 22 24  1  0  0  0  0
 20 21  1  0  0  0  0
 19 20  1  0  0  0  0
 17 18  1  0  0  0  0
 17 19  2  0  0  0  0
 15 16  1  0  0  0  0
 15 17  1  0  0  0  0
 14 15  1  0  0  0  0
 14 20  2  0  0  0  0
 11 12  1  0  0  0  0
 11 13  1  0  0  0  0
 11 14  1  0  0  0  0
  9 10  1  0  0  0  0
  9 11  1  0  0  0  0
  9 22  1  0  0  0  0
  7  8  1  0  0  0  0
  7  9  1  0  0  0  0
 26 27  1  0  0  0  0
 26 28  1  0  0  0  0
 26 29  1  0  0  0  0
 24 25  1  0  0  0  0
 24 26  1  0  0  0  0
M  END
$$$$
default_name
  -OEChem-02102213163D

 29 29  0     1  0  0  0  0  0999 V2000
   -3.6042   -3.5728    1.4576 H   0  0  0  0  0  0  0  0  0  0  0  0
   -3.5202   -2.6488    0.8866 C   0  0  0  0  0  0  0  0  0  0  0  0
   -4.2052   -1.9048    1.2896 H   0  0  0  0  0  0  0  0  0  0  0  0
   -3.7552   -2.8428   -0.1584 H   0  0  0  0  0  0  0  0  0  0  0  0
   -2.1052   -2.1358    0.9946 C   0  0  0  0  0  0  0  0  0  0  0  0
   -1.2852   -2.7288    1.6826 O   0  0  0  0  0  0  0  0  0  0  0  0
   -1.8202   -1.0288    0.3146 N   0  0  0  0  0  0  0  0  0  0  0  0
   -2.5542   -0.5788   -0.2104 H   0  0  0  0  0  0  0  0  0  0  0  0
   -0.5102   -0.3728    0.3086 C   0  0  1  0  0  0  0  0  0  0  0  0
    0.0719   -0.7468    1.1521 H   0  0  0  0  0  0  0  0  0  0  0  0
    0.2338   -0.7427   -0.9878 C   0  0  0  0  0  0  0  0  0  0  0  0
    0.7014    0.1534   -1.3996 H   0  0  0  0  0  0  0  0  0  0  0  0
    1.0255   -1.4563   -0.7523 H   0  0  0  0  0  0  0  0  0  0  0  0
   -0.6560   -1.3470   -2.0430 C   0  0  0  0  0  0  0  0  0  0  0  0
   -1.3962   -2.5034   -1.9214 N   0  0  0  0  0  0  0  0  0  0  0  0
   -1.3814   -3.1397   -1.1385 H   0  0  0  0  0  0  0  0  0  0  0  0
   -2.1393   -2.6399   -3.0325 C   0  0  0  0  0  0  0  0  0  0  0  0
   -2.8212   -3.4571   -3.2331 H   0  0  0  0  0  0  0  0  0  0  0  0
   -1.9212   -1.6123   -3.8662 N   0  0  0  0  0  0  0  0  0  0  0  0
   -0.9774   -0.7863   -3.2503 C   0  0  0  0  0  0  0  0  0  0  0  0
   -0.5954    0.1485   -3.6398 H   0  0  0  0  0  0  0  0  0  0  0  0
   -0.6600    1.1486    0.4782 C   0  0  0  0  0  0  0  0  0  0  0  0
   -1.5001    1.7648   -0.1771 O   0  0  0  0  0  0  0  0  0  0  0  0
    0.1634    1.7559    1.3418 N   0  0  0  0  0  0  0  0  0  0  0  0
    0.8618    1.1897    1.8008 H   0  0  0  0  0  0  0  0  0  0  0  0
    0.1509    3.1886    1.6256 C   0  0  0  0  0  0  0  0  0  0  0  0
   -0.8272    3.4794    2.0152 H   0  0  0  0  0  0  0  0  0  0  0  0
    0.9172    3.4314    2.3624 H   0  0  0  0  0  0  0  0  0  0  0  0
    0.3414    3.7499    0.7095 H   0  0  0  0  0  0  0  0  0  0  0  0
  5  6  2  0  0  0  0
  5  7  1  0  0  0  0
  2  3  1  0  0  0  0
  2  4  1  0  0  0  0
  2  5  1  0  0  0  0
  1  2  1  0  0  0  0
 22 23  2  0  0  0  0
 22 24  1  0  0  0  0
 20 21  1  0  0  0  0
 19 20  1  0  0  0  0
 17 18  1  0  0  0  0
 17 19  2  0  0  0  0
 15 16  1  0  0  0  0
 15 17  1  0  0  0  0
 14 15  1  0  0  0  0
 14 20  2  0  0  0  0
 11 12  1  0  0  0  0
 11 13  1  0  0  0  0
 11 14  1  0  0  0  0
  9 10  1  0  0  0  0
  9 11  1  0  0  0  0
  9 22  1  0  0  0  0
  7  8  1  0  0  0  0
  7  9  1  0  0  0  0
 26 27  1  0  0  0  0
 26 28  1  0  0  0  0
 26 29  1  0  0  0  0
 24 25  1  0  0  0  0
 24 26  1  0  0  0  0
M  END
$$$$
default_name
  -OEChem-02102213163D

 29 29  0     1  0  0  0  0  0999 V2000
   -3.6042   -3.5728    1.4576 H   0  0  0  0  0  0  0  0  0  0  0  0
   -3.5202   -2.6488    0.8866 C   0  0  0  0  0  0  0  0  0  0  0  0
   -4.2052   -1.9048    1.2896 H   0  0  0  0  0  0  0  0  0  0  0  0
   -3.7552   -2.8428   -0.1584 H   0  0  0  0  0  0  0  0  0  0  0  0
   -2.1052   -2.1358    0.9946 C   0  0  0  0  0  0  0  0  0  0  0  0
   -1.2852   -2.7288    1.6826 O   0  0  0  0  0  0  0  0  0  0  0  0
   -1.8202   -1.0288    0.3146 N   0  0  0  0  0  0  0  0  0  0  0  0
   -2.5542   -0.5788   -0.2104 H   0  0  0  0  0  0  0  0  0  0  0  0
   -0.5102   -0.3728    0.3086 C   0  0  1  0  0  0  0  0  0  0  0  0
    0.0719   -0.7468    1.1521 H   0  0  0  0  0  0  0  0  0  0  0  0
    0.2338   -0.7427   -0.9878 C   0  0  0  0  0  0  0  0  0  0  0  0
    0.7014    0.1534   -1.3996 H   0  0  0  0  0  0  0  0  0  0  0  0
    1.0255   -1.4563   -0.7523 H   0  0  0  0  0  0  0  0  0  0  0  0
   -0.6560   -1.3470   -2.0430 C   0  0  0  0  0  0  0  0  0  0  0  0
   -1.6096   -2.3224   -1.8451 N   0  0  0  0  0  0  0  0  0  0  0  0
   -1.7859   -2.8159   -0.9828 H   0  0  0  0  0  0  0  0  0  0  0  0
   -2.2624   -2.5067   -3.0050 C   0  0  0  0  0  0  0  0  0  0  0  0
   -3.0659   -3.2151   -3.1654 H   0  0  0  0  0  0  0  0  0  0  0  0
   -1.7798   -1.6817   -3.9457 N   0  0  0  0  0  0  0  0  0  0  0  0
   -0.7558   -0.9427   -3.3476 C   0  0  0  0  0  0  0  0  0  0  0  0
   -0.1703   -0.1641   -3.8192 H   0  0  0  0  0  0  0  0  0  0  0  0
   -0.6600    1.1486    0.4782 C   0  0  0  0  0  0  0  0  0  0  0  0
   -1.5001    1.7648   -0.1771 O   0  0  0  0  0  0  0  0  0  0  0  0
    0.1634    1.7559    1.3418 N   0  0  0  0  0  0  0  0  0  0  0  0
    0.8618    1.1897    1.8008 H   0  0  0  0  0  0  0  0  0  0  0  0
    0.1509    3.1886    1.6256 C   0  0  0  0  0  0  0  0  0  0  0  0
   -0.8272    3.4794    2.0152 H   0  0  0  0  0  0  0  0  0  0  0  0
    0.9172    3.4314    2.3624 H   0  0  0  0  0  0  0  0  0  0  0  0
    0.3414    3.7499    0.7095 H   0  0  0  0  0  0  0  0  0  0  0  0
  5  6  2  0  0  0  0
  5  7  1  0  0  0  0
  2  3  1  0  0  0  0
  2  4  1  0  0  0  0
  2  5  1  0  0  0  0
  1  2  1  0  0  0  0
 22 23  2  0  0  0  0
 22 24  1  0  0  0  0
 20 21  1  0  0  0  0
 19 20  1  0  0  0  0
 17 18  1  0  0  0  0
 17 19  2  0  0  0  0
 15 16  1  0  0  0  0
 15 17  1  0  0  0  0
 14 15  1  0  0  0  0
 14 20  2  0  0  0  0
 11 12  1  0  0  0  0
 11 13  1  0  0  0  0
 11 14  1  0  0  0  0
  9 10  1  0  0  0  0
  9 11  1  0  0  0  0
  9 22  1  0  0  0  0
  7  8  1  0  0  0  0
  7  9  1  0  0  0  0
 26 27  1  0  0  0  0
 26 28  1  0  0  0  0
 26 29  1  0  0  0  0
 24 25  1  0  0  0  0
 24 26  1  0  0  0  0
M  END
$$$$
default_name
  -OEChem-02102213163D

 29 29  0     1  0  0  0  0  0999 V2000
   -3.6042   -3.5728    1.4576 H   0  0  0  0  0  0  0  0  0  0  0  0
   -3.5202   -2.6488    0.8866 C   0  0  0  0  0  0  0  0  0  0  0  0
   -4.2052   -1.9048    1.2896 H   0  0  0  0  0  0  0  0  0  0  0  0
   -3.7552   -2.8428   -0.1584 H   0  0  0  0  0  0  0  0  0  0  0  0
   -2.1052   -2.1358    0.9946 C   0  0  0  0  0  0  0  0  0  0  0  0
   -1.2852   -2.7288    1.6826 O   0  0  0  0  0  0  0  0  0  0  0  0
   -1.8202   -1.0288    0.3146 N   0  0  0  0  0  0  0  0  0  0  0  0
   -2.5542   -0.5788   -0.2104 H   0  0  0  0  0  0  0  0  0  0  0  0
   -0.5102   -0.3728    0.3086 C   0  0  1  0  0  0  0  0  0  0  0  0
    0.0719   -0.7468    1.1521 H   0  0  0  0  0  0  0  0  0  0  0  0
    0.2338   -0.7427   -0.9878 C   0  0  0  0  0  0  0  0  0  0  0  0
    0.7014    0.1534   -1.3996 H   0  0  0  0  0  0  0  0  0  0  0  0
    1.0255   -1.4563   -0.7523 H   0  0  0  0  0  0  0  0  0  0  0  0
   -0.6560   -1.3470   -2.0430 C   0  0  0  0  0  0  0  0  0  0  0  0
   -1.7909   -2.0972   -1.8213 N   0  0  0  0  0  0  0  0  0  0  0  0
   -2.1340   -2.4060   -0.9240 H   0  0  0  0  0  0  0  0  0  0  0  0
   -2.3600   -2.3516   -3.0115 C   0  0  0  0  0  0  0  0  0  0  0  0
   -3.2654   -2.9266   -3.1624 H   0  0  0  0  0  0  0  0  0  0  0  0
   -1.6476   -1.7865   -3.9972 N   0  0  0  0  0  0  0  0  0  0  0  0
   -0.5600   -1.1489   -3.3946 C   0  0  0  0  0  0  0  0  0  0  0  0
    0.2022   -0.5705   -3.9005 H   0  0  0  0  0  0  0  0  0  0  0  0
   -0.6600    1.1486    0.4782 C   0  0  0  0  0  0  0  0  0  0  0  0
   -1.5001    1.7648   -0.1771 O   0  0  0  0  0  0  0  0  0  0  0  0
    0.1634    1.7559    1.3418 N   0  0  0  0  0  0  0  0  0  0  0  0
    0.8618    1.1897    1.8008 H   0  0  0  0  0  0  0  0  0  0  0  0
    0.1509    3.1886    1.6256 C   0  0  0  0  0  0  0  0  0  0  0  0
   -0.8272    3.4794    2.0152 H   0  0  0  0  0  0  0  0  0  0  0  0
    0.9172    3.4314    2.3624 H   0  0  0  0  0  0  0  0  0  0  0  0
    0.3414    3.7499    0.7095 H   0  0  0  0  0  0  0  0  0  0  0  0
  5  6  2  0  0  0  0
  5  7  1  0  0  0  0
  2  3  1  0  0  0  0
  2  4  1  0  0  0  0
  2  5  1  0  0  0  0
  1  2  1  0  0  0  0
 22 23  2  0  0  0  0
 22 24  1  0  0  0  0
 20 21  1  0  0  0  0
 19 20  1  0  0  0  0
 17 18  1  0  0  0  0
 17 19  2  0  0  0  0
 15 16  1  0  0  0  0
 15 17  1  0  0  0  0
 14 15  1  0  0  0  0
 14 20  2  0  0  0  0
 11 12  1  0  0  0  0
 11 13  1  0  0  0  0
 11 14  1  0  0  0  0
  9 10  1  0  0  0  0
  9 11  1  0  0  0  0
  9 22  1  0  0  0  0
  7  8  1  0  0  0  0
  7  9  1  0  0  0  0
 26 27  1  0  0  0  0
 26 28  1  0  0  0  0
 26 29  1  0  0  0  0
 24 25  1  0  0  0  0
 24 26  1  0  0  0  0
M  END
$$$$
default_name
  -OEChem-02102213163D

 29 29  0     1  0  0  0  0  0999 V2000
   -3.6042   -3.5728    1.4576 H   0  0  0  0  0  0  0  0  0  0  0  0
   -3.5202   -2.6488    0.8866 C   0  0  0  0  0  0  0  0  0  0  0  0
   -4.2052   -1.9048    1.2896 H   0  0  0  0  0  0  0  0  0  0  0  0
   -3.7552   -2.8428   -0.1584 H   0  0  0  0  0  0  0  0  0  0  0  0
   -2.1052   -2.1358    0.9946 C   0  0  0  0  0  0  0  0  0  0  0  0
   -1.2852   -2.7288    1.6826 O   0  0  0  0  0  0  0  0  0  0  0  0
   -1.8202   -1.0288    0.3146 N   0  0  0  0  0  0  0  0  0  0  0  0
   -2.5542   -0.5788   -0.2104 H   0  0  0  0  0  0  0  0  0  0  0  0
   -0.5102   -0.3728    0.3086 C   0  0  1  0  0  0  0  0  0  0  0  0
    0.0719   -0.7468    1.1521 H   0  0  0  0  0  0  0  0  0  0  0  0
    0.2338   -0.7427   -0.9878 C   0  0  0  0  0  0  0  0  0  0  0  0
    0.7014    0.1534   -1.3996 H   0  0  0  0  0  0  0  0  0  0  0  0
    1.0255   -1.4563   -0.7523 H   0  0  0  0  0  0  0  0  0  0  0  0
   -0.6560   -1.3470   -2.0430 C   0  0  0  0  0  0  0  0  0  0  0  0
   -1.9276   -1.8432   -1.8514 N   0  0  0  0  0  0  0  0  0  0  0  0
   -2.4021   -1.9380   -0.9660 H   0  0  0  0  0  0  0  0  0  0  0  0
   -2.4255   -2.1850   -3.0517 C   0  0  0  0  0  0  0  0  0  0  0  0
   -3.4062   -2.6113   -3.2243 H   0  0  0  0  0  0  0  0  0  0  0  0
   -1.5335   -1.9196   -4.0172 N   0  0  0  0  0  0  0  0  0  0  0  0
   -0.4034   -1.3907   -3.3882 C   0  0  0  0  0  0  0  0  0  0  0  0
    0.4968   -1.0430   -3.8784 H   0  0  0  0  0  0  0  0  0  0  0  0
   -0.6600    1.1486    0.4782 C   0  0  0  0  0  0  0  0  0  0  0  0
   -1.5001    1.7648   -0.1771 O   0  0  0  0  0  0  0  0  0  0  0  0
    0.1634    1.7559    1.3418 N   0  0  0  0  0  0  0  0  0  0  0  0
    0.8618    1.1897    1.8008 H   0  0  0  0  0  0  0  0  0  0  0  0
    0.1509    3.1886    1.6256 C   0  0  0  0  0  0  0  0  0  0  0  0
   -0.8272    3.4794    2.0152 H   0  0  0  0  0  0  0  0  0  0  0  0
    0.9172    3.4314    2.3624 H   0  0  0  0  0  0  0  0  0  0  0  0
    0.3414    3.7499    0.7095 H   0  0  0  0  0  0  0  0  0  0  0  0
  5  6  2  0  0  0  0
  5  7  1  0  0  0  0
  2  3  1  0  0  0  0
  2  4  1  0  0  0  0
  2  5  1  0  0  0  0
  1  2  1  0  0  0  0
 22 23  2  0  0  0  0
 22 24  1  0  0  0  0
 20 21  1  0  0  0  0
 19 20  1  0  0  0  0
 17 18  1  0  0  0  0
 17 19  2  0  0  0  0
 15 16  1  0  0  0  0
 15 17  1  0  0  0  0
 14 15  1  0  0  0  0
 14 20  2  0  0  0  0
 11 12  1  0  0  0  0
 11 13  1  0  0  0  0
 11 14  1  0  0  0  0
  9 10  1  0  0  0  0
  9 11  1  0  0  0  0
  9 22  1  0  0  0  0
  7  8  1  0  0  0  0
  7  9  1  0  0  0  0
 26 27  1  0  0  0  0
 26 28  1  0  0  0  0
 26 29  1  0  0  0  0
 24 25  1  0  0  0  0
 24 26  1  0  0  0  0
M  END
$$$$
default_name
  -OEChem-02102213163D

 29 29  0     1  0  0  0  0  0999 V2000
   -3.6042   -3.5728    1.4576 H   0  0  0  0  0  0  0  0  0  0  0  0
   -3.5202   -2.6488    0.8866 C   0  0  0  0  0  0  0  0  0  0  0  0
   -4.2052   -1.9048    1.2896 H   0  0  0  0  0  0  0  0  0  0  0  0
   -3.7552   -2.8428   -0.1584 H   0  0  0  0  0  0  0  0  0  0  0  0
   -2.1052   -2.1358    0.9946 C   0  0  0  0  0  0  0  0  0  0  0  0
   -1.2852   -2.7288    1.6826 O   0  0  0  0  0  0  0  0  0  0  0  0
   -1.8202   -1.0288    0.3146 N   0  0  0  0  0  0  0  0  0  0  0  0
   -2.5542   -0.5788   -0.2104 H   0  0  0  0  0  0  0  0  0  0  0  0
   -0.5102   -0.3728    0.3086 C   0  0  1  0  0  0  0  0  0  0  0  0
    0.0719   -0.7468    1.1521 H   0  0  0  0  0  0  0  0  0  0  0  0
    0.2338   -0.7427   -0.9878 C   0  0  0  0  0  0  0  0  0  0  0  0
    0.7014    0.1534   -1.3996 H   0  0  0  0  0  0  0  0  0  0  0  0
    1.0255   -1.4563   -0.7523 H   0  0  0  0  0  0  0  0  0  0  0  0
   -0.6560   -1.3470   -2.0430 C   0  0  0  0  0  0  0  0  0  0  0  0
   -2.0105   -1.5777   -1.9336 N   0  0  0  0  0  0  0  0  0  0  0  0
   -2.5719   -1.4438   -1.1058 H   0  0  0  0  0  0  0  0  0  0  0  0
   -2.4544   -2.0184   -3.1227 C   0  0  0  0  0  0  0  0  0  0  0  0
   -3.4785   -2.2907   -3.3469 H   0  0  0  0  0  0  0  0  0  0  0  0
   -1.4453   -2.0719   -4.0043 N   0  0  0  0  0  0  0  0  0  0  0  0
   -0.2966   -1.6517   -3.3288 C   0  0  0  0  0  0  0  0  0  0  0  0
    0.6934   -1.5494   -3.7542 H   0  0  0  0  0  0  0  0  0  0  0  0
   -0.6600    1.1486    0.4782 C   0  0  0  0  0  0  0  0  0  0  0  0
   -1.5001    1.7648   -0.1771 O   0  0  0  0  0  0  0  0  0  0  0  0
    0.1634    1.7559    1.3418 N   0  0  0  0  0  0  0  0  0  0  0  0
    0.8618    1.1897    1.8008 H   0  0  0  0  0  0  0  0  0  0  0  0
    0.1509    3.1886    1.6256 C   0  0  0  0  0  0  0  0  0  0  0  0
   -0.8272    3.4794    2.0152 H   0  0  0  0  0  0  0  0  0  0  0  0
    0.9172    3.4314    2.3624 H   0  0  0  0  0  0  0  0  0  0  0  0
    0.3414    3.7499    0.7095 H   0  0  0  0  0  0  0  0  0  0  0  0
  5  6  2  0  0  0  0
  5  7  1  0  0  0  0
  2  3  1  0  0  0  0
  2  4  1  0  0  0  0
  2  5  1  0  0  0  0
  1  2  1  0  0  0  0
 22 23  2  0  0  0  0
 22 24  1  0  0  0  0
 20 21  1  0  0  0  0
 19 20  1  0  0  0  0
 17 18  1  0  0  0  0
 17 19  2  0  0  0  0
 15 16  1  0  0  0  0
 15 17  1  0  0  0  0
 14 15  1  0  0  0  0
 14 20  2  0  0  0  0
 11 12  1  0  0  0  0
 11 13  1  0  0  0  0
 11 14  1  0  0  0  0
  9 10  1  0  0  0  0
  9 11  1  0  0  0  0
  9 22  1  0  0  0  0
  7  8  1  0  0  0  0
  7  9  1  0  0  0  0
 26 27  1  0  0  0  0
 26 28  1  0  0  0  0
 26 29  1  0  0  0  0
 24 25  1  0  0  0  0
 24 26  1  0  0  0  0
M  END
$$$$
default_name
  -OEChem-02102213163D

 29 29  0     1  0  0  0  0  0999 V2000
   -3.6042   -3.5728    1.4576 H   0  0  0  0  0  0  0  0  0  0  0  0
   -3.5202   -2.6488    0.8866 C   0  0  0  0  0  0  0  0  0  0  0  0
   -4.2052   -1.9048    1.2896 H   0  0  0  0  0  0  0  0  0  0  0  0
   -3.7552   -2.8428   -0.1584 H   0  0  0  0  0  0  0  0  0  0  0  0
   -2.1052   -2.1358    0.9946 C   0  0  0  0  0  0  0  0  0  0  0  0
   -1.2852   -2.7288    1.6826 O   0  0  0  0  0  0  0  0  0  0  0  0
   -1.8202   -1.0288    0.3146 N   0  0  0  0  0  0  0  0  0  0  0  0
   -2.5542   -0.5788   -0.2104 H   0  0  0  0  0  0  0  0  0  0  0  0
   -0.5102   -0.3728    0.3086 C   0  0  1  0  0  0  0  0  0  0  0  0
    0.0719   -0.7468    1.1521 H   0  0  0  0  0  0  0  0  0  0  0  0
    0.2338   -0.7427   -0.9878 C   0  0  0  0  0  0  0  0  0  0  0  0
    0.7014    0.1534   -1.3996 H   0  0  0  0  0  0  0  0  0  0  0  0
    1.0255   -1.4563   -0.7523 H   0  0  0  0  0  0  0  0  0  0  0  0
   -0.6560   -1.3470   -2.0430 C   0  0  0  0  0  0  0  0  0  0  0  0
   -2.0340   -1.3187   -2.0621 N   0  0  0  0  0  0  0  0  0  0  0  0
   -2.6317   -0.9570   -1.3341 H   0  0  0  0  0  0  0  0  0  0  0  0
   -2.4447   -1.8631   -3.2198 C   0  0  0  0  0  0  0  0  0  0  0  0
   -3.4776   -1.9867   -3.5218 H   0  0  0  0  0  0  0  0  0  0  0  0
   -1.3891   -2.2330   -3.9595 N   0  0  0  0  0  0  0  0  0  0  0  0
   -0.2469   -1.9140   -3.2205 C   0  0  0  0  0  0  0  0  0  0  0  0
    0.7786   -2.0552   -3.5364 H   0  0  0  0  0  0  0  0  0  0  0  0
   -0.6600    1.1486    0.4782 C   0  0  0  0  0  0  0  0  0  0  0  0
   -1.5001    1.7648   -0.1771 O   0  0  0  0  0  0  0  0  0  0  0  0
    0.1634    1.7559    1.3418 N   0  0  0  0  0  0  0  0  0  0  0  0
    0.8618    1.1897    1.8008 H   0  0  0  0  0  0  0  0  0  0  0  0
    0.1509    3.1886    1.6256 C   0  0  0  0  0  0  0  0  0  0  0  0
   -0.8272    3.4794    2.0152 H   0  0  0  0  0  0  0  0  0  0  0  0
    0.9172    3.4314    2.3624 H   0  0  0  0  0  0  0  0  0  0  0  0
    0.3414    3.7499    0.7095 H   0  0  0  0  0  0  0  0  0  0  0  0
  5  6  2  0  0  0  0
  5  7  1  0  0  0  0
  2  3  1  0  0  0  0
  2  4  1  0  0  0  0
  2  5  1  0  0  0  0
  1  2  1  0  0  0  0
 22 23  2  0  0  0  0
 22 24  1  0  0  0  0
 20 21  1  0  0  0  0
 19 20  1  0  0  0  0
 17 18  1  0  0  0  0
 17 19  2  0  0  0  0
 15 16  1  0  0  0  0
 15 17  1  0  0  0  0
 14 15  1  0  0  0  0
 14 20  2  0  0  0  0
 11 12  1  0  0  0  0
 11 13  1  0  0  0  0
 11 14  1  0  0  0  0
  9 10  1  0  0  0  0
  9 11  1  0  0  0  0
  9 22  1  0  0  0  0
  7  8  1  0  0  0  0
  7  9  1  0  0  0  0
 26 27  1  0  0  0  0
 26 28  1  0  0  0  0
 26 29  1  0  0  0  0
 24 25  1  0  0  0  0
 24 26  1  0  0  0  0
M  END
$$$$
default_name
  -OEChem-02102213163D

 29 29  0     1  0  0  0  0  0999 V2000
   -3.6042   -3.5728    1.4576 H   0  0  0  0  0  0  0  0  0  0  0  0
   -3.5202   -2.6488    0.8866 C   0  0  0  0  0  0  0  0  0  0  0  0
   -4.2052   -1.9048    1.2896 H   0  0  0  0  0  0  0  0  0  0  0  0
   -3.7552   -2.8428   -0.1584 H   0  0  0  0  0  0  0  0  0  0  0  0
   -2.1052   -2.1358    0.9946 C   0  0  0  0  0  0  0  0  0  0  0  0
   -1.2852   -2.7288    1.6826 O   0  0  0  0  0  0  0  0  0  0  0  0
   -1.8202   -1.0288    0.3146 N   0  0  0  0  0  0  0  0  0  0  0  0
   -2.5542   -0.5788   -0.2104 H   0  0  0  0  0  0  0  0  0  0  0  0
   -0.5102   -0.3728    0.3086 C   0  0  1  0  0  0  0  0  0  0  0  0
    0.0719   -0.7468    1.1521 H   0  0  0  0  0  0  0  0  0  0  0  0
    0.2338   -0.7427   -0.9878 C   0  0  0  0  0  0  0  0  0  0  0  0
    0.7014    0.1534   -1.3996 H   0  0  0  0  0  0  0  0  0  0  0  0
    1.0255   -1.4563   -0.7523 H   0  0  0  0  0  0  0  0  0  0  0  0
   -0.6560   -1.3470   -2.0430 C   0  0  0  0  0  0  0  0  0  0  0  0
   -1.9963   -1.0840   -2.2283 N   0  0  0  0  0  0  0  0  0  0  0  0
   -2.5777   -0.5109   -1.6352 H   0  0  0  0  0  0  0  0  0  0  0  0
   -2.3972   -1.7297   -3.3363 C   0  0  0  0  0  0  0  0  0  0  0  0
   -3.4034   -1.7199   -3.7371 H   0  0  0  0  0  0  0  0  0  0  0  0
   -1.3686   -2.3920   -3.8857 N   0  0  0  0  0  0  0  0  0  0  0  0
   -0.2577   -2.1599   -3.0706 C   0  0  0  0  0  0  0  0  0  0  0  0
    0.7467   -2.5259   -3.2398 H   0  0  0  0  0  0  0  0  0  0  0  0
   -0.6600    1.1486    0.4782 C   0  0  0  0  0  0  0  0  0  0  0  0
   -1.5001    1.7648   -0.1771 O   0  0  0  0  0  0  0  0  0  0  0  0
    0.1634    1.7559    1.3418 N   0  0  0  0  0  0  0  0  0  0  0  0
    0.8618    1.1897    1.8008 H   0  0  0  0  0  0  0  0  0  0  0  0
    0.1509    3.1886    1.6256 C   0  0  0  0  0  0  0  0  0  0  0  0
   -0.8272    3.4794    2.0152 H   0  0  0  0  0  0  0  0  0  0  0  0
    0.9172    3.4314    2.3624 H   0  0  0  0  0  0  0  0  0  0  0  0
    0.3414    3.7499    0.7095 H   0  0  0  0  0  0  0  0  0  0  0  0
  5  6  2  0  0  0  0
  5  7  1  0  0  0  0
  2  3  1  0  0  0  0
  2  4  1  0  0  0  0
  2  5  1  0  0  0  0
  1  2  1  0  0  0  0
 22 23  2  0  0  0  0
 22 24  1  0  0  0  0
 20 21  1  0  0  0  0
 19 20  1  0  0  0  0
 17 18  1  0  0  0  0
 17 19  2  0  0  0  0
 15 16  1  0  0  0  0
 15 17  1  0  0  0  0
 14 15  1  0  0  0  0
 14 20  2  0  0  0  0
 11 12  1  0  0  0  0
 11 13  1  0  0  0  0
 11 14  1  0  0  0  0
  9 10  1  0  0  0  0
  9 11  1  0  0  0  0
  9 22  1  0  0  0  0
  7  8  1  0  0  0  0
  7  9  1  0  0  0  0
 26 27  1  0  0  0  0
 26 28  1  0  0  0  0
 26 29  1  0  0  0  0
 24 25  1  0  0  0  0
 24 26  1  0  0  0  0
M  END
$$$$
default_name
  -OEChem-02102213163D

 29 29  0     1  0  0  0  0  0999 V2000
   -3.6042   -3.5728    1.4576 H   0  0  0  0  0  0  0  0  0  0  0  0
   -3.5202   -2.6488    0.8866 C   0  0  0  0  0  0  0  0  0  0  0  0
   -4.2052   -1.9048    1.2896 H   0  0  0  0  0  0  0  0  0  0  0  0
   -3.7552   -2.8428   -0.1584 H   0  0  0  0  0  0  0  0  0  0  0  0
   -2.1052   -2.1358    0.9946 C   0  0  0  0  0  0  0  0  0  0  0  0
   -1.2852   -2.7288    1.6826 O   0  0  0  0  0  0  0  0  0  0  0  0
   -1.8202   -1.0288    0.3146 N   0  0  0  0  0  0  0  0  0  0  0  0
   -2.5542   -0.5788   -0.2104 H   0  0  0  0  0  0  0  0  0  0  0  0
   -0.5102   -0.3728    0.3086 C   0  0  1  0  0  0  0  0  0  0  0  0
    0.0719   -0.7468    1.1521 H   0  0  0  0  0  0  0  0  0  0  0  0
    0.2338   -0.7427   -0.9878 C   0  0  0  0  0  0  0  0  0  0  0  0
    0.7014    0.1534   -1.3996 H   0  0  0  0  0  0  0  0  0  0  0  0
    1.0255   -1.4563   -0.7523 H   0  0  0  0  0  0  0  0  0  0  0  0
   -0.6560   -1.3470   -2.0430 C   0  0  0  0  0  0  0  0  0  0  0  0
   -1.9001   -0.8895   -2.4208 N   0  0  0  0  0  0  0  0  0  0  0  0
   -2.4133   -0.1358   -1.9887 H   0  0  0  0  0  0  0  0  0  0  0  0
   -2.3150   -1.6273   -3.4643 C   0  0  0  0  0  0  0  0  0  0  0  0
   -3.2611   -1.5086   -3.9782 H   0  0  0  0  0  0  0  0  0  0  0  0
   -1.3854   -2.5379   -3.7880 N   0  0  0  0  0  0  0  0  0  0  0  0
   -0.3282   -2.3725   -2.8893 C   0  0  0  0  0  0  0  0  0  0  0  0
    0.5997   -2.9295   -2.8848 H   0  0  0  0  0  0  0  0  0  0  0  0
   -0.6600    1.1486    0.4782 C   0  0  0  0  0  0  0  0  0  0  0  0
   -1.5001    1.7648   -0.1771 O   0  0  0  0  0  0  0  0  0  0  0  0
    0.1634    1.7559    1.3418 N   0  0  0  0  0  0  0  0  0  0  0  0
    0.8618    1.1897    1.8008 H   0  0  0  0  0  0  0  0  0  0  0  0
    0.1509    3.1886    1.6256 C   0  0  0  0  0  0  0  0  0  0  0  0
   -0.8272    3.4794    2.0152 H   0  0  0  0  0  0  0  0  0  0  0  0
    0.9172    3.4314    2.3624 H   0  0  0  0  0  0  0  0  0  0  0  0
    0.3414    3.7499    0.7095 H   0  0  0  0  0  0  0  0  0  0  0  0
  5  6  2  0  0  0  0
  5  7  1  0  0  0  0
  2  3  1  0  0  0  0
  2  4  1  0  0  0  0
  2  5  1  0  0  0  0
  1  2  1  0  0  0  0
 22 23  2  0  0  0  0
 22 24  1  0  0  0  0
 20 21  1  0  0  0  0
 19 20  1  0  0  0  0
 17 18  1  0  0  0  0
 17 19  2  0  0  0  0
 15 16  1  0  0  0  0
 15 17  1  0  0  0  0
 14 15  1  0  0  0  0
 14 20  2  0  0  0  0
 11 12  1  0  0  0  0
 11 13  1  0  0  0  0
 11 14  1  0  0  0  0
  9 10  1  0  0  0  0
  9 11  1  0  0  0  0
  9 22  1  0  0  0  0
  7  8  1  0  0  0  0
  7  9  1  0  0  0  0
 26 27  1  0  0  0  0
 26 28  1  0  0  0  0
 26 29  1  0  0  0  0
 24 25  1  0  0  0  0
 24 26  1  0  0  0  0
M  END
$$$$
default_name
  -OEChem-02102213163D

 29 29  0     1  0  0  0  0  0999 V2000
   -3.6042   -3.5728    1.4576 H   0  0  0  0  0  0  0  0  0  0  0  0
   -3.5202   -2.6488    0.8866 C   0  0  0  0  0  0  0  0  0  0  0  0
   -4.2052   -1.9048    1.2896 H   0  0  0  0  0  0  0  0  0  0  0  0
   -3.7552   -2.8428   -0.1584 H   0  0  0  0  0  0  0  0  0  0  0  0
   -2.1052   -2.1358    0.9946 C   0  0  0  0  0  0  0  0  0  0  0  0
   -1.2852   -2.7288    1.6826 O   0  0  0  0  0  0  0  0  0  0  0  0
   -1.8202   -1.0288    0.3146 N   0  0  0  0  0  0  0  0  0  0  0  0
   -2.5542   -0.5788   -0.2104 H   0  0  0  0  0  0  0  0  0  0  0  0
   -0.5102   -0.3728    0.3086 C   0  0  1  0  0  0  0  0  0  0  0  0
    0.0719   -0.7468    1.1521 H   0  0  0  0  0  0  0  0  0  0  0  0
    0.2338   -0.7427   -0.9878 C   0  0  0  0  0  0  0  0  0  0  0  0
    0.7014    0.1534   -1.3996 H   0  0  0  0  0  0  0  0  0  0  0  0
    1.0255   -1.4563   -0.7523 H   0  0  0  0  0  0  0  0  0  0  0  0
   -0.6560   -1.3470   -2.0430 C   0  0  0  0  0  0  0  0  0  0  0  0
   -1.7520   -0.7484   -2.6265 N   0  0  0  0  0  0  0  0  0  0  0  0
   -2.1499    0.1428   -2.3703 H   0  0  0  0  0  0  0  0  0  0  0  0
   -2.2037   -1.5628   -3.5951 C   0  0  0  0  0  0  0  0  0  0  0  0
   -3.0603   -1.3671   -4.2285 H   0  0  0  0  0  0  0  0  0  0  0  0
   -1.4381   -2.6610   -3.6731 N   0  0  0  0  0  0  0  0  0  0  0  0
   -0.4537   -2.5374   -2.6891 C   0  0  0  0  0  0  0  0  0  0  0  0
    0.3478   -3.2385   -2.4954 H   0  0  0  0  0  0  0  0  0  0  0  0
   -0.6600    1.1486    0.4782 C   0  0  0  0  0  0  0  0  0  0  0  0
   -1.5001    1.7648   -0.1771 O   0  0  0  0  0  0  0  0  0  0  0  0
    0.1634    1.7559    1.3418 N   0  0  0  0  0  0  0  0  0  0  0  0
    0.8618    1.1897    1.8008 H   0  0  0  0  0  0  0  0  0  0  0  0
    0.1509    3.1886    1.6256 C   0  0  0  0  0  0  0  0  0  0  0  0
   -0.8272    3.4794    2.0152 H   0  0  0  0  0  0  0  0  0  0  0  0
    0.9172    3.4314    2.3624 H   0  0  0  0  0  0  0  0  0  0  0  0
    0.3414    3.7499    0.7095 H   0  0  0  0  0  0  0  0  0  0  0  0
  5  6  2  0  0  0  0
  5  7  1  0  0  0  0
  2  3  1  0  0  0  0
  2  4  1  0  0  0  0
  2  5  1  0  0  0  0
  1  2  1  0  0  0  0
 22 23  2  0  0  0  0
 22 24  1  0  0  0  0
 20 21  1  0  0  0  0
 19 20  1  0  0  0  0
 17 18  1  0  0  0  0
 17 19  2  0  0  0  0
 15 16  1  0  0  0  0
 15 17  1  0  0  0  0
 14 15  1  0  0  0  0
 14 20  2  0  0  0  0
 11 12  1  0  0  0  0
 11 13  1  0  0  0  0
 11 14  1  0  0  0  0
  9 10  1  0  0  0  0
  9 11  1  0  0  0  0
  9 22  1  0  0  0  0
  7  8  1  0  0  0  0
  7  9  1  0  0  0  0
 26 27  1  0  0  0  0
 26 28  1  0  0  0  0
 26 29  1  0  0  0  0
 24 25  1  0  0  0  0
 24 26  1  0  0  0  0
M  END
$$$$
default_name
  -OEChem-02102213163D

 29 29  0     1  0  0  0  0  0999 V2000
   -3.6042   -3.5728    1.4576 H   0  0  0  0  0  0  0  0  0  0  0  0
   -3.5202   -2.6488    0.8866 C   0  0  0  0  0  0  0  0  0  0  0  0
   -4.2052   -1.9048    1.2896 H   0  0  0  0  0  0  0  0  0  0  0  0
   -3.7552   -2.8428   -0.1584 H   0  0  0  0  0  0  0  0  0  0  0  0
   -2.1052   -2.1358    0.9946 C   0  0  0  0  0  0  0  0  0  0  0  0
   -1.2852   -2.7288    1.6826 O   0  0  0  0  0  0  0  0  0  0  0  0
   -1.8202   -1.0288    0.3146 N   0  0  0  0  0  0  0  0  0  0  0  0
   -2.5542   -0.5788   -0.2104 H   0  0  0  0  0  0  0  0  0  0  0  0
   -0.5102   -0.3728    0.3086 C   0  0  1  0  0  0  0  0  0  0  0  0
    0.0719   -0.7468    1.1521 H   0  0  0  0  0  0  0  0  0  0  0  0
    0.2338   -0.7427   -0.9878 C   0  0  0  0  0  0  0  0  0  0  0  0
    0.7014    0.1534   -1.3996 H   0  0  0  0  0  0  0  0  0  0  0  0
    1.0255   -1.4563   -0.7523 H   0  0  0  0  0  0  0  0  0  0  0  0
   -0.6560   -1.3470   -2.0430 C   0  0  0  0  0  0  0  0  0  0  0  0
   -1.5620   -0.6705   -2.8313 N   0  0  0  0  0  0  0  0  0  0  0  0
   -1.8053    0.3058   -2.7542 H   0  0  0  0  0  0  0  0  0  0  0  0
   -2.0710   -1.5406   -3.7197 C   0  0  0  0  0  0  0  0  0  0  0  0
   -2.8146   -1.3051   -4.4712 H   0  0  0  0  0  0  0  0  0  0  0  0
   -1.5233   -2.7527   -3.5487 N   0  0  0  0  0  0  0  0  0  0  0  0
   -0.6256   -2.6433   -2.4835 C   0  0  0  0  0  0  0  0  0  0  0  0
    0.0080   -3.4317   -2.0982 H   0  0  0  0  0  0  0  0  0  0  0  0
   -0.6600    1.1486    0.4782 C   0  0  0  0  0  0  0  0  0  0  0  0
   -1.5001    1.7648   -0.1771 O   0  0  0  0  0  0  0  0  0  0  0  0
    0.1634    1.7559    1.3418 N   0  0  0  0  0  0  0  0  0  0  0  0
    0.8618    1.1897    1.8008 H   0  0  0  0  0  0  0  0  0  0  0  0
    0.1509    3.1886    1.6256 C   0  0  0  0  0  0  0  0  0  0  0  0
   -0.8272    3.4794    2.0152 H   0  0  0  0  0  0  0  0  0  0  0  0
    0.9172    3.4314    2.3624 H   0  0  0  0  0  0  0  0  0  0  0  0
    0.3414    3.7499    0.7095 H   0  0  0  0  0  0  0  0  0  0  0  0
  5  6  2  0  0  0  0
  5  7  1  0  0  0  0
  2  3  1  0  0  0  0
  2  4  1  0  0  0  0
  2  5  1  0  0  0  0
  1  2  1  0  0  0  0
 22 23  2  0  0  0  0
 22 24  1  0  0  0  0
 20 21  1  0  0  0  0
 19 20  1  0  0  0  0
 17 18  1  0  0  0  0
 17 19  2  0  0  0  0
 15 16  1  0  0  0  0
 15 17  1  0  0  0  0
 14 15  1  0  0  0  0
 14 20  2  0  0  0  0
 11 12  1  0  0  0  0
 11 13  1  0  0  0  0
 11 14  1  0  0  0  0
  9 10  1  0  0  0  0
  9 11  1  0  0  0  0
  9 22  1  0  0  0  0
  7  8  1  0  0  0  0
  7  9  1  0  0  0  0
 26 27  1  0  0  0  0
 26 28  1  0  0  0  0
 26 29  1  0  0  0  0
 24 25  1  0  0  0  0
 24 26  1  0  0  0  0
M  END
$$$$
default_name
  -OEChem-02102213163D

 29 29  0     1  0  0  0  0  0999 V2000
   -3.6042   -3.5728    1.4576 H   0  0  0  0  0  0  0  0  0  0  0  0
   -3.5202   -2.6488    0.8866 C   0  0  0  0  0  0  0  0  0  0  0  0
   -4.2052   -1.9048    1.2896 H   0  0  0  0  0  0  0  0  0  0  0  0
   -3.7552   -2.8428   -0.1584 H   0  0  0  0  0  0  0  0  0  0  0  0
   -2.1052   -2.1358    0.9946 C   0  0  0  0  0  0  0  0  0  0  0  0
   -1.2852   -2.7288    1.6826 O   0  0  0  0  0  0  0  0  0  0  0  0
   -1.8202   -1.0288    0.3146 N   0  0  0  0  0  0  0  0  0  0  0  0
   -2.5542   -0.5788   -0.2104 H   0  0  0  0  0  0  0  0  0  0  0  0
   -0.5102   -0.3728    0.3086 C   0  0  1  0  0  0  0  0  0  0  0  0
    0.0719   -0.7468    1.1521 H   0  0  0  0  0  0  0  0  0  0  0  0
    0.2338   -0.7427   -0.9878 C   0  0  0  0  0  0  0  0  0  0  0  0
    0.7014    0.1534   -1.3996 H   0  0  0  0  0  0  0  0  0  0  0  0
    1.0255   -1.4563   -0.7523 H   0  0  0  0  0  0  0  0  0  0  0  0
   -0.6560   -1.3470   -2.0430 C   0  0  0  0  0  0  0  0  0  0  0  0
   -1.3431   -0.6609   -3.0214 N   0  0  0  0  0  0  0  0  0  0  0  0
   -1.4031    0.3420   -3.1141 H   0  0  0  0  0  0  0  0  0  0  0  0
   -1.9258   -1.5623   -3.8296 C   0  0  0  0  0  0  0  0  0  0  0  0
   -2.5410   -1.3268   -4.6895 H   0  0  0  0  0  0  0  0  0  0  0  0
   -1.6351   -2.8068   -3.4234 N   0  0  0  0  0  0  0  0  0  0  0  0
   -0.8322   -2.6830   -2.2865 C   0  0  0  0  0  0  0  0  0  0  0  0
   -0.3965   -3.4960   -1.7203 H   0  0  0  0  0  0  0  0  0  0  0  0
   -0.6600    1.1486    0.4782 C   0  0  0  0  0  0  0  0  0  0  0  0
   -1.5001    1.7648   -0.1771 O   0  0  0  0  0  0  0  0  0  0  0  0
    0.1634    1.7559    1.3418 N   0  0  0  0  0  0  0  0  0  0  0  0
    0.8618    1.1897    1.8008 H   0  0  0  0  0  0  0  0  0  0  0  0
    0.1509    3.1886    1.6256 C   0  0  0  0  0  0  0  0  0  0  0  0
   -0.8272    3.4794    2.0152 H   0  0  0  0  0  0  0  0  0  0  0  0
    0.9172    3.4314    2.3624 H   0  0  0  0  0  0  0  0  0  0  0  0
    0.3414    3.7499    0.7095 H   0  0  0  0  0  0  0  0  0  0  0  0
  5  6  2  0  0  0  0
  5  7  1  0  0  0  0
  2  3  1  0  0  0  0
  2  4  1  0  0  0  0
  2  5  1  0  0  0  0
  1  2  1  0  0  0  0
 22 23  2  0  0  0  0
 22 24  1  0  0  0  0
 20 21  1  0  0  0  0
 19 20  1  0  0  0  0
 17 18  1  0  0  0  0
 17 19  2  0  0  0  0
 15 16  1  0  0  0  0
 15 17  1  0  0  0  0
 14 15  1  0  0  0  0
 14 20  2  0  0  0  0
 11 12  1  0  0  0  0
 11 13  1  0  0  0  0
 11 14  1  0  0  0  0
  9 10  1  0  0  0  0
  9 11  1  0  0  0  0
  9 22  1  0  0  0  0
  7  8  1  0  0  0  0
  7  9  1  0  0  0  0
 26 27  1  0  0  0  0
 26 28  1  0  0  0  0
 26 29  1  0  0  0  0
 24 25  1  0  0  0  0
 24 26  1  0  0  0  0
M  END
$$$$
default_name
  -OEChem-02102213163D

 29 29  0     1  0  0  0  0  0999 V2000
   -3.6042   -3.5728    1.4576 H   0  0  0  0  0  0  0  0  0  0  0  0
   -3.5202   -2.6488    0.8866 C   0  0  0  0  0  0  0  0  0  0  0  0
   -4.2052   -1.9048    1.2896 H   0  0  0  0  0  0  0  0  0  0  0  0
   -3.7552   -2.8428   -0.1584 H   0  0  0  0  0  0  0  0  0  0  0  0
   -2.1052   -2.1358    0.9946 C   0  0  0  0  0  0  0  0  0  0  0  0
   -1.2852   -2.7288    1.6826 O   0  0  0  0  0  0  0  0  0  0  0  0
   -1.8202   -1.0288    0.3146 N   0  0  0  0  0  0  0  0  0  0  0  0
   -2.5542   -0.5788   -0.2104 H   0  0  0  0  0  0  0  0  0  0  0  0
   -0.5102   -0.3728    0.3086 C   0  0  1  0  0  0  0  0  0  0  0  0
    0.0719   -0.7468    1.1521 H   0  0  0  0  0  0  0  0  0  0  0  0
    0.2338   -0.7427   -0.9878 C   0  0  0  0  0  0  0  0  0  0  0  0
    0.7014    0.1534   -1.3996 H   0  0  0  0  0  0  0  0  0  0  0  0
    1.0255   -1.4563   -0.7523 H   0  0  0  0  0  0  0  0  0  0  0  0
   -0.6560   -1.3470   -2.0430 C   0  0  0  0  0  0  0  0  0  0  0  0
   -1.1102   -0.7204   -3.1837 N   0  0  0  0  0  0  0  0  0  0  0  0
   -0.9706    0.2492   -3.4256 H   0  0  0  0  0  0  0  0  0  0  0  0
   -1.7782   -1.6264   -3.9175 C   0  0  0  0  0  0  0  0  0  0  0  0
   -2.2579   -1.4307   -4.8687 H   0  0  0  0  0  0  0  0  0  0  0  0
   -1.7659   -2.8197   -3.3058 N   0  0  0  0  0  0  0  0  0  0  0  0
   -1.0594   -2.6538   -2.1117 C   0  0  0  0  0  0  0  0  0  0  0  0
   -0.8380   -3.4271   -1.3875 H   0  0  0  0  0  0  0  0  0  0  0  0
   -0.6600    1.1486    0.4782 C   0  0  0  0  0  0  0  0  0  0  0  0
   -1.5001    1.7648   -0.1771 O   0  0  0  0  0  0  0  0  0  0  0  0
    0.1634    1.7559    1.3418 N   0  0  0  0  0  0  0  0  0  0  0  0
    0.8618    1.1897    1.8008 H   0  0  0  0  0  0  0  0  0  0  0  0
    0.1509    3.1886    1.6256 C   0  0  0  0  0  0  0  0  0  0  0  0
   -0.8272    3.4794    2.0152 H   0  0  0  0  0  0  0  0  0  0  0  0
    0.9172    3.4314    2.3624 H   0  0  0  0  0  0  0  0  0  0  0  0
    0.3414    3.7499    0.7095 H   0  0  0  0  0  0  0  0  0  0  0  0
  5  6  2  0  0  0  0
  5  7  1  0  0  0  0
  2  3  1  0  0  0  0
  2  4  1  0  0  0  0
  2  5  1  0  0  0  0
  1  2  1  0  0  0  0
 22 23  2  0  0  0  0
 22 24  1  0  0  0  0
 20 21  1  0  0  0  0
 19 20  1  0  0  0  0
 17 18  1  0  0  0  0
 17 19  2  0  0  0  0
 15 16  1  0  0  0  0
 15 17  1  0  0  0  0
 14 15  1  0  0  0  0
 14 20  2  0  0  0  0
 11 12  1  0  0  0  0
 11 13  1  0  0  0  0
 11 14  1  0  0  0  0
  9 10  1  0  0  0  0
  9 11  1  0  0  0  0
  9 22  1  0  0  0  0
  7  8  1  0  0  0  0
  7  9  1  0  0  0  0
 26 27  1  0  0  0  0
 26 28  1  0  0  0  0
 26 29  1  0  0  0  0
 24 25  1  0  0  0  0
 24 26  1  0  0  0  0
M  END
$$$$
default_name
  -OEChem-02102213163D

 29 29  0     1  0  0  0  0  0999 V2000
   -3.6042   -3.5728    1.4576 H   0  0  0  0  0  0  0  0  0  0  0  0
   -3.5202   -2.6488    0.8866 C   0  0  0  0  0  0  0  0  0  0  0  0
   -4.2052   -1.9048    1.2896 H   0  0  0  0  0  0  0  0  0  0  0  0
   -3.7552   -2.8428   -0.1584 H   0  0  0  0  0  0  0  0  0  0  0  0
   -2.1052   -2.1358    0.9946 C   0  0  0  0  0  0  0  0  0  0  0  0
   -1.2852   -2.7288    1.6826 O   0  0  0  0  0  0  0  0  0  0  0  0
   -1.8202   -1.0288    0.3146 N   0  0  0  0  0  0  0  0  0  0  0  0
   -2.5542   -0.5788   -0.2104 H   0  0  0  0  0  0  0  0  0  0  0  0
   -0.5102   -0.3728    0.3086 C   0  0  1  0  0  0  0  0  0  0  0  0
    0.0719   -0.7468    1.1521 H   0  0  0  0  0  0  0  0  0  0  0  0
    0.2338   -0.7427   -0.9878 C   0  0  0  0  0  0  0  0  0  0  0  0
    0.7014    0.1534   -1.3996 H   0  0  0  0  0  0  0  0  0  0  0  0
    1.0255   -1.4563   -0.7523 H   0  0  0  0  0  0  0  0  0  0  0  0
   -0.6560   -1.3470   -2.0430 C   0  0  0  0  0  0  0  0  0  0  0  0
   -0.8792   -0.8449   -3.3072 N   0  0  0  0  0  0  0  0  0  0  0  0
   -0.5374    0.0335   -3.6674 H   0  0  0  0  0  0  0  0  0  0  0  0
   -1.6380   -1.7285   -3.9772 C   0  0  0  0  0  0  0  0  0  0  0  0
   -1.9847   -1.6098   -4.9965 H   0  0  0  0  0  0  0  0  0  0  0  0
   -1.9068   -2.7905   -3.2037 N   0  0  0  0  0  0  0  0  0  0  0  0
   -1.2917   -2.5578   -1.9708 C   0  0  0  0  0  0  0  0  0  0  0  0
   -1.2866   -3.2296   -1.1223 H   0  0  0  0  0  0  0  0  0  0  0  0
   -0.6600    1.1486    0.4782 C   0  0  0  0  0  0  0  0  0  0  0  0
   -1.5001    1.7648   -0.1771 O   0  0  0  0  0  0  0  0  0  0  0  0
    0.1634    1.7559    1.3418 N   0  0  0  0  0  0  0  0  0  0  0  0
    0.8618    1.1897    1.8008 H   0  0  0  0  0  0  0  0  0  0  0  0
    0.1509    3.1886    1.6256 C   0  0  0  0  0  0  0  0  0  0  0  0
   -0.8272    3.4794    2.0152 H   0  0  0  0  0  0  0  0  0  0  0  0
    0.9172    3.4314    2.3624 H   0  0  0  0  0  0  0  0  0  0  0  0
    0.3414    3.7499    0.7095 H   0  0  0  0  0  0  0  0  0  0  0  0
  5  6  2  0  0  0  0
  5  7  1  0  0  0  0
  2  3  1  0  0  0  0
  2  4  1  0  0  0  0
  2  5  1  0  0  0  0
  1  2  1  0  0  0  0
 22 23  2  0  0  0  0
 22 24  1  0  0  0  0
 20 21  1  0  0  0  0
 19 20  1  0  0  0  0
 17 18  1  0  0  0  0
 17 19  2  0  0  0  0
 15 16  1  0  0  0  0
 15 17  1  0  0  0  0
 14 15  1  0  0  0  0
 14 20  2  0  0  0  0
 11 12  1  0  0  0  0
 11 13  1  0  0  0  0
 11 14  1  0  0  0  0
  9 10  1  0  0  0  0
  9 11  1  0  0  0  0
  9 22  1  0  0  0  0
  7  8  1  0  0  0  0
  7  9  1  0  0  0  0
 26 27  1  0  0  0  0
 26 28  1  0  0  0  0
 26 29  1  0  0  0  0
 24 25  1  0  0  0  0
 24 26  1  0  0  0  0
M  END
$$$$
default_name
  -OEChem-02102213163D

 29 29  0     1  0  0  0  0  0999 V2000
   -3.6042   -3.5728    1.4576 H   0  0  0  0  0  0  0  0  0  0  0  0
   -3.5202   -2.6488    0.8866 C   0  0  0  0  0  0  0  0  0  0  0  0
   -4.2052   -1.9048    1.2896 H   0  0  0  0  0  0  0  0  0  0  0  0
   -3.7552   -2.8428   -0.1584 H   0  0  0  0  0  0  0  0  0  0  0  0
   -2.1052   -2.1358    0.9946 C   0  0  0  0  0  0  0  0  0  0  0  0
   -1.2852   -2.7288    1.6826 O   0  0  0  0  0  0  0  0  0  0  0  0
   -1.8202   -1.0288    0.3146 N   0  0  0  0  0  0  0  0  0  0  0  0
   -2.5542   -0.5788   -0.2104 H   0  0  0  0  0  0  0  0  0  0  0  0
   -0.5102   -0.3728    0.3086 C   0  0  1  0  0  0  0  0  0  0  0  0
    0.0719   -0.7468    1.1521 H   0  0  0  0  0  0  0  0  0  0  0  0
    0.2338   -0.7427   -0.9878 C   0  0  0  0  0  0  0  0  0  0  0  0
    0.7014    0.1534   -1.3996 H   0  0  0  0  0  0  0  0  0  0  0  0
    1.0255   -1.4563   -0.7523 H   0  0  0  0  0  0  0  0  0  0  0  0
   -0.6560   -1.3470   -2.0430 C   0  0  0  0  0  0  0  0  0  0  0  0
   -0.6658   -1.0259   -3.3835 N   0  0  0  0  0  0  0  0  0  0  0  0
   -0.1330   -0.2903   -3.8230 H   0  0  0  0  0  0  0  0  0  0  0  0
   -1.5149   -1.8617   -4.0047 C   0  0  0  0  0  0  0  0  0  0  0  0
   -1.7400   -1.8518   -5.0642 H   0  0  0  0  0  0  0  0  0  0  0  0
   -2.0482   -2.7211   -3.1242 N   0  0  0  0  0  0  0  0  0  0  0  0
   -1.5133   -2.4013   -1.8735 C   0  0  0  0  0  0  0  0  0  0  0  0
   -1.7116   -2.9170   -0.9429 H   0  0  0  0  0  0  0  0  0  0  0  0
   -0.6600    1.1486    0.4782 C   0  0  0  0  0  0  0  0  0  0  0  0
   -1.5001    1.7648   -0.1771 O   0  0  0  0  0  0  0  0  0  0  0  0
    0.1634    1.7559    1.3418 N   0  0  0  0  0  0  0  0  0  0  0  0
    0.8618    1.1897    1.8008 H   0  0  0  0  0  0  0  0  0  0  0  0
    0.1509    3.1886    1.6256 C   0  0  0  0  0  0  0  0  0  0  0  0
   -0.8272    3.4794    2.0152 H   0  0  0  0  0  0  0  0  0  0  0  0
    0.9172    3.4314    2.3624 H   0  0  0  0  0  0  0  0  0  0  0  0
    0.3414    3.7499    0.7095 H   0  0  0  0  0  0  0  0  0  0  0  0
  5  6  2  0  0  0  0
  5  7  1  0  0  0  0
  2  3  1  0  0  0  0
  2  4  1  0  0  0  0
  2  5  1  0  0  0  0
  1  2  1  0  0  0  0
 22 23  2  0  0  0  0
 22 24  1  0  0  0  0
 20 21  1  0  0  0  0
 19 20  1  0  0  0  0
 17 18  1  0  0  0  0
 17 19  2  0  0  0  0
 15 16  1  0  0  0  0
 15 17  1  0  0  0  0
 14 15  1  0  0  0  0
 14 20  2  0  0  0  0
 11 12  1  0  0  0  0
 11 13  1  0  0  0  0
 11 14  1  0  0  0  0
  9 10  1  0  0  0  0
  9 11  1  0  0  0  0
  9 22  1  0  0  0  0
  7  8  1  0  0  0  0
  7  9  1  0  0  0  0
 26 27  1  0  0  0  0
 26 28  1  0  0  0  0
 26 29  1  0  0  0  0
 24 25  1  0  0  0  0
 24 26  1  0  0  0  0
M  END
$$$$
default_name
  -OEChem-02102213163D

 29 29  0     1  0  0  0  0  0999 V2000
   -3.6042   -3.5728    1.4576 H   0  0  0  0  0  0  0  0  0  0  0  0
   -3.5202   -2.6488    0.8866 C   0  0  0  0  0  0  0  0  0  0  0  0
   -4.2052   -1.9048    1.2896 H   0  0  0  0  0  0  0  0  0  0  0  0
   -3.7552   -2.8428   -0.1584 H   0  0  0  0  0  0  0  0  0  0  0  0
   -2.1052   -2.1358    0.9946 C   0  0  0  0  0  0  0  0  0  0  0  0
   -1.2852   -2.7288    1.6826 O   0  0  0  0  0  0  0  0  0  0  0  0
   -1.8202   -1.0288    0.3146 N   0  0  0  0  0  0  0  0  0  0  0  0
   -2.5542   -0.5788   -0.2104 H   0  0  0  0  0  0  0  0  0  0  0  0
   -0.5102   -0.3728    0.3086 C   0  0  1  0  0  0  0  0  0  0  0  0
    0.0719   -0.7468    1.1521 H   0  0  0  0  0  0  0  0  0  0  0  0
    0.2338   -0.7427   -0.9878 C   0  0  0  0  0  0  0  0  0  0  0  0
    0.7014    0.1534   -1.3996 H   0  0  0  0  0  0  0  0  0  0  0  0
    1.0255   -1.4563   -0.7523 H   0  0  0  0  0  0  0  0  0  0  0  0
   -0.6560   -1.3470   -2.0430 C   0  0  0  0  0  0  0  0  0  0  0  0
   -0.4845   -1.2511   -3.4074 N   0  0  0  0  0  0  0  0  0  0  0  0
    0.2151   -0.7002   -3.8818 H   0  0  0  0  0  0  0  0  0  0  0  0
   -1.4173   -2.0168   -3.9982 C   0  0  0  0  0  0  0  0  0  0  0  0
   -1.5405   -2.1403   -5.0672 H   0  0  0  0  0  0  0  0  0  0  0  0
   -2.1805   -2.6163   -3.0727 N   0  0  0  0  0  0  0  0  0  0  0  0
   -1.7091   -2.1952   -1.8265 C   0  0  0  0  0  0  0  0  0  0  0  0
   -2.0842   -2.5107   -0.8615 H   0  0  0  0  0  0  0  0  0  0  0  0
   -0.6600    1.1486    0.4782 C   0  0  0  0  0  0  0  0  0  0  0  0
   -1.5001    1.7648   -0.1771 O   0  0  0  0  0  0  0  0  0  0  0  0
    0.1634    1.7559    1.3418 N   0  0  0  0  0  0  0  0  0  0  0  0
    0.8618    1.1897    1.8008 H   0  0  0  0  0  0  0  0  0  0  0  0
    0.1509    3.1886    1.6256 C   0  0  0  0  0  0  0  0  0  0  0  0
   -0.8272    3.4794    2.0152 H   0  0  0  0  0  0  0  0  0  0  0  0
    0.9172    3.4314    2.3624 H   0  0  0  0  0  0  0  0  0  0  0  0
    0.3414    3.7499    0.7095 H   0  0  0  0  0  0  0  0  0  0  0  0
  5  6  2  0  0  0  0
  5  7  1  0  0  0  0
  2  3  1  0  0  0  0
  2  4  1  0  0  0  0
  2  5  1  0  0  0  0
  1  2  1  0  0  0  0
 22 23  2  0  0  0  0
 22 24  1  0  0  0  0
 20 21  1  0  0  0  0
 19 20  1  0  0  0  0
 17 18  1  0  0  0  0
 17 19  2  0  0  0  0
 15 16  1  0  0  0  0
 15 17  1  0  0  0  0
 14 15  1  0  0  0  0
 14 20  2  0  0  0  0
 11 12  1  0  0  0  0
 11 13  1  0  0  0  0
 11 14  1  0  0  0  0
  9 10  1  0  0  0  0
  9 11  1  0  0  0  0
  9 22  1  0  0  0  0
  7  8  1  0  0  0  0
  7  9  1  0  0  0  0
 26 27  1  0  0  0  0
 26 28  1  0  0  0  0
 26 29  1  0  0  0  0
 24 25  1  0  0  0  0
 24 26  1  0  0  0  0
M  END
$$$$
default_name
  -OEChem-02102213163D

 29 29  0     1  0  0  0  0  0999 V2000
   -3.6042   -3.5728    1.4576 H   0  0  0  0  0  0  0  0  0  0  0  0
   -3.5202   -2.6488    0.8866 C   0  0  0  0  0  0  0  0  0  0  0  0
   -4.2052   -1.9048    1.2896 H   0  0  0  0  0  0  0  0  0  0  0  0
   -3.7552   -2.8428   -0.1584 H   0  0  0  0  0  0  0  0  0  0  0  0
   -2.1052   -2.1358    0.9946 C   0  0  0  0  0  0  0  0  0  0  0  0
   -1.2852   -2.7288    1.6826 O   0  0  0  0  0  0  0  0  0  0  0  0
   -1.8202   -1.0288    0.3146 N   0  0  0  0  0  0  0  0  0  0  0  0
   -2.5542   -0.5788   -0.2104 H   0  0  0  0  0  0  0  0  0  0  0  0
   -0.5102   -0.3728    0.3086 C   0  0  1  0  0  0  0  0  0  0  0  0
    0.0719   -0.7468    1.1521 H   0  0  0  0  0  0  0  0  0  0  0  0
    0.2338   -0.7427   -0.9878 C   0  0  0  0  0  0  0  0  0  0  0  0
    0.7014    0.1534   -1.3996 H   0  0  0  0  0  0  0  0  0  0  0  0
    1.0255   -1.4563   -0.7523 H   0  0  0  0  0  0  0  0  0  0  0  0
   -0.6560   -1.3470   -2.0430 C   0  0  0  0  0  0  0  0  0  0  0  0
   -0.3478   -1.5051   -3.3772 N   0  0  0  0  0  0  0  0  0  0  0  0
    0.4832   -1.1682   -3.8399 H   0  0  0  0  0  0  0  0  0  0  0  0
   -1.3518   -2.1833   -3.9580 C   0  0  0  0  0  0  0  0  0  0  0  0
   -1.3998   -2.4556   -5.0053 H   0  0  0  0  0  0  0  0  0  0  0  0
   -2.2946   -2.4832   -3.0527 N   0  0  0  0  0  0  0  0  0  0  0  0
   -1.8657   -1.9534   -1.8329 C   0  0  0  0  0  0  0  0  0  0  0  0
   -2.3788   -2.0382   -0.8837 H   0  0  0  0  0  0  0  0  0  0  0  0
   -0.6600    1.1486    0.4782 C   0  0  0  0  0  0  0  0  0  0  0  0
   -1.5001    1.7648   -0.1771 O   0  0  0  0  0  0  0  0  0  0  0  0
    0.1634    1.7559    1.3418 N   0  0  0  0  0  0  0  0  0  0  0  0
    0.8618    1.1897    1.8008 H   0  0  0  0  0  0  0  0  0  0  0  0
    0.1509    3.1886    1.6256 C   0  0  0  0  0  0  0  0  0  0  0  0
   -0.8272    3.4794    2.0152 H   0  0  0  0  0  0  0  0  0  0  0  0
    0.9172    3.4314    2.3624 H   0  0  0  0  0  0  0  0  0  0  0  0
    0.3414    3.7499    0.7095 H   0  0  0  0  0  0  0  0  0  0  0  0
  5  6  2  0  0  0  0
  5  7  1  0  0  0  0
  2  3  1  0  0  0  0
  2  4  1  0  0  0  0
  2  5  1  0  0  0  0
  1  2  1  0  0  0  0
 22 23  2  0  0  0  0
 22 24  1  0  0  0  0
 20 21  1  0  0  0  0
 19 20  1  0  0  0  0
 17 18  1  0  0  0  0
 17 19  2  0  0  0  0
 15 16  1  0  0  0  0
 15 17  1  0  0  0  0
 14 15  1  0  0  0  0
 14 20  2  0  0  0  0
 11 12  1  0  0  0  0
 11 13  1  0  0  0  0
 11 14  1  0  0  0  0
  9 10  1  0  0  0  0
  9 11  1  0  0  0  0
  9 22  1  0  0  0  0
  7  8  1  0  0  0  0
  7  9  1  0  0  0  0
 26 27  1  0  0  0  0
 26 28  1  0  0  0  0
 26 29  1  0  0  0  0
 24 25  1  0  0  0  0
 24 26  1  0  0  0  0
M  END
$$$$
default_name
  -OEChem-02102213163D

 29 29  0     1  0  0  0  0  0999 V2000
   -3.6042   -3.5728    1.4576 H   0  0  0  0  0  0  0  0  0  0  0  0
   -3.5202   -2.6488    0.8866 C   0  0  0  0  0  0  0  0  0  0  0  0
   -4.2052   -1.9048    1.2896 H   0  0  0  0  0  0  0  0  0  0  0  0
   -3.7552   -2.8428   -0.1584 H   0  0  0  0  0  0  0  0  0  0  0  0
   -2.1052   -2.1358    0.9946 C   0  0  0  0  0  0  0  0  0  0  0  0
   -1.2852   -2.7288    1.6826 O   0  0  0  0  0  0  0  0  0  0  0  0
   -1.8202   -1.0288    0.3146 N   0  0  0  0  0  0  0  0  0  0  0  0
   -2.5542   -0.5788   -0.2104 H   0  0  0  0  0  0  0  0  0  0  0  0
   -0.5102   -0.3728    0.3086 C   0  0  1  0  0  0  0  0  0  0  0  0
    0.0719   -0.7468    1.1521 H   0  0  0  0  0  0  0  0  0  0  0  0
    0.2338   -0.7427   -0.9878 C   0  0  0  0  0  0  0  0  0  0  0  0
    0.9122    0.0695   -1.2547 H   0  0  0  0  0  0  0  0  0  0  0  0
    0.8342   -1.6369   -0.8106 H   0  0  0  0  0  0  0  0  0  0  0  0
   -0.6818   -1.0055   -2.1553 C   0  0  0  0  0  0  0  0  0  0  0  0
   -0.2963   -1.3544   -3.4319 N   0  0  0  0  0  0  0  0  0  0  0  0
    0.6515   -1.4054   -3.7742 H   0  0  0  0  0  0  0  0  0  0  0  0
   -1.4056   -1.6104   -4.1455 C   0  0  0  0  0  0  0  0  0  0  0  0
   -1.4255   -1.9043   -5.1879 H   0  0  0  0  0  0  0  0  0  0  0  0
   -2.4962   -1.4539   -3.3809 N   0  0  0  0  0  0  0  0  0  0  0  0
   -2.0493   -1.0655   -2.1152 C   0  0  0  0  0  0  0  0  0  0  0  0
   -2.6693   -0.8808   -1.2475 H   0  0  0  0  0  0  0  0  0  0  0  0
   -0.6600    1.1486    0.4782 C   0  0  0  0  0  0  0  0  0  0  0  0
   -1.5001    1.7648   -0.1771 O   0  0  0  0  0  0  0  0  0  0  0  0
    0.1634    1.7559    1.3418 N   0  0  0  0  0  0  0  0  0  0  0  0
    0.8618    1.1897    1.8008 H   0  0  0  0  0  0  0  0  0  0  0  0
    0.1509    3.1886    1.6256 C   0  0  0  0  0  0  0  0  0  0  0  0
   -0.8272    3.4794    2.0152 H   0  0  0  0  0  0  0  0  0  0  0  0
    0.9172    3.4314    2.3624 H   0  0  0  0  0  0  0  0  0  0  0  0
    0.3414    3.7499    0.7095 H   0  0  0  0  0  0  0  0  0  0  0  0
  5  6  2  0  0  0  0
  5  7  1  0  0  0  0
  2  3  1  0  0  0  0
  2  4  1  0  0  0  0
  2  5  1  0  0  0  0
  1  2  1  0  0  0  0
 22 23  2  0  0  0  0
 22 24  1  0  0  0  0
 20 21  1  0  0  0  0
 19 20  1  0  0  0  0
 17 18  1  0  0  0  0
 17 19  2  0  0  0  0
 15 16  1  0  0  0  0
 15 17  1  0  0  0  0
 14 15  1  0  0  0  0
 14 20  2  0  0  0  0
 11 12  1  0  0  0  0
 11 13  1  0  0  0  0
 11 14  1  0  0  0  0
  9 10  1  0  0  0  0
  9 11  1  0  0  0  0
  9 22  1  0  0  0  0
  7  8  1  0  0  0  0
  7  9  1  0  0  0  0
 26 27  1  0  0  0  0
 26 28  1  0  0  0  0
 26 29  1  0  0  0  0
 24 25  1  0  0  0  0
 24 26  1  0  0  0  0
M  END
$$$$
default_name
  -OEChem-02102213163D

 29 29  0     1  0  0  0  0  0999 V2000
   -3.6042   -3.5728    1.4576 H   0  0  0  0  0  0  0  0  0  0  0  0
   -3.5202   -2.6488    0.8866 C   0  0  0  0  0  0  0  0  0  0  0  0
   -4.2052   -1.9048    1.2896 H   0  0  0  0  0  0  0  0  0  0  0  0
   -3.7552   -2.8428   -0.1584 H   0  0  0  0  0  0  0  0  0  0  0  0
   -2.1052   -2.1358    0.9946 C   0  0  0  0  0  0  0  0  0  0  0  0
   -1.2852   -2.7288    1.6826 O   0  0  0  0  0  0  0  0  0  0  0  0
   -1.8202   -1.0288    0.3146 N   0  0  0  0  0  0  0  0  0  0  0  0
   -2.5542   -0.5788   -0.2104 H   0  0  0  0  0  0  0  0  0  0  0  0
   -0.5102   -0.3728    0.3086 C   0  0  1  0  0  0  0  0  0  0  0  0
    0.0719   -0.7468    1.1521 H   0  0  0  0  0  0  0  0  0  0  0  0
    0.2338   -0.7427   -0.9878 C   0  0  0  0  0  0  0  0  0  0  0  0
    0.9122    0.0695   -1.2547 H   0  0  0  0  0  0  0  0  0  0  0  0
    0.8342   -1.6369   -0.8106 H   0  0  0  0  0  0  0  0  0  0  0  0
   -0.6818   -1.0055   -2.1553 C   0  0  0  0  0  0  0  0  0  0  0  0
   -0.3387   -1.6254   -3.3377 N   0  0  0  0  0  0  0  0  0  0  0  0
    0.5883   -1.9168   -3.6095 H   0  0  0  0  0  0  0  0  0  0  0  0
   -1.4557   -1.7700   -4.0704 C   0  0  0  0  0  0  0  0  0  0  0  0
   -1.5048   -2.2190   -5.0549 H   0  0  0  0  0  0  0  0  0  0  0  0
   -2.5130   -1.2802   -3.4068 N   0  0  0  0  0  0  0  0  0  0  0  0
   -2.0333   -0.7878   -2.1903 C   0  0  0  0  0  0  0  0  0  0  0  0
   -2.6275   -0.3466   -1.4006 H   0  0  0  0  0  0  0  0  0  0  0  0
   -0.6600    1.1486    0.4782 C   0  0  0  0  0  0  0  0  0  0  0  0
   -1.5001    1.7648   -0.1771 O   0  0  0  0  0  0  0  0  0  0  0  0
    0.1634    1.7559    1.3418 N   0  0  0  0  0  0  0  0  0  0  0  0
    0.8618    1.1897    1.8008 H   0  0  0  0  0  0  0  0  0  0  0  0
    0.1509    3.1886    1.6256 C   0  0  0  0  0  0  0  0  0  0  0  0
   -0.8272    3.4794    2.0152 H   0  0  0  0  0  0  0  0  0  0  0  0
    0.9172    3.4314    2.3624 H   0  0  0  0  0  0  0  0  0  0  0  0
    0.3414    3.7499    0.7095 H   0  0  0  0  0  0  0  0  0  0  0  0
  5  6  2  0  0  0  0
  5  7  1  0  0  0  0
  2  3  1  0  0  0  0
  2  4  1  0  0  0  0
  2  5  1  0  0  0  0
  1  2  1  0  0  0  0
 22 23  2  0  0  0  0
 22 24  1  0  0  0  0
 20 21  1  0  0  0  0
 19 20  1  0  0  0  0
 17 18  1  0  0  0  0
 17 19  2  0  0  0  0
 15 16  1  0  0  0  0
 15 17  1  0  0  0  0
 14 15  1  0  0  0  0
 14 20  2  0  0  0  0
 11 12  1  0  0  0  0
 11 13  1  0  0  0  0
 11 14  1  0  0  0  0
  9 10  1  0  0  0  0
  9 11  1  0  0  0  0
  9 22  1  0  0  0  0
  7  8  1  0  0  0  0
  7  9  1  0  0  0  0
 26 27  1  0  0  0  0
 26 28  1  0  0  0  0
 26 29  1  0  0  0  0
 24 25  1  0  0  0  0
 24 26  1  0  0  0  0
M  END
$$$$
default_name
  -OEChem-02102213163D

 29 29  0     1  0  0  0  0  0999 V2000
   -3.6042   -3.5728    1.4576 H   0  0  0  0  0  0  0  0  0  0  0  0
   -3.5202   -2.6488    0.8866 C   0  0  0  0  0  0  0  0  0  0  0  0
   -4.2052   -1.9048    1.2896 H   0  0  0  0  0  0  0  0  0  0  0  0
   -3.7552   -2.8428   -0.1584 H   0  0  0  0  0  0  0  0  0  0  0  0
   -2.1052   -2.1358    0.9946 C   0  0  0  0  0  0  0  0  0  0  0  0
   -1.2852   -2.7288    1.6826 O   0  0  0  0  0  0  0  0  0  0  0  0
   -1.8202   -1.0288    0.3146 N   0  0  0  0  0  0  0  0  0  0  0  0
   -2.5542   -0.5788   -0.2104 H   0  0  0  0  0  0  0  0  0  0  0  0
   -0.5102   -0.3728    0.3086 C   0  0  1  0  0  0  0  0  0  0  0  0
    0.0719   -0.7468    1.1521 H   0  0  0  0  0  0  0  0  0  0  0  0
    0.2338   -0.7427   -0.9878 C   0  0  0  0  0  0  0  0  0  0  0  0
    0.9122    0.0695   -1.2547 H   0  0  0  0  0  0  0  0  0  0  0  0
    0.8342   -1.6369   -0.8106 H   0  0  0  0  0  0  0  0  0  0  0  0
   -0.6818   -1.0055   -2.1553 C   0  0  0  0  0  0  0  0  0  0  0  0
   -0.4382   -1.8639   -3.2059 N   0  0  0  0  0  0  0  0  0  0  0  0
    0.4173   -2.3722   -3.3729 H   0  0  0  0  0  0  0  0  0  0  0  0
   -1.5394   -1.9024   -3.9749 C   0  0  0  0  0  0  0  0  0  0  0  0
   -1.6505   -2.4863   -4.8805 H   0  0  0  0  0  0  0  0  0  0  0  0
   -2.4933   -1.1131   -3.4599 N   0  0  0  0  0  0  0  0  0  0  0  0
   -1.9588   -0.5345   -2.3058 C   0  0  0  0  0  0  0  0  0  0  0  0
   -2.4732    0.1370   -1.6305 H   0  0  0  0  0  0  0  0  0  0  0  0
   -0.6600    1.1486    0.4782 C   0  0  0  0  0  0  0  0  0  0  0  0
   -1.5001    1.7648   -0.1771 O   0  0  0  0  0  0  0  0  0  0  0  0
    0.1634    1.7559    1.3418 N   0  0  0  0  0  0  0  0  0  0  0  0
    0.8618    1.1897    1.8008 H   0  0  0  0  0  0  0  0  0  0  0  0
    0.1509    3.1886    1.6256 C   0  0  0  0  0  0  0  0  0  0  0  0
   -0.8272    3.4794    2.0152 H   0  0  0  0  0  0  0  0  0  0  0  0
    0.9172    3.4314    2.3624 H   0  0  0  0  0  0  0  0  0  0  0  0
    0.3414    3.7499    0.7095 H   0  0  0  0  0  0  0  0  0  0  0  0
  5  6  2  0  0  0  0
  5  7  1  0  0  0  0
  2  3  1  0  0  0  0
  2  4  1  0  0  0  0
  2  5  1  0  0  0  0
  1  2  1  0  0  0  0
 22 23  2  0  0  0  0
 22 24  1  0  0  0  0
 20 21  1  0  0  0  0
 19 20  1  0  0  0  0
 17 18  1  0  0  0  0
 17 19  2  0  0  0  0
 15 16  1  0  0  0  0
 15 17  1  0  0  0  0
 14 15  1  0  0  0  0
 14 20  2  0  0  0  0
 11 12  1  0  0  0  0
 11 13  1  0  0  0  0
 11 14  1  0  0  0  0
  9 10  1  0  0  0  0
  9 11  1  0  0  0  0
  9 22  1  0  0  0  0
  7  8  1  0  0  0  0
  7  9  1  0  0  0  0
 26 27  1  0  0  0  0
 26 28  1  0  0  0  0
 26 29  1  0  0  0  0
 24 25  1  0  0  0  0
 24 26  1  0  0  0  0
M  END
$$$$
default_name
  -OEChem-02102213163D

 29 29  0     1  0  0  0  0  0999 V2000
   -3.6042   -3.5728    1.4576 H   0  0  0  0  0  0  0  0  0  0  0  0
   -3.5202   -2.6488    0.8866 C   0  0  0  0  0  0  0  0  0  0  0  0
   -4.2052   -1.9048    1.2896 H   0  0  0  0  0  0  0  0  0  0  0  0
   -3.7552   -2.8428   -0.1584 H   0  0  0  0  0  0  0  0  0  0  0  0
   -2.1052   -2.1358    0.9946 C   0  0  0  0  0  0  0  0  0  0  0  0
   -1.2852   -2.7288    1.6826 O   0  0  0  0  0  0  0  0  0  0  0  0
   -1.8202   -1.0288    0.3146 N   0  0  0  0  0  0  0  0  0  0  0  0
   -2.5542   -0.5788   -0.2104 H   0  0  0  0  0  0  0  0  0  0  0  0
   -0.5102   -0.3728    0.3086 C   0  0  1  0  0  0  0  0  0  0  0  0
    0.0719   -0.7468    1.1521 H   0  0  0  0  0  0  0  0  0  0  0  0
    0.2338   -0.7427   -0.9878 C   0  0  0  0  0  0  0  0  0  0  0  0
    0.9122    0.0695   -1.2547 H   0  0  0  0  0  0  0  0  0  0  0  0
    0.8342   -1.6369   -0.8106 H   0  0  0  0  0  0  0  0  0  0  0  0
   -0.6818   -1.0055   -2.1553 C   0  0  0  0  0  0  0  0  0  0  0  0
   -0.5881   -2.0536   -3.0457 N   0  0  0  0  0  0  0  0  0  0  0  0
    0.1501   -2.7406   -3.0804 H   0  0  0  0  0  0  0  0  0  0  0  0
   -1.6511   -1.9984   -3.8657 C   0  0  0  0  0  0  0  0  0  0  0  0
   -1.8526   -2.6877   -4.6765 H   0  0  0  0  0  0  0  0  0  0  0  0
   -2.4384   -0.9640   -3.5365 N   0  0  0  0  0  0  0  0  0  0  0  0
   -1.8308   -0.3229   -2.4537 C   0  0  0  0  0  0  0  0  0  0  0  0
   -2.2167    0.5370   -1.9216 H   0  0  0  0  0  0  0  0  0  0  0  0
   -0.6600    1.1486    0.4782 C   0  0  0  0  0  0  0  0  0  0  0  0
   -1.5001    1.7648   -0.1771 O   0  0  0  0  0  0  0  0  0  0  0  0
    0.1634    1.7559    1.3418 N   0  0  0  0  0  0  0  0  0  0  0  0
    0.8618    1.1897    1.8008 H   0  0  0  0  0  0  0  0  0  0  0  0
    0.1509    3.1886    1.6256 C   0  0  0  0  0  0  0  0  0  0  0  0
   -0.8272    3.4794    2.0152 H   0  0  0  0  0  0  0  0  0  0  0  0
    0.9172    3.4314    2.3624 H   0  0  0  0  0  0  0  0  0  0  0  0
    0.3414    3.7499    0.7095 H   0  0  0  0  0  0  0  0  0  0  0  0
  5  6  2  0  0  0  0
  5  7  1  0  0  0  0
  2  3  1  0  0  0  0
  2  4  1  0  0  0  0
  2  5  1  0  0  0  0
  1  2  1  0  0  0  0
 22 23  2  0  0  0  0
 22 24  1  0  0  0  0
 20 21  1  0  0  0  0
 19 20  1  0  0  0  0
 17 18  1  0  0  0  0
 17 19  2  0  0  0  0
 15 16  1  0  0  0  0
 15 17  1  0  0  0  0
 14 15  1  0  0  0  0
 14 20  2  0  0  0  0
 11 12  1  0  0  0  0
 11 13  1  0  0  0  0
 11 14  1  0  0  0  0
  9 10  1  0  0  0  0
  9 11  1  0  0  0  0
  9 22  1  0  0  0  0
  7  8  1  0  0  0  0
  7  9  1  0  0  0  0
 26 27  1  0  0  0  0
 26 28  1  0  0  0  0
 26 29  1  0  0  0  0
 24 25  1  0  0  0  0
 24 26  1  0  0  0  0
M  END
$$$$
default_name
  -OEChem-02102213163D

 29 29  0     1  0  0  0  0  0999 V2000
   -3.6042   -3.5728    1.4576 H   0  0  0  0  0  0  0  0  0  0  0  0
   -3.5202   -2.6488    0.8866 C   0  0  0  0  0  0  0  0  0  0  0  0
   -4.2052   -1.9048    1.2896 H   0  0  0  0  0  0  0  0  0  0  0  0
   -3.7552   -2.8428   -0.1584 H   0  0  0  0  0  0  0  0  0  0  0  0
   -2.1052   -2.1358    0.9946 C   0  0  0  0  0  0  0  0  0  0  0  0
   -1.2852   -2.7288    1.6826 O   0  0  0  0  0  0  0  0  0  0  0  0
   -1.8202   -1.0288    0.3146 N   0  0  0  0  0  0  0  0  0  0  0  0
   -2.5542   -0.5788   -0.2104 H   0  0  0  0  0  0  0  0  0  0  0  0
   -0.5102   -0.3728    0.3086 C   0  0  1  0  0  0  0  0  0  0  0  0
    0.0719   -0.7468    1.1521 H   0  0  0  0  0  0  0  0  0  0  0  0
    0.2338   -0.7427   -0.9878 C   0  0  0  0  0  0  0  0  0  0  0  0
    0.9122    0.0695   -1.2547 H   0  0  0  0  0  0  0  0  0  0  0  0
    0.8342   -1.6369   -0.8106 H   0  0  0  0  0  0  0  0  0  0  0  0
   -0.6818   -1.0055   -2.1553 C   0  0  0  0  0  0  0  0  0  0  0  0
   -0.7782   -2.1815   -2.8678 N   0  0  0  0  0  0  0  0  0  0  0  0
   -0.1951   -2.9968   -2.7520 H   0  0  0  0  0  0  0  0  0  0  0  0
   -1.7832   -2.0516   -3.7501 C   0  0  0  0  0  0  0  0  0  0  0  0
   -2.0975   -2.8097   -4.4570 H   0  0  0  0  0  0  0  0  0  0  0  0
   -2.3520   -0.8430   -3.6315 N   0  0  0  0  0  0  0  0  0  0  0  0
   -1.6581   -0.1675   -2.6242 C   0  0  0  0  0  0  0  0  0  0  0  0
   -1.8756    0.8261   -2.2542 H   0  0  0  0  0  0  0  0  0  0  0  0
   -0.6600    1.1486    0.4782 C   0  0  0  0  0  0  0  0  0  0  0  0
   -1.5001    1.7648   -0.1771 O   0  0  0  0  0  0  0  0  0  0  0  0
    0.1634    1.7559    1.3418 N   0  0  0  0  0  0  0  0  0  0  0  0
    0.8618    1.1897    1.8008 H   0  0  0  0  0  0  0  0  0  0  0  0
    0.1509    3.1886    1.6256 C   0  0  0  0  0  0  0  0  0  0  0  0
   -0.8272    3.4794    2.0152 H   0  0  0  0  0  0  0  0  0  0  0  0
    0.9172    3.4314    2.3624 H   0  0  0  0  0  0  0  0  0  0  0  0
    0.3414    3.7499    0.7095 H   0  0  0  0  0  0  0  0  0  0  0  0
  5  6  2  0  0  0  0
  5  7  1  0  0  0  0
  2  3  1  0  0  0  0
  2  4  1  0  0  0  0
  2  5  1  0  0  0  0
  1  2  1  0  0  0  0
 22 23  2  0  0  0  0
 22 24  1  0  0  0  0
 20 21  1  0  0  0  0
 19 20  1  0  0  0  0
 17 18  1  0  0  0  0
 17 19  2  0  0  0  0
 15 16  1  0  0  0  0
 15 17  1  0  0  0  0
 14 15  1  0  0  0  0
 14 20  2  0  0  0  0
 11 12  1  0  0  0  0
 11 13  1  0  0  0  0
 11 14  1  0  0  0  0
  9 10  1  0  0  0  0
  9 11  1  0  0  0  0
  9 22  1  0  0  0  0
  7  8  1  0  0  0  0
  7  9  1  0  0  0  0
 26 27  1  0  0  0  0
 26 28  1  0  0  0  0
 26 29  1  0  0  0  0
 24 25  1  0  0  0  0
 24 26  1  0  0  0  0
M  END
$$$$
default_name
  -OEChem-02102213163D

 29 29  0     1  0  0  0  0  0999 V2000
   -3.6042   -3.5728    1.4576 H   0  0  0  0  0  0  0  0  0  0  0  0
   -3.5202   -2.6488    0.8866 C   0  0  0  0  0  0  0  0  0  0  0  0
   -4.2052   -1.9048    1.2896 H   0  0  0  0  0  0  0  0  0  0  0  0
   -3.7552   -2.8428   -0.1584 H   0  0  0  0  0  0  0  0  0  0  0  0
   -2.1052   -2.1358    0.9946 C   0  0  0  0  0  0  0  0  0  0  0  0
   -1.2852   -2.7288    1.6826 O   0  0  0  0  0  0  0  0  0  0  0  0
   -1.8202   -1.0288    0.3146 N   0  0  0  0  0  0  0  0  0  0  0  0
   -2.5542   -0.5788   -0.2104 H   0  0  0  0  0  0  0  0  0  0  0  0
   -0.5102   -0.3728    0.3086 C   0  0  1  0  0  0  0  0  0  0  0  0
    0.0719   -0.7468    1.1521 H   0  0  0  0  0  0  0  0  0  0  0  0
    0.2338   -0.7427   -0.9878 C   0  0  0  0  0  0  0  0  0  0  0  0
    0.9122    0.0695   -1.2547 H   0  0  0  0  0  0  0  0  0  0  0  0
    0.8342   -1.6369   -0.8106 H   0  0  0  0  0  0  0  0  0  0  0  0
   -0.6818   -1.0055   -2.1553 C   0  0  0  0  0  0  0  0  0  0  0  0
   -0.9955   -2.2390   -2.6845 N   0  0  0  0  0  0  0  0  0  0  0  0
   -0.5947   -3.1235   -2.4101 H   0  0  0  0  0  0  0  0  0  0  0  0
   -1.9266   -2.0583   -3.6361 C   0  0  0  0  0  0  0  0  0  0  0  0
   -2.3684   -2.8439   -4.2369 H   0  0  0  0  0  0  0  0  0  0  0  0
   -2.2399   -0.7584   -3.7384 N   0  0  0  0  0  0  0  0  0  0  0  0
   -1.4524   -0.0788   -2.8055 C   0  0  0  0  0  0  0  0  0  0  0  0
   -1.4731    0.9847   -2.6055 H   0  0  0  0  0  0  0  0  0  0  0  0
   -0.6600    1.1486    0.4782 C   0  0  0  0  0  0  0  0  0  0  0  0
   -1.5001    1.7648   -0.1771 O   0  0  0  0  0  0  0  0  0  0  0  0
    0.1634    1.7559    1.3418 N   0  0  0  0  0  0  0  0  0  0  0  0
    0.8618    1.1897    1.8008 H   0  0  0  0  0  0  0  0  0  0  0  0
    0.1509    3.1886    1.6256 C   0  0  0  0  0  0  0  0  0  0  0  0
   -0.8272    3.4794    2.0152 H   0  0  0  0  0  0  0  0  0  0  0  0
    0.9172    3.4314    2.3624 H   0  0  0  0  0  0  0  0  0  0  0  0
    0.3414    3.7499    0.7095 H   0  0  0  0  0  0  0  0  0  0  0  0
  5  6  2  0  0  0  0
  5  7  1  0  0  0  0
  2  3  1  0  0  0  0
  2  4  1  0  0  0  0
  2  5  1  0  0  0  0
  1  2  1  0  0  0  0
 22 23  2  0  0  0  0
 22 24  1  0  0  0  0
 20 21  1  0  0  0  0
 19 20  1  0  0  0  0
 17 18  1  0  0  0  0
 17 19  2  0  0  0  0
 15 16  1  0  0  0  0
 15 17  1  0  0  0  0
 14 15  1  0  0  0  0
 14 20  2  0  0  0  0
 11 12  1  0  0  0  0
 11 13  1  0  0  0  0
 11 14  1  0  0  0  0
  9 10  1  0  0  0  0
  9 11  1  0  0  0  0
  9 22  1  0  0  0  0
  7  8  1  0  0  0  0
  7  9  1  0  0  0  0
 26 27  1  0  0  0  0
 26 28  1  0  0  0  0
 26 29  1  0  0  0  0
 24 25  1  0  0  0  0
 24 26  1  0  0  0  0
M  END
$$$$
default_name
  -OEChem-02102213163D

 29 29  0     1  0  0  0  0  0999 V2000
   -3.6042   -3.5728    1.4576 H   0  0  0  0  0  0  0  0  0  0  0  0
   -3.5202   -2.6488    0.8866 C   0  0  0  0  0  0  0  0  0  0  0  0
   -4.2052   -1.9048    1.2896 H   0  0  0  0  0  0  0  0  0  0  0  0
   -3.7552   -2.8428   -0.1584 H   0  0  0  0  0  0  0  0  0  0  0  0
   -2.1052   -2.1358    0.9946 C   0  0  0  0  0  0  0  0  0  0  0  0
   -1.2852   -2.7288    1.6826 O   0  0  0  0  0  0  0  0  0  0  0  0
   -1.8202   -1.0288    0.3146 N   0  0  0  0  0  0  0  0  0  0  0  0
   -2.5542   -0.5788   -0.2104 H   0  0  0  0  0  0  0  0  0  0  0  0
   -0.5102   -0.3728    0.3086 C   0  0  1  0  0  0  0  0  0  0  0  0
    0.0719   -0.7468    1.1521 H   0  0  0  0  0  0  0  0  0  0  0  0
    0.2338   -0.7427   -0.9878 C   0  0  0  0  0  0  0  0  0  0  0  0
    0.9122    0.0695   -1.2547 H   0  0  0  0  0  0  0  0  0  0  0  0
    0.8342   -1.6369   -0.8106 H   0  0  0  0  0  0  0  0  0  0  0  0
   -0.6818   -1.0055   -2.1553 C   0  0  0  0  0  0  0  0  0  0  0  0
   -1.2252   -2.2222   -2.5081 N   0  0  0  0  0  0  0  0  0  0  0  0
   -1.0215   -3.1119   -2.0779 H   0  0  0  0  0  0  0  0  0  0  0  0
   -2.0717   -2.0181   -3.5314 C   0  0  0  0  0  0  0  0  0  0  0  0
   -2.6469   -2.7880   -4.0310 H   0  0  0  0  0  0  0  0  0  0  0  0
   -2.1100   -0.7160   -3.8499 N   0  0  0  0  0  0  0  0  0  0  0  0
   -1.2277   -0.0630   -2.9852 C   0  0  0  0  0  0  0  0  0  0  0  0
   -1.0367    1.0019   -2.9517 H   0  0  0  0  0  0  0  0  0  0  0  0
   -0.6600    1.1486    0.4782 C   0  0  0  0  0  0  0  0  0  0  0  0
   -1.5001    1.7648   -0.1771 O   0  0  0  0  0  0  0  0  0  0  0  0
    0.1634    1.7559    1.3418 N   0  0  0  0  0  0  0  0  0  0  0  0
    0.8618    1.1897    1.8008 H   0  0  0  0  0  0  0  0  0  0  0  0
    0.1509    3.1886    1.6256 C   0  0  0  0  0  0  0  0  0  0  0  0
   -0.8272    3.4794    2.0152 H   0  0  0  0  0  0  0  0  0  0  0  0
    0.9172    3.4314    2.3624 H   0  0  0  0  0  0  0  0  0  0  0  0
    0.3414    3.7499    0.7095 H   0  0  0  0  0  0  0  0  0  0  0  0
  5  6  2  0  0  0  0
  5  7  1  0  0  0  0
  2  3  1  0  0  0  0
  2  4  1  0  0  0  0
  2  5  1  0  0  0  0
  1  2  1  0  0  0  0
 22 23  2  0  0  0  0
 22 24  1  0  0  0  0
 20 21  1  0  0  0  0
 19 20  1  0  0  0  0
 17 18  1  0  0  0  0
 17 19  2  0  0  0  0
 15 16  1  0  0  0  0
 15 17  1  0  0  0  0
 14 15  1  0  0  0  0
 14 20  2  0  0  0  0
 11 12  1  0  0  0  0
 11 13  1  0  0  0  0
 11 14  1  0  0  0  0
  9 10  1  0  0  0  0
  9 11  1  0  0  0  0
  9 22  1  0  0  0  0
  7  8  1  0  0  0  0
  7  9  1  0  0  0  0
 26 27  1  0  0  0  0
 26 28  1  0  0  0  0
 26 29  1  0  0  0  0
 24 25  1  0  0  0  0
 24 26  1  0  0  0  0
M  END
$$$$
default_name
  -OEChem-02102213163D

 29 29  0     1  0  0  0  0  0999 V2000
   -3.6042   -3.5728    1.4576 H   0  0  0  0  0  0  0  0  0  0  0  0
   -3.5202   -2.6488    0.8866 C   0  0  0  0  0  0  0  0  0  0  0  0
   -4.2052   -1.9048    1.2896 H   0  0  0  0  0  0  0  0  0  0  0  0
   -3.7552   -2.8428   -0.1584 H   0  0  0  0  0  0  0  0  0  0  0  0
   -2.1052   -2.1358    0.9946 C   0  0  0  0  0  0  0  0  0  0  0  0
   -1.2852   -2.7288    1.6826 O   0  0  0  0  0  0  0  0  0  0  0  0
   -1.8202   -1.0288    0.3146 N   0  0  0  0  0  0  0  0  0  0  0  0
   -2.5542   -0.5788   -0.2104 H   0  0  0  0  0  0  0  0  0  0  0  0
   -0.5102   -0.3728    0.3086 C   0  0  1  0  0  0  0  0  0  0  0  0
    0.0719   -0.7468    1.1521 H   0  0  0  0  0  0  0  0  0  0  0  0
    0.2338   -0.7427   -0.9878 C   0  0  0  0  0  0  0  0  0  0  0  0
    0.9122    0.0695   -1.2547 H   0  0  0  0  0  0  0  0  0  0  0  0
    0.8342   -1.6369   -0.8106 H   0  0  0  0  0  0  0  0  0  0  0  0
   -0.6818   -1.0055   -2.1553 C   0  0  0  0  0  0  0  0  0  0  0  0
   -1.4516   -2.1321   -2.3508 N   0  0  0  0  0  0  0  0  0  0  0  0
   -1.4465   -2.9629   -1.7782 H   0  0  0  0  0  0  0  0  0  0  0  0
   -2.2085   -1.9337   -3.4431 C   0  0  0  0  0  0  0  0  0  0  0  0
   -2.9140   -2.6457   -3.8536 H   0  0  0  0  0  0  0  0  0  0  0  0
   -1.9708   -0.7187   -3.9584 N   0  0  0  0  0  0  0  0  0  0  0  0
   -0.9994   -0.1209   -3.1512 C   0  0  0  0  0  0  0  0  0  0  0  0
   -0.5961    0.8765   -3.2690 H   0  0  0  0  0  0  0  0  0  0  0  0
   -0.6600    1.1486    0.4782 C   0  0  0  0  0  0  0  0  0  0  0  0
   -1.5001    1.7648   -0.1771 O   0  0  0  0  0  0  0  0  0  0  0  0
    0.1634    1.7559    1.3418 N   0  0  0  0  0  0  0  0  0  0  0  0
    0.8618    1.1897    1.8008 H   0  0  0  0  0  0  0  0  0  0  0  0
    0.1509    3.1886    1.6256 C   0  0  0  0  0  0  0  0  0  0  0  0
   -0.8272    3.4794    2.0152 H   0  0  0  0  0  0  0  0  0  0  0  0
    0.9172    3.4314    2.3624 H   0  0  0  0  0  0  0  0  0  0  0  0
    0.3414    3.7499    0.7095 H   0  0  0  0  0  0  0  0  0  0  0  0
  5  6  2  0  0  0  0
  5  7  1  0  0  0  0
  2  3  1  0  0  0  0
  2  4  1  0  0  0  0
  2  5  1  0  0  0  0
  1  2  1  0  0  0  0
 22 23  2  0  0  0  0
 22 24  1  0  0  0  0
 20 21  1  0  0  0  0
 19 20  1  0  0  0  0
 17 18  1  0  0  0  0
 17 19  2  0  0  0  0
 15 16  1  0  0  0  0
 15 17  1  0  0  0  0
 14 15  1  0  0  0  0
 14 20  2  0  0  0  0
 11 12  1  0  0  0  0
 11 13  1  0  0  0  0
 11 14  1  0  0  0  0
  9 10  1  0  0  0  0
  9 11  1  0  0  0  0
  9 22  1  0  0  0  0
  7  8  1  0  0  0  0
  7  9  1  0  0  0  0
 26 27  1  0  0  0  0
 26 28  1  0  0  0  0
 26 29  1  0  0  0  0
 24 25  1  0  0  0  0
 24 26  1  0  0  0  0
M  END
$$$$
default_name
  -OEChem-02102213163D

 29 29  0     1  0  0  0  0  0999 V2000
   -3.6042   -3.5728    1.4576 H   0  0  0  0  0  0  0  0  0  0  0  0
   -3.5202   -2.6488    0.8866 C   0  0  0  0  0  0  0  0  0  0  0  0
   -4.2052   -1.9048    1.2896 H   0  0  0  0  0  0  0  0  0  0  0  0
   -3.7552   -2.8428   -0.1584 H   0  0  0  0  0  0  0  0  0  0  0  0
   -2.1052   -2.1358    0.9946 C   0  0  0  0  0  0  0  0  0  0  0  0
   -1.2852   -2.7288    1.6826 O   0  0  0  0  0  0  0  0  0  0  0  0
   -1.8202   -1.0288    0.3146 N   0  0  0  0  0  0  0  0  0  0  0  0
   -2.5542   -0.5788   -0.2104 H   0  0  0  0  0  0  0  0  0  0  0  0
   -0.5102   -0.3728    0.3086 C   0  0  1  0  0  0  0  0  0  0  0  0
    0.0719   -0.7468    1.1521 H   0  0  0  0  0  0  0  0  0  0  0  0
    0.2338   -0.7427   -0.9878 C   0  0  0  0  0  0  0  0  0  0  0  0
    0.9122    0.0695   -1.2547 H   0  0  0  0  0  0  0  0  0  0  0  0
    0.8342   -1.6369   -0.8106 H   0  0  0  0  0  0  0  0  0  0  0  0
   -0.6818   -1.0055   -2.1553 C   0  0  0  0  0  0  0  0  0  0  0  0
   -1.6593   -1.9749   -2.2233 N   0  0  0  0  0  0  0  0  0  0  0  0
   -1.8406   -2.6866   -1.5313 H   0  0  0  0  0  0  0  0  0  0  0  0
   -2.3277   -1.8108   -3.3773 C   0  0  0  0  0  0  0  0  0  0  0  0
   -3.1515   -2.4269   -3.7167 H   0  0  0  0  0  0  0  0  0  0  0  0
   -1.8321   -0.7662   -4.0565 N   0  0  0  0  0  0  0  0  0  0  0  0
   -0.7830   -0.2488   -3.2922 C   0  0  0  0  0  0  0  0  0  0  0  0
   -0.1814    0.6172   -3.5359 H   0  0  0  0  0  0  0  0  0  0  0  0
   -0.6600    1.1486    0.4782 C   0  0  0  0  0  0  0  0  0  0  0  0
   -1.5001    1.7648   -0.1771 O   0  0  0  0  0  0  0  0  0  0  0  0
    0.1634    1.7559    1.3418 N   0  0  0  0  0  0  0  0  0  0  0  0
    0.8618    1.1897    1.8008 H   0  0  0  0  0  0  0  0  0  0  0  0
    0.1509    3.1886    1.6256 C   0  0  0  0  0  0  0  0  0  0  0  0
   -0.8272    3.4794    2.0152 H   0  0  0  0  0  0  0  0  0  0  0  0
    0.9172    3.4314    2.3624 H   0  0  0  0  0  0  0  0  0  0  0  0
    0.3414    3.7499    0.7095 H   0  0  0  0  0  0  0  0  0  0  0  0
  5  6  2  0  0  0  0
  5  7  1  0  0  0  0
  2  3  1  0  0  0  0
  2  4  1  0  0  0  0
  2  5  1  0  0  0  0
  1  2  1  0  0  0  0
 22 23  2  0  0  0  0
 22 24  1  0  0  0  0
 20 21  1  0  0  0  0
 19 20  1  0  0  0  0
 17 18  1  0  0  0  0
 17 19  2  0  0  0  0
 15 16  1  0  0  0  0
 15 17  1  0  0  0  0
 14 15  1  0  0  0  0
 14 20  2  0  0  0  0
 11 12  1  0  0  0  0
 11 13  1  0  0  0  0
 11 14  1  0  0  0  0
  9 10  1  0  0  0  0
  9 11  1  0  0  0  0
  9 22  1  0  0  0  0
  7  8  1  0  0  0  0
  7  9  1  0  0  0  0
 26 27  1  0  0  0  0
 26 28  1  0  0  0  0
 26 29  1  0  0  0  0
 24 25  1  0  0  0  0
 24 26  1  0  0  0  0
M  END
$$$$
default_name
  -OEChem-02102213163D

 29 29  0     1  0  0  0  0  0999 V2000
   -3.6042   -3.5728    1.4576 H   0  0  0  0  0  0  0  0  0  0  0  0
   -3.5202   -2.6488    0.8866 C   0  0  0  0  0  0  0  0  0  0  0  0
   -4.2052   -1.9048    1.2896 H   0  0  0  0  0  0  0  0  0  0  0  0
   -3.7552   -2.8428   -0.1584 H   0  0  0  0  0  0  0  0  0  0  0  0
   -2.1052   -2.1358    0.9946 C   0  0  0  0  0  0  0  0  0  0  0  0
   -1.2852   -2.7288    1.6826 O   0  0  0  0  0  0  0  0  0  0  0  0
   -1.8202   -1.0288    0.3146 N   0  0  0  0  0  0  0  0  0  0  0  0
   -2.5542   -0.5788   -0.2104 H   0  0  0  0  0  0  0  0  0  0  0  0
   -0.5102   -0.3728    0.3086 C   0  0  1  0  0  0  0  0  0  0  0  0
    0.0719   -0.7468    1.1521 H   0  0  0  0  0  0  0  0  0  0  0  0
    0.2338   -0.7427   -0.9878 C   0  0  0  0  0  0  0  0  0  0  0  0
    0.9122    0.0695   -1.2547 H   0  0  0  0  0  0  0  0  0  0  0  0
    0.8342   -1.6369   -0.8106 H   0  0  0  0  0  0  0  0  0  0  0  0
   -0.6818   -1.0055   -2.1553 C   0  0  0  0  0  0  0  0  0  0  0  0
   -1.8343   -1.7614   -2.1341 N   0  0  0  0  0  0  0  0  0  0  0  0
   -2.1771   -2.3018   -1.3540 H   0  0  0  0  0  0  0  0  0  0  0  0
   -2.4212   -1.6579   -3.3384 C   0  0  0  0  0  0  0  0  0  0  0  0
   -3.3431   -2.1463   -3.6295 H   0  0  0  0  0  0  0  0  0  0  0  0
   -1.7032   -0.8553   -4.1376 N   0  0  0  0  0  0  0  0  0  0  0  0
   -0.5933   -0.4379   -3.3984 C   0  0  0  0  0  0  0  0  0  0  0  0
    0.1793    0.2415   -3.7342 H   0  0  0  0  0  0  0  0  0  0  0  0
   -0.6600    1.1486    0.4782 C   0  0  0  0  0  0  0  0  0  0  0  0
   -1.5001    1.7648   -0.1771 O   0  0  0  0  0  0  0  0  0  0  0  0
    0.1634    1.7559    1.3418 N   0  0  0  0  0  0  0  0  0  0  0  0
    0.8618    1.1897    1.8008 H   0  0  0  0  0  0  0  0  0  0  0  0
    0.1509    3.1886    1.6256 C   0  0  0  0  0  0  0  0  0  0  0  0
   -0.8272    3.4794    2.0152 H   0  0  0  0  0  0  0  0  0  0  0  0
    0.9172    3.4314    2.3624 H   0  0  0  0  0  0  0  0  0  0  0  0
    0.3414    3.7499    0.7095 H   0  0  0  0  0  0  0  0  0  0  0  0
  5  6  2  0  0  0  0
  5  7  1  0  0  0  0
  2  3  1  0  0  0  0
  2  4  1  0  0  0  0
  2  5  1  0  0  0  0
  1  2  1  0  0  0  0
 22 23  2  0  0  0  0
 22 24  1  0  0  0  0
 20 21  1  0  0  0  0
 19 20  1  0  0  0  0
 17 18  1  0  0  0  0
 17 19  2  0  0  0  0
 15 16  1  0  0  0  0
 15 17  1  0  0  0  0
 14 15  1  0  0  0  0
 14 20  2  0  0  0  0
 11 12  1  0  0  0  0
 11 13  1  0  0  0  0
 11 14  1  0  0  0  0
  9 10  1  0  0  0  0
  9 11  1  0  0  0  0
  9 22  1  0  0  0  0
  7  8  1  0  0  0  0
  7  9  1  0  0  0  0
 26 27  1  0  0  0  0
 26 28  1  0  0  0  0
 26 29  1  0  0  0  0
 24 25  1  0  0  0  0
 24 26  1  0  0  0  0
M  END
$$$$
default_name
  -OEChem-02102213163D

 29 29  0     1  0  0  0  0  0999 V2000
   -3.6042   -3.5728    1.4576 H   0  0  0  0  0  0  0  0  0  0  0  0
   -3.5202   -2.6488    0.8866 C   0  0  0  0  0  0  0  0  0  0  0  0
   -4.2052   -1.9048    1.2896 H   0  0  0  0  0  0  0  0  0  0  0  0
   -3.7552   -2.8428   -0.1584 H   0  0  0  0  0  0  0  0  0  0  0  0
   -2.1052   -2.1358    0.9946 C   0  0  0  0  0  0  0  0  0  0  0  0
   -1.2852   -2.7288    1.6826 O   0  0  0  0  0  0  0  0  0  0  0  0
   -1.8202   -1.0288    0.3146 N   0  0  0  0  0  0  0  0  0  0  0  0
   -2.5542   -0.5788   -0.2104 H   0  0  0  0  0  0  0  0  0  0  0  0
   -0.5102   -0.3728    0.3086 C   0  0  1  0  0  0  0  0  0  0  0  0
    0.0719   -0.7468    1.1521 H   0  0  0  0  0  0  0  0  0  0  0  0
    0.2338   -0.7427   -0.9878 C   0  0  0  0  0  0  0  0  0  0  0  0
    0.9122    0.0695   -1.2547 H   0  0  0  0  0  0  0  0  0  0  0  0
    0.8342   -1.6369   -0.8106 H   0  0  0  0  0  0  0  0  0  0  0  0
   -0.6818   -1.0055   -2.1553 C   0  0  0  0  0  0  0  0  0  0  0  0
   -1.9644   -1.5060   -2.0896 N   0  0  0  0  0  0  0  0  0  0  0  0
   -2.4329   -1.8348   -1.2585 H   0  0  0  0  0  0  0  0  0  0  0  0
   -2.4826   -1.4853   -3.3291 C   0  0  0  0  0  0  0  0  0  0  0  0
   -3.4759   -1.8232   -3.5981 H   0  0  0  0  0  0  0  0  0  0  0  0
   -1.5929   -0.9800   -4.1960 N   0  0  0  0  0  0  0  0  0  0  0  0
   -0.4432   -0.6753   -3.4627 C   0  0  0  0  0  0  0  0  0  0  0  0
    0.4613   -0.2248   -3.8504 H   0  0  0  0  0  0  0  0  0  0  0  0
   -0.6600    1.1486    0.4782 C   0  0  0  0  0  0  0  0  0  0  0  0
   -1.5001    1.7648   -0.1771 O   0  0  0  0  0  0  0  0  0  0  0  0
    0.1634    1.7559    1.3418 N   0  0  0  0  0  0  0  0  0  0  0  0
    0.8618    1.1897    1.8008 H   0  0  0  0  0  0  0  0  0  0  0  0
    0.1509    3.1886    1.6256 C   0  0  0  0  0  0  0  0  0  0  0  0
   -0.8272    3.4794    2.0152 H   0  0  0  0  0  0  0  0  0  0  0  0
    0.9172    3.4314    2.3624 H   0  0  0  0  0  0  0  0  0  0  0  0
    0.3414    3.7499    0.7095 H   0  0  0  0  0  0  0  0  0  0  0  0
  5  6  2  0  0  0  0
  5  7  1  0  0  0  0
  2  3  1  0  0  0  0
  2  4  1  0  0  0  0
  2  5  1  0  0  0  0
  1  2  1  0  0  0  0
 22 23  2  0  0  0  0
 22 24  1  0  0  0  0
 20 21  1  0  0  0  0
 19 20  1  0  0  0  0
 17 18  1  0  0  0  0
 17 19  2  0  0  0  0
 15 16  1  0  0  0  0
 15 17  1  0  0  0  0
 14 15  1  0  0  0  0
 14 20  2  0  0  0  0
 11 12  1  0  0  0  0
 11 13  1  0  0  0  0
 11 14  1  0  0  0  0
  9 10  1  0  0  0  0
  9 11  1  0  0  0  0
  9 22  1  0  0  0  0
  7  8  1  0  0  0  0
  7  9  1  0  0  0  0
 26 27  1  0  0  0  0
 26 28  1  0  0  0  0
 26 29  1  0  0  0  0
 24 25  1  0  0  0  0
 24 26  1  0  0  0  0
M  END
$$$$
default_name
  -OEChem-02102213163D

 29 29  0     1  0  0  0  0  0999 V2000
   -3.6042   -3.5728    1.4576 H   0  0  0  0  0  0  0  0  0  0  0  0
   -3.5202   -2.6488    0.8866 C   0  0  0  0  0  0  0  0  0  0  0  0
   -4.2052   -1.9048    1.2896 H   0  0  0  0  0  0  0  0  0  0  0  0
   -3.7552   -2.8428   -0.1584 H   0  0  0  0  0  0  0  0  0  0  0  0
   -2.1052   -2.1358    0.9946 C   0  0  0  0  0  0  0  0  0  0  0  0
   -1.2852   -2.7288    1.6826 O   0  0  0  0  0  0  0  0  0  0  0  0
   -1.8202   -1.0288    0.3146 N   0  0  0  0  0  0  0  0  0  0  0  0
   -2.5542   -0.5788   -0.2104 H   0  0  0  0  0  0  0  0  0  0  0  0
   -0.5102   -0.3728    0.3086 C   0  0  1  0  0  0  0  0  0  0  0  0
    0.0719   -0.7468    1.1521 H   0  0  0  0  0  0  0  0  0  0  0  0
    0.2338   -0.7427   -0.9878 C   0  0  0  0  0  0  0  0  0  0  0  0
    0.9122    0.0695   -1.2547 H   0  0  0  0  0  0  0  0  0  0  0  0
    0.8342   -1.6369   -0.8106 H   0  0  0  0  0  0  0  0  0  0  0  0
   -0.6818   -1.0055   -2.1553 C   0  0  0  0  0  0  0  0  0  0  0  0
   -2.0409   -1.2263   -2.0925 N   0  0  0  0  0  0  0  0  0  0  0  0
   -2.5906   -1.3174   -1.2513 H   0  0  0  0  0  0  0  0  0  0  0  0
   -2.5077   -1.3049   -3.3500 C   0  0  0  0  0  0  0  0  0  0  0  0
   -3.5408   -1.4795   -3.6246 H   0  0  0  0  0  0  0  0  0  0  0  0
   -1.5088   -1.1318   -4.2278 N   0  0  0  0  0  0  0  0  0  0  0  0
   -0.3428   -0.9449   -3.4807 C   0  0  0  0  0  0  0  0  0  0  0  0
    0.6455   -0.7501   -3.8766 H   0  0  0  0  0  0  0  0  0  0  0  0
   -0.6600    1.1486    0.4782 C   0  0  0  0  0  0  0  0  0  0  0  0
   -1.5001    1.7648   -0.1771 O   0  0  0  0  0  0  0  0  0  0  0  0
    0.1634    1.7559    1.3418 N   0  0  0  0  0  0  0  0  0  0  0  0
    0.8618    1.1897    1.8008 H   0  0  0  0  0  0  0  0  0  0  0  0
    0.1509    3.1886    1.6256 C   0  0  0  0  0  0  0  0  0  0  0  0
   -0.8272    3.4794    2.0152 H   0  0  0  0  0  0  0  0  0  0  0  0
    0.9172    3.4314    2.3624 H   0  0  0  0  0  0  0  0  0  0  0  0
    0.3414    3.7499    0.7095 H   0  0  0  0  0  0  0  0  0  0  0  0
  5  6  2  0  0  0  0
  5  7  1  0  0  0  0
  2  3  1  0  0  0  0
  2  4  1  0  0  0  0
  2  5  1  0  0  0  0
  1  2  1  0  0  0  0
 22 23  2  0  0  0  0
 22 24  1  0  0  0  0
 20 21  1  0  0  0  0
 19 20  1  0  0  0  0
 17 18  1  0  0  0  0
 17 19  2  0  0  0  0
 15 16  1  0  0  0  0
 15 17  1  0  0  0  0
 14 15  1  0  0  0  0
 14 20  2  0  0  0  0
 11 12  1  0  0  0  0
 11 13  1  0  0  0  0
 11 14  1  0  0  0  0
  9 10  1  0  0  0  0
  9 11  1  0  0  0  0
  9 22  1  0  0  0  0
  7  8  1  0  0  0  0
  7  9  1  0  0  0  0
 26 27  1  0  0  0  0
 26 28  1  0  0  0  0
 26 29  1  0  0  0  0
 24 25  1  0  0  0  0
 24 26  1  0  0  0  0
M  END
$$$$
default_name
  -OEChem-02102213163D

 29 29  0     1  0  0  0  0  0999 V2000
   -3.6042   -3.5728    1.4576 H   0  0  0  0  0  0  0  0  0  0  0  0
   -3.5202   -2.6488    0.8866 C   0  0  0  0  0  0  0  0  0  0  0  0
   -4.2052   -1.9048    1.2896 H   0  0  0  0  0  0  0  0  0  0  0  0
   -3.7552   -2.8428   -0.1584 H   0  0  0  0  0  0  0  0  0  0  0  0
   -2.1052   -2.1358    0.9946 C   0  0  0  0  0  0  0  0  0  0  0  0
   -1.2852   -2.7288    1.6826 O   0  0  0  0  0  0  0  0  0  0  0  0
   -1.8202   -1.0288    0.3146 N   0  0  0  0  0  0  0  0  0  0  0  0
   -2.5542   -0.5788   -0.2104 H   0  0  0  0  0  0  0  0  0  0  0  0
   -0.5102   -0.3728    0.3086 C   0  0  1  0  0  0  0  0  0  0  0  0
    0.0719   -0.7468    1.1521 H   0  0  0  0  0  0  0  0  0  0  0  0
    0.2338   -0.7427   -0.9878 C   0  0  0  0  0  0  0  0  0  0  0  0
    0.9122    0.0695   -1.2547 H   0  0  0  0  0  0  0  0  0  0  0  0
    0.8342   -1.6369   -0.8106 H   0  0  0  0  0  0  0  0  0  0  0  0
   -0.6818   -1.0055   -2.1553 C   0  0  0  0  0  0  0  0  0  0  0  0
   -2.0586   -0.9412   -2.1428 N   0  0  0  0  0  0  0  0  0  0  0  0
   -2.6396   -0.7849   -1.3328 H   0  0  0  0  0  0  0  0  0  0  0  0
   -2.4948   -1.1288   -3.3998 C   0  0  0  0  0  0  0  0  0  0  0  0
   -3.5334   -1.1387   -3.7071 H   0  0  0  0  0  0  0  0  0  0  0  0
   -1.4565   -1.3003   -4.2309 N   0  0  0  0  0  0  0  0  0  0  0  0
   -0.2992   -1.2282   -3.4512 C   0  0  0  0  0  0  0  0  0  0  0  0
    0.7192   -1.2986   -3.8109 H   0  0  0  0  0  0  0  0  0  0  0  0
   -0.6600    1.1486    0.4782 C   0  0  0  0  0  0  0  0  0  0  0  0
   -1.5001    1.7648   -0.1771 O   0  0  0  0  0  0  0  0  0  0  0  0
    0.1634    1.7559    1.3418 N   0  0  0  0  0  0  0  0  0  0  0  0
    0.8618    1.1897    1.8008 H   0  0  0  0  0  0  0  0  0  0  0  0
    0.1509    3.1886    1.6256 C   0  0  0  0  0  0  0  0  0  0  0  0
   -0.8272    3.4794    2.0152 H   0  0  0  0  0  0  0  0  0  0  0  0
    0.9172    3.4314    2.3624 H   0  0  0  0  0  0  0  0  0  0  0  0
    0.3414    3.7499    0.7095 H   0  0  0  0  0  0  0  0  0  0  0  0
  5  6  2  0  0  0  0
  5  7  1  0  0  0  0
  2  3  1  0  0  0  0
  2  4  1  0  0  0  0
  2  5  1  0  0  0  0
  1  2  1  0  0  0  0
 22 23  2  0  0  0  0
 22 24  1  0  0  0  0
 20 21  1  0  0  0  0
 19 20  1  0  0  0  0
 17 18  1  0  0  0  0
 17 19  2  0  0  0  0
 15 16  1  0  0  0  0
 15 17  1  0  0  0  0
 14 15  1  0  0  0  0
 14 20  2  0  0  0  0
 11 12  1  0  0  0  0
 11 13  1  0  0  0  0
 11 14  1  0  0  0  0
  9 10  1  0  0  0  0
  9 11  1  0  0  0  0
  9 22  1  0  0  0  0
  7  8  1  0  0  0  0
  7  9  1  0  0  0  0
 26 27  1  0  0  0  0
 26 28  1  0  0  0  0
 26 29  1  0  0  0  0
 24 25  1  0  0  0  0
 24 26  1  0  0  0  0
M  END
$$$$
default_name
  -OEChem-02102213163D

 29 29  0     1  0  0  0  0  0999 V2000
   -3.6042   -3.5728    1.4576 H   0  0  0  0  0  0  0  0  0  0  0  0
   -3.5202   -2.6488    0.8866 C   0  0  0  0  0  0  0  0  0  0  0  0
   -4.2052   -1.9048    1.2896 H   0  0  0  0  0  0  0  0  0  0  0  0
   -3.7552   -2.8428   -0.1584 H   0  0  0  0  0  0  0  0  0  0  0  0
   -2.1052   -2.1358    0.9946 C   0  0  0  0  0  0  0  0  0  0  0  0
   -1.2852   -2.7288    1.6826 O   0  0  0  0  0  0  0  0  0  0  0  0
   -1.8202   -1.0288    0.3146 N   0  0  0  0  0  0  0  0  0  0  0  0
   -2.5542   -0.5788   -0.2104 H   0  0  0  0  0  0  0  0  0  0  0  0
   -0.5102   -0.3728    0.3086 C   0  0  1  0  0  0  0  0  0  0  0  0
    0.0719   -0.7468    1.1521 H   0  0  0  0  0  0  0  0  0  0  0  0
    0.2338   -0.7427   -0.9878 C   0  0  0  0  0  0  0  0  0  0  0  0
    0.9122    0.0695   -1.2547 H   0  0  0  0  0  0  0  0  0  0  0  0
    0.8342   -1.6369   -0.8106 H   0  0  0  0  0  0  0  0  0  0  0  0
   -0.6818   -1.0055   -2.1553 C   0  0  0  0  0  0  0  0  0  0  0  0
   -2.0163   -0.6701   -2.2370 N   0  0  0  0  0  0  0  0  0  0  0  0
   -2.5764   -0.2735   -1.4974 H   0  0  0  0  0  0  0  0  0  0  0  0
   -2.4448   -0.9692   -3.4749 C   0  0  0  0  0  0  0  0  0  0  0  0
   -3.4541   -0.8239   -3.8401 H   0  0  0  0  0  0  0  0  0  0  0  0
   -1.4396   -1.4740   -4.2051 N   0  0  0  0  0  0  0  0  0  0  0  0
   -0.3151   -1.5059   -3.3761 C   0  0  0  0  0  0  0  0  0  0  0  0
    0.6774   -1.8328   -3.6579 H   0  0  0  0  0  0  0  0  0  0  0  0
   -0.6600    1.1486    0.4782 C   0  0  0  0  0  0  0  0  0  0  0  0
   -1.5001    1.7648   -0.1771 O   0  0  0  0  0  0  0  0  0  0  0  0
    0.1634    1.7559    1.3418 N   0  0  0  0  0  0  0  0  0  0  0  0
    0.8618    1.1897    1.8008 H   0  0  0  0  0  0  0  0  0  0  0  0
    0.1509    3.1886    1.6256 C   0  0  0  0  0  0  0  0  0  0  0  0
   -0.8272    3.4794    2.0152 H   0  0  0  0  0  0  0  0  0  0  0  0
    0.9172    3.4314    2.3624 H   0  0  0  0  0  0  0  0  0  0  0  0
    0.3414    3.7499    0.7095 H   0  0  0  0  0  0  0  0  0  0  0  0
  5  6  2  0  0  0  0
  5  7  1  0  0  0  0
  2  3  1  0  0  0  0
  2  4  1  0  0  0  0
  2  5  1  0  0  0  0
  1  2  1  0  0  0  0
 22 23  2  0  0  0  0
 22 24  1  0  0  0  0
 20 21  1  0  0  0  0
 19 20  1  0  0  0  0
 17 18  1  0  0  0  0
 17 19  2  0  0  0  0
 15 16  1  0  0  0  0
 15 17  1  0  0  0  0
 14 15  1  0  0  0  0
 14 20  2  0  0  0  0
 11 12  1  0  0  0  0
 11 13  1  0  0  0  0
 11 14  1  0  0  0  0
  9 10  1  0  0  0  0
  9 11  1  0  0  0  0
  9 22  1  0  0  0  0
  7  8  1  0  0  0  0
  7  9  1  0  0  0  0
 26 27  1  0  0  0  0
 26 28  1  0  0  0  0
 26 29  1  0  0  0  0
 24 25  1  0  0  0  0
 24 26  1  0  0  0  0
M  END
$$$$
default_name
  -OEChem-02102213163D

 29 29  0     1  0  0  0  0  0999 V2000
   -3.6042   -3.5728    1.4576 H   0  0  0  0  0  0  0  0  0  0  0  0
   -3.5202   -2.6488    0.8866 C   0  0  0  0  0  0  0  0  0  0  0  0
   -4.2052   -1.9048    1.2896 H   0  0  0  0  0  0  0  0  0  0  0  0
   -3.7552   -2.8428   -0.1584 H   0  0  0  0  0  0  0  0  0  0  0  0
   -2.1052   -2.1358    0.9946 C   0  0  0  0  0  0  0  0  0  0  0  0
   -1.2852   -2.7288    1.6826 O   0  0  0  0  0  0  0  0  0  0  0  0
   -1.8202   -1.0288    0.3146 N   0  0  0  0  0  0  0  0  0  0  0  0
   -2.5542   -0.5788   -0.2104 H   0  0  0  0  0  0  0  0  0  0  0  0
   -0.5102   -0.3728    0.3086 C   0  0  1  0  0  0  0  0  0  0  0  0
    0.0719   -0.7468    1.1521 H   0  0  0  0  0  0  0  0  0  0  0  0
    0.2338   -0.7427   -0.9878 C   0  0  0  0  0  0  0  0  0  0  0  0
    0.9122    0.0695   -1.2547 H   0  0  0  0  0  0  0  0  0  0  0  0
    0.8342   -1.6369   -0.8106 H   0  0  0  0  0  0  0  0  0  0  0  0
   -0.6818   -1.0055   -2.1553 C   0  0  0  0  0  0  0  0  0  0  0  0
   -1.9167   -0.4317   -2.3688 N   0  0  0  0  0  0  0  0  0  0  0  0
   -2.4054    0.1819   -1.7341 H   0  0  0  0  0  0  0  0  0  0  0  0
   -2.3611   -0.8368   -3.5704 C   0  0  0  0  0  0  0  0  0  0  0  0
   -3.3084   -0.5567   -4.0145 H   0  0  0  0  0  0  0  0  0  0  0  0
   -1.4593   -1.6411   -4.1520 N   0  0  0  0  0  0  0  0  0  0  0  0
   -0.3897   -1.7592   -3.2607 C   0  0  0  0  0  0  0  0  0  0  0  0
    0.5230   -2.3164   -3.4280 H   0  0  0  0  0  0  0  0  0  0  0  0
   -0.6600    1.1486    0.4782 C   0  0  0  0  0  0  0  0  0  0  0  0
   -1.5001    1.7648   -0.1771 O   0  0  0  0  0  0  0  0  0  0  0  0
    0.1634    1.7559    1.3418 N   0  0  0  0  0  0  0  0  0  0  0  0
    0.8618    1.1897    1.8008 H   0  0  0  0  0  0  0  0  0  0  0  0
    0.1509    3.1886    1.6256 C   0  0  0  0  0  0  0  0  0  0  0  0
   -0.8272    3.4794    2.0152 H   0  0  0  0  0  0  0  0  0  0  0  0
    0.9172    3.4314    2.3624 H   0  0  0  0  0  0  0  0  0  0  0  0
    0.3414    3.7499    0.7095 H   0  0  0  0  0  0  0  0  0  0  0  0
  5  6  2  0  0  0  0
  5  7  1  0  0  0  0
  2  3  1  0  0  0  0
  2  4  1  0  0  0  0
  2  5  1  0  0  0  0
  1  2  1  0  0  0  0
 22 23  2  0  0  0  0
 22 24  1  0  0  0  0
 20 21  1  0  0  0  0
 19 20  1  0  0  0  0
 17 18  1  0  0  0  0
 17 19  2  0  0  0  0
 15 16  1  0  0  0  0
 15 17  1  0  0  0  0
 14 15  1  0  0  0  0
 14 20  2  0  0  0  0
 11 12  1  0  0  0  0
 11 13  1  0  0  0  0
 11 14  1  0  0  0  0
  9 10  1  0  0  0  0
  9 11  1  0  0  0  0
  9 22  1  0  0  0  0
  7  8  1  0  0  0  0
  7  9  1  0  0  0  0
 26 27  1  0  0  0  0
 26 28  1  0  0  0  0
 26 29  1  0  0  0  0
 24 25  1  0  0  0  0
 24 26  1  0  0  0  0
M  END
$$$$
default_name
  -OEChem-02102213163D

 29 29  0     1  0  0  0  0  0999 V2000
   -3.6042   -3.5728    1.4576 H   0  0  0  0  0  0  0  0  0  0  0  0
   -3.5202   -2.6488    0.8866 C   0  0  0  0  0  0  0  0  0  0  0  0
   -4.2052   -1.9048    1.2896 H   0  0  0  0  0  0  0  0  0  0  0  0
   -3.7552   -2.8428   -0.1584 H   0  0  0  0  0  0  0  0  0  0  0  0
   -2.1052   -2.1358    0.9946 C   0  0  0  0  0  0  0  0  0  0  0  0
   -1.2852   -2.7288    1.6826 O   0  0  0  0  0  0  0  0  0  0  0  0
   -1.8202   -1.0288    0.3146 N   0  0  0  0  0  0  0  0  0  0  0  0
   -2.5542   -0.5788   -0.2104 H   0  0  0  0  0  0  0  0  0  0  0  0
   -0.5102   -0.3728    0.3086 C   0  0  1  0  0  0  0  0  0  0  0  0
    0.0719   -0.7468    1.1521 H   0  0  0  0  0  0  0  0  0  0  0  0
    0.2338   -0.7427   -0.9878 C   0  0  0  0  0  0  0  0  0  0  0  0
    0.9122    0.0695   -1.2547 H   0  0  0  0  0  0  0  0  0  0  0  0
    0.8342   -1.6369   -0.8106 H   0  0  0  0  0  0  0  0  0  0  0  0
   -0.6818   -1.0055   -2.1553 C   0  0  0  0  0  0  0  0  0  0  0  0
   -1.7668   -0.2420   -2.5290 N   0  0  0  0  0  0  0  0  0  0  0  0
   -2.1382    0.5503   -2.0265 H   0  0  0  0  0  0  0  0  0  0  0  0
   -2.2493   -0.7408   -3.6796 C   0  0  0  0  0  0  0  0  0  0  0  0
   -3.1063   -0.3553   -4.2184 H   0  0  0  0  0  0  0  0  0  0  0  0
   -1.5142   -1.7902   -4.0753 N   0  0  0  0  0  0  0  0  0  0  0  0
   -0.5176   -1.9708   -3.1127 C   0  0  0  0  0  0  0  0  0  0  0  0
    0.2666   -2.7163   -3.1368 H   0  0  0  0  0  0  0  0  0  0  0  0
   -0.6600    1.1486    0.4782 C   0  0  0  0  0  0  0  0  0  0  0  0
   -1.5001    1.7648   -0.1771 O   0  0  0  0  0  0  0  0  0  0  0  0
    0.1634    1.7559    1.3418 N   0  0  0  0  0  0  0  0  0  0  0  0
    0.8618    1.1897    1.8008 H   0  0  0  0  0  0  0  0  0  0  0  0
    0.1509    3.1886    1.6256 C   0  0  0  0  0  0  0  0  0  0  0  0
   -0.8272    3.4794    2.0152 H   0  0  0  0  0  0  0  0  0  0  0  0
    0.9172    3.4314    2.3624 H   0  0  0  0  0  0  0  0  0  0  0  0
    0.3414    3.7499    0.7095 H   0  0  0  0  0  0  0  0  0  0  0  0
  5  6  2  0  0  0  0
  5  7  1  0  0  0  0
  2  3  1  0  0  0  0
  2  4  1  0  0  0  0
  2  5  1  0  0  0  0
  1  2  1  0  0  0  0
 22 23  2  0  0  0  0
 22 24  1  0  0  0  0
 20 21  1  0  0  0  0
 19 20  1  0  0  0  0
 17 18  1  0  0  0  0
 17 19  2  0  0  0  0
 15 16  1  0  0  0  0
 15 17  1  0  0  0  0
 14 15  1  0  0  0  0
 14 20  2  0  0  0  0
 11 12  1  0  0  0  0
 11 13  1  0  0  0  0
 11 14  1  0  0  0  0
  9 10  1  0  0  0  0
  9 11  1  0  0  0  0
  9 22  1  0  0  0  0
  7  8  1  0  0  0  0
  7  9  1  0  0  0  0
 26 27  1  0  0  0  0
 26 28  1  0  0  0  0
 26 29  1  0  0  0  0
 24 25  1  0  0  0  0
 24 26  1  0  0  0  0
M  END
$$$$
default_name
  -OEChem-02102213163D

 29 29  0     1  0  0  0  0  0999 V2000
   -3.6042   -3.5728    1.4576 H   0  0  0  0  0  0  0  0  0  0  0  0
   -3.5202   -2.6488    0.8866 C   0  0  0  0  0  0  0  0  0  0  0  0
   -4.2052   -1.9048    1.2896 H   0  0  0  0  0  0  0  0  0  0  0  0
   -3.7552   -2.8428   -0.1584 H   0  0  0  0  0  0  0  0  0  0  0  0
   -2.1052   -2.1358    0.9946 C   0  0  0  0  0  0  0  0  0  0  0  0
   -1.2852   -2.7288    1.6826 O   0  0  0  0  0  0  0  0  0  0  0  0
   -1.8202   -1.0288    0.3146 N   0  0  0  0  0  0  0  0  0  0  0  0
   -2.5542   -0.5788   -0.2104 H   0  0  0  0  0  0  0  0  0  0  0  0
   -0.5102   -0.3728    0.3086 C   0  0  1  0  0  0  0  0  0  0  0  0
    0.0719   -0.7468    1.1521 H   0  0  0  0  0  0  0  0  0  0  0  0
    0.2338   -0.7427   -0.9878 C   0  0  0  0  0  0  0  0  0  0  0  0
    0.9122    0.0695   -1.2547 H   0  0  0  0  0  0  0  0  0  0  0  0
    0.8342   -1.6369   -0.8106 H   0  0  0  0  0  0  0  0  0  0  0  0
   -0.6818   -1.0055   -2.1553 C   0  0  0  0  0  0  0  0  0  0  0  0
   -1.5768   -0.1140   -2.7069 N   0  0  0  0  0  0  0  0  0  0  0  0
   -1.7930    0.8066   -2.3549 H   0  0  0  0  0  0  0  0  0  0  0  0
   -2.1173   -0.6876   -3.7952 C   0  0  0  0  0  0  0  0  0  0  0  0
   -2.8614   -0.2333   -4.4379 H   0  0  0  0  0  0  0  0  0  0  0  0
   -1.6006   -1.9111   -3.9803 N   0  0  0  0  0  0  0  0  0  0  0  0
   -0.6904   -2.1262   -2.9422 C   0  0  0  0  0  0  0  0  0  0  0  0
   -0.0745   -3.0055   -2.8043 H   0  0  0  0  0  0  0  0  0  0  0  0
   -0.6600    1.1486    0.4782 C   0  0  0  0  0  0  0  0  0  0  0  0
   -1.5001    1.7648   -0.1771 O   0  0  0  0  0  0  0  0  0  0  0  0
    0.1634    1.7559    1.3418 N   0  0  0  0  0  0  0  0  0  0  0  0
    0.8618    1.1897    1.8008 H   0  0  0  0  0  0  0  0  0  0  0  0
    0.1509    3.1886    1.6256 C   0  0  0  0  0  0  0  0  0  0  0  0
   -0.8272    3.4794    2.0152 H   0  0  0  0  0  0  0  0  0  0  0  0
    0.9172    3.4314    2.3624 H   0  0  0  0  0  0  0  0  0  0  0  0
    0.3414    3.7499    0.7095 H   0  0  0  0  0  0  0  0  0  0  0  0
  5  6  2  0  0  0  0
  5  7  1  0  0  0  0
  2  3  1  0  0  0  0
  2  4  1  0  0  0  0
  2  5  1  0  0  0  0
  1  2  1  0  0  0  0
 22 23  2  0  0  0  0
 22 24  1  0  0  0  0
 20 21  1  0  0  0  0
 19 20  1  0  0  0  0
 17 18  1  0  0  0  0
 17 19  2  0  0  0  0
 15 16  1  0  0  0  0
 15 17  1  0  0  0  0
 14 15  1  0  0  0  0
 14 20  2  0  0  0  0
 11 12  1  0  0  0  0
 11 13  1  0  0  0  0
 11 14  1  0  0  0  0
  9 10  1  0  0  0  0
  9 11  1  0  0  0  0
  9 22  1  0  0  0  0
  7  8  1  0  0  0  0
  7  9  1  0  0  0  0
 26 27  1  0  0  0  0
 26 28  1  0  0  0  0
 26 29  1  0  0  0  0
 24 25  1  0  0  0  0
 24 26  1  0  0  0  0
M  END
$$$$
default_name
  -OEChem-02102213163D

 29 29  0     1  0  0  0  0  0999 V2000
   -3.6042   -3.5728    1.4576 H   0  0  0  0  0  0  0  0  0  0  0  0
   -3.5202   -2.6488    0.8866 C   0  0  0  0  0  0  0  0  0  0  0  0
   -4.2052   -1.9048    1.2896 H   0  0  0  0  0  0  0  0  0  0  0  0
   -3.7552   -2.8428   -0.1584 H   0  0  0  0  0  0  0  0  0  0  0  0
   -2.1052   -2.1358    0.9946 C   0  0  0  0  0  0  0  0  0  0  0  0
   -1.2852   -2.7288    1.6826 O   0  0  0  0  0  0  0  0  0  0  0  0
   -1.8202   -1.0288    0.3146 N   0  0  0  0  0  0  0  0  0  0  0  0
   -2.5542   -0.5788   -0.2104 H   0  0  0  0  0  0  0  0  0  0  0  0
   -0.5102   -0.3728    0.3086 C   0  0  1  0  0  0  0  0  0  0  0  0
    0.0719   -0.7468    1.1521 H   0  0  0  0  0  0  0  0  0  0  0  0
    0.2338   -0.7427   -0.9878 C   0  0  0  0  0  0  0  0  0  0  0  0
    0.9122    0.0695   -1.2547 H   0  0  0  0  0  0  0  0  0  0  0  0
    0.8342   -1.6369   -0.8106 H   0  0  0  0  0  0  0  0  0  0  0  0
   -0.6818   -1.0055   -2.1553 C   0  0  0  0  0  0  0  0  0  0  0  0
   -1.3595   -0.0565   -2.8903 N   0  0  0  0  0  0  0  0  0  0  0  0
   -1.3934    0.9332   -2.6968 H   0  0  0  0  0  0  0  0  0  0  0  0
   -1.9738   -0.6808   -3.9092 C   0  0  0  0  0  0  0  0  0  0  0  0
   -2.5905   -0.1991   -4.6581 H   0  0  0  0  0  0  0  0  0  0  0  0
   -1.7127   -1.9957   -3.8734 N   0  0  0  0  0  0  0  0  0  0  0  0
   -0.8961   -2.2149   -2.7609 C   0  0  0  0  0  0  0  0  0  0  0  0
   -0.4770   -3.1640   -2.4529 H   0  0  0  0  0  0  0  0  0  0  0  0
   -0.6600    1.1486    0.4782 C   0  0  0  0  0  0  0  0  0  0  0  0
   -1.5001    1.7648   -0.1771 O   0  0  0  0  0  0  0  0  0  0  0  0
    0.1634    1.7559    1.3418 N   0  0  0  0  0  0  0  0  0  0  0  0
    0.8618    1.1897    1.8008 H   0  0  0  0  0  0  0  0  0  0  0  0
    0.1509    3.1886    1.6256 C   0  0  0  0  0  0  0  0  0  0  0  0
   -0.8272    3.4794    2.0152 H   0  0  0  0  0  0  0  0  0  0  0  0
    0.9172    3.4314    2.3624 H   0  0  0  0  0  0  0  0  0  0  0  0
    0.3414    3.7499    0.7095 H   0  0  0  0  0  0  0  0  0  0  0  0
  5  6  2  0  0  0  0
  5  7  1  0  0  0  0
  2  3  1  0  0  0  0
  2  4  1  0  0  0  0
  2  5  1  0  0  0  0
  1  2  1  0  0  0  0
 22 23  2  0  0  0  0
 22 24  1  0  0  0  0
 20 21  1  0  0  0  0
 19 20  1  0  0  0  0
 17 18  1  0  0  0  0
 17 19  2  0  0  0  0
 15 16  1  0  0  0  0
 15 17  1  0  0  0  0
 14 15  1  0  0  0  0
 14 20  2  0  0  0  0
 11 12  1  0  0  0  0
 11 13  1  0  0  0  0
 11 14  1  0  0  0  0
  9 10  1  0  0  0  0
  9 11  1  0  0  0  0
  9 22  1  0  0  0  0
  7  8  1  0  0  0  0
  7  9  1  0  0  0  0
 26 27  1  0  0  0  0
 26 28  1  0  0  0  0
 26 29  1  0  0  0  0
 24 25  1  0  0  0  0
 24 26  1  0  0  0  0
M  END
$$$$
default_name
  -OEChem-02102213163D

 29 29  0     1  0  0  0  0  0999 V2000
   -3.6042   -3.5728    1.4576 H   0  0  0  0  0  0  0  0  0  0  0  0
   -3.5202   -2.6488    0.8866 C   0  0  0  0  0  0  0  0  0  0  0  0
   -4.2052   -1.9048    1.2896 H   0  0  0  0  0  0  0  0  0  0  0  0
   -3.7552   -2.8428   -0.1584 H   0  0  0  0  0  0  0  0  0  0  0  0
   -2.1052   -2.1358    0.9946 C   0  0  0  0  0  0  0  0  0  0  0  0
   -1.2852   -2.7288    1.6826 O   0  0  0  0  0  0  0  0  0  0  0  0
   -1.8202   -1.0288    0.3146 N   0  0  0  0  0  0  0  0  0  0  0  0
   -2.5542   -0.5788   -0.2104 H   0  0  0  0  0  0  0  0  0  0  0  0
   -0.5102   -0.3728    0.3086 C   0  0  1  0  0  0  0  0  0  0  0  0
    0.0719   -0.7468    1.1521 H   0  0  0  0  0  0  0  0  0  0  0  0
    0.2338   -0.7427   -0.9878 C   0  0  0  0  0  0  0  0  0  0  0  0
    0.9122    0.0695   -1.2547 H   0  0  0  0  0  0  0  0  0  0  0  0
    0.8342   -1.6369   -0.8106 H   0  0  0  0  0  0  0  0  0  0  0  0
   -0.6818   -1.0055   -2.1553 C   0  0  0  0  0  0  0  0  0  0  0  0
   -1.1298   -0.0734   -3.0666 N   0  0  0  0  0  0  0  0  0  0  0  0
   -0.9666    0.9216   -3.0290 H   0  0  0  0  0  0  0  0  0  0  0  0
   -1.8287   -0.7211   -4.0139 C   0  0  0  0  0  0  0  0  0  0  0  0
   -2.3120   -0.2550   -4.8639 H   0  0  0  0  0  0  0  0  0  0  0  0
   -1.8427   -2.0381   -3.7619 N   0  0  0  0  0  0  0  0  0  0  0  0
   -1.1207   -2.2308   -2.5812 C   0  0  0  0  0  0  0  0  0  0  0  0
   -0.9134   -3.1812   -2.1068 H   0  0  0  0  0  0  0  0  0  0  0  0
   -0.6600    1.1486    0.4782 C   0  0  0  0  0  0  0  0  0  0  0  0
   -1.5001    1.7648   -0.1771 O   0  0  0  0  0  0  0  0  0  0  0  0
    0.1634    1.7559    1.3418 N   0  0  0  0  0  0  0  0  0  0  0  0
    0.8618    1.1897    1.8008 H   0  0  0  0  0  0  0  0  0  0  0  0
    0.1509    3.1886    1.6256 C   0  0  0  0  0  0  0  0  0  0  0  0
   -0.8272    3.4794    2.0152 H   0  0  0  0  0  0  0  0  0  0  0  0
    0.9172    3.4314    2.3624 H   0  0  0  0  0  0  0  0  0  0  0  0
    0.3414    3.7499    0.7095 H   0  0  0  0  0  0  0  0  0  0  0  0
  5  6  2  0  0  0  0
  5  7  1  0  0  0  0
  2  3  1  0  0  0  0
  2  4  1  0  0  0  0
  2  5  1  0  0  0  0
  1  2  1  0  0  0  0
 22 23  2  0  0  0  0
 22 24  1  0  0  0  0
 20 21  1  0  0  0  0
 19 20  1  0  0  0  0
 17 18  1  0  0  0  0
 17 19  2  0  0  0  0
 15 16  1  0  0  0  0
 15 17  1  0  0  0  0
 14 15  1  0  0  0  0
 14 20  2  0  0  0  0
 11 12  1  0  0  0  0
 11 13  1  0  0  0  0
 11 14  1  0  0  0  0
  9 10  1  0  0  0  0
  9 11  1  0  0  0  0
  9 22  1  0  0  0  0
  7  8  1  0  0  0  0
  7  9  1  0  0  0  0
 26 27  1  0  0  0  0
 26 28  1  0  0  0  0
 26 29  1  0  0  0  0
 24 25  1  0  0  0  0
 24 26  1  0  0  0  0
M  END
$$$$
default_name
  -OEChem-02102213163D

 29 29  0     1  0  0  0  0  0999 V2000
   -3.6042   -3.5728    1.4576 H   0  0  0  0  0  0  0  0  0  0  0  0
   -3.5202   -2.6488    0.8866 C   0  0  0  0  0  0  0  0  0  0  0  0
   -4.2052   -1.9048    1.2896 H   0  0  0  0  0  0  0  0  0  0  0  0
   -3.7552   -2.8428   -0.1584 H   0  0  0  0  0  0  0  0  0  0  0  0
   -2.1052   -2.1358    0.9946 C   0  0  0  0  0  0  0  0  0  0  0  0
   -1.2852   -2.7288    1.6826 O   0  0  0  0  0  0  0  0  0  0  0  0
   -1.8202   -1.0288    0.3146 N   0  0  0  0  0  0  0  0  0  0  0  0
   -2.5542   -0.5788   -0.2104 H   0  0  0  0  0  0  0  0  0  0  0  0
   -0.5102   -0.3728    0.3086 C   0  0  1  0  0  0  0  0  0  0  0  0
    0.0719   -0.7468    1.1521 H   0  0  0  0  0  0  0  0  0  0  0  0
    0.2338   -0.7427   -0.9878 C   0  0  0  0  0  0  0  0  0  0  0  0
    0.9122    0.0695   -1.2547 H   0  0  0  0  0  0  0  0  0  0  0  0
    0.8342   -1.6369   -0.8106 H   0  0  0  0  0  0  0  0  0  0  0  0
   -0.6818   -1.0055   -2.1553 C   0  0  0  0  0  0  0  0  0  0  0  0
   -0.9034   -0.1635   -3.2239 N   0  0  0  0  0  0  0  0  0  0  0  0
   -0.5416    0.7726   -3.3287 H   0  0  0  0  0  0  0  0  0  0  0  0
   -1.6919   -0.8055   -4.1022 C   0  0  0  0  0  0  0  0  0  0  0  0
   -2.0449   -0.3972   -5.0413 H   0  0  0  0  0  0  0  0  0  0  0  0
   -1.9818   -2.0355   -3.6534 N   0  0  0  0  0  0  0  0  0  0  0  0
   -1.3490   -2.1728   -2.4152 C   0  0  0  0  0  0  0  0  0  0  0  0
   -1.3540   -3.0559   -1.7895 H   0  0  0  0  0  0  0  0  0  0  0  0
   -0.6600    1.1486    0.4782 C   0  0  0  0  0  0  0  0  0  0  0  0
   -1.5001    1.7648   -0.1771 O   0  0  0  0  0  0  0  0  0  0  0  0
    0.1634    1.7559    1.3418 N   0  0  0  0  0  0  0  0  0  0  0  0
    0.8618    1.1897    1.8008 H   0  0  0  0  0  0  0  0  0  0  0  0
    0.1509    3.1886    1.6256 C   0  0  0  0  0  0  0  0  0  0  0  0
   -0.8272    3.4794    2.0152 H   0  0  0  0  0  0  0  0  0  0  0  0
    0.9172    3.4314    2.3624 H   0  0  0  0  0  0  0  0  0  0  0  0
    0.3414    3.7499    0.7095 H   0  0  0  0  0  0  0  0  0  0  0  0
  5  6  2  0  0  0  0
  5  7  1  0  0  0  0
  2  3  1  0  0  0  0
  2  4  1  0  0  0  0
  2  5  1  0  0  0  0
  1  2  1  0  0  0  0
 22 23  2  0  0  0  0
 22 24  1  0  0  0  0
 20 21  1  0  0  0  0
 19 20  1  0  0  0  0
 17 18  1  0  0  0  0
 17 19  2  0  0  0  0
 15 16  1  0  0  0  0
 15 17  1  0  0  0  0
 14 15  1  0  0  0  0
 14 20  2  0  0  0  0
 11 12  1  0  0  0  0
 11 13  1  0  0  0  0
 11 14  1  0  0  0  0
  9 10  1  0  0  0  0
  9 11  1  0  0  0  0
  9 22  1  0  0  0  0
  7  8  1  0  0  0  0
  7  9  1  0  0  0  0
 26 27  1  0  0  0  0
 26 28  1  0  0  0  0
 26 29  1  0  0  0  0
 24 25  1  0  0  0  0
 24 26  1  0  0  0  0
M  END
$$$$
default_name
  -OEChem-02102213163D

 29 29  0     1  0  0  0  0  0999 V2000
   -3.6042   -3.5728    1.4576 H   0  0  0  0  0  0  0  0  0  0  0  0
   -3.5202   -2.6488    0.8866 C   0  0  0  0  0  0  0  0  0  0  0  0
   -4.2052   -1.9048    1.2896 H   0  0  0  0  0  0  0  0  0  0  0  0
   -3.7552   -2.8428   -0.1584 H   0  0  0  0  0  0  0  0  0  0  0  0
   -2.1052   -2.1358    0.9946 C   0  0  0  0  0  0  0  0  0  0  0  0
   -1.2852   -2.7288    1.6826 O   0  0  0  0  0  0  0  0  0  0  0  0
   -1.8202   -1.0288    0.3146 N   0  0  0  0  0  0  0  0  0  0  0  0
   -2.5542   -0.5788   -0.2104 H   0  0  0  0  0  0  0  0  0  0  0  0
   -0.5102   -0.3728    0.3086 C   0  0  1  0  0  0  0  0  0  0  0  0
    0.0719   -0.7468    1.1521 H   0  0  0  0  0  0  0  0  0  0  0  0
    0.2338   -0.7427   -0.9878 C   0  0  0  0  0  0  0  0  0  0  0  0
    0.9122    0.0695   -1.2547 H   0  0  0  0  0  0  0  0  0  0  0  0
    0.8342   -1.6369   -0.8106 H   0  0  0  0  0  0  0  0  0  0  0  0
   -0.6818   -1.0055   -2.1553 C   0  0  0  0  0  0  0  0  0  0  0  0
   -0.6956   -0.3207   -3.3514 N   0  0  0  0  0  0  0  0  0  0  0  0
   -0.1475    0.4963   -3.5756 H   0  0  0  0  0  0  0  0  0  0  0  0
   -1.5727   -0.9283   -4.1681 C   0  0  0  0  0  0  0  0  0  0  0  0
   -1.8075   -0.6161   -5.1783 H   0  0  0  0  0  0  0  0  0  0  0  0
   -2.1205   -1.9880   -3.5553 N   0  0  0  0  0  0  0  0  0  0  0  0
   -1.5654   -2.0449   -2.2743 C   0  0  0  0  0  0  0  0  0  0  0  0
   -1.7687   -2.7966   -1.5226 H   0  0  0  0  0  0  0  0  0  0  0  0
   -0.6600    1.1486    0.4782 C   0  0  0  0  0  0  0  0  0  0  0  0
   -1.5001    1.7648   -0.1771 O   0  0  0  0  0  0  0  0  0  0  0  0
    0.1634    1.7559    1.3418 N   0  0  0  0  0  0  0  0  0  0  0  0
    0.8618    1.1897    1.8008 H   0  0  0  0  0  0  0  0  0  0  0  0
    0.1509    3.1886    1.6256 C   0  0  0  0  0  0  0  0  0  0  0  0
   -0.8272    3.4794    2.0152 H   0  0  0  0  0  0  0  0  0  0  0  0
    0.9172    3.4314    2.3624 H   0  0  0  0  0  0  0  0  0  0  0  0
    0.3414    3.7499    0.7095 H   0  0  0  0  0  0  0  0  0  0  0  0
  5  6  2  0  0  0  0
  5  7  1  0  0  0  0
  2  3  1  0  0  0  0
  2  4  1  0  0  0  0
  2  5  1  0  0  0  0
  1  2  1  0  0  0  0
 22 23  2  0  0  0  0
 22 24  1  0  0  0  0
 20 21  1  0  0  0  0
 19 20  1  0  0  0  0
 17 18  1  0  0  0  0
 17 19  2  0  0  0  0
 15 16  1  0  0  0  0
 15 17  1  0  0  0  0
 14 15  1  0  0  0  0
 14 20  2  0  0  0  0
 11 12  1  0  0  0  0
 11 13  1  0  0  0  0
 11 14  1  0  0  0  0
  9 10  1  0  0  0  0
  9 11  1  0  0  0  0
  9 22  1  0  0  0  0
  7  8  1  0  0  0  0
  7  9  1  0  0  0  0
 26 27  1  0  0  0  0
 26 28  1  0  0  0  0
 26 29  1  0  0  0  0
 24 25  1  0  0  0  0
 24 26  1  0  0  0  0
M  END
$$$$
default_name
  -OEChem-02102213163D

 29 29  0     1  0  0  0  0  0999 V2000
   -3.6042   -3.5728    1.4576 H   0  0  0  0  0  0  0  0  0  0  0  0
   -3.5202   -2.6488    0.8866 C   0  0  0  0  0  0  0  0  0  0  0  0
   -4.2052   -1.9048    1.2896 H   0  0  0  0  0  0  0  0  0  0  0  0
   -3.7552   -2.8428   -0.1584 H   0  0  0  0  0  0  0  0  0  0  0  0
   -2.1052   -2.1358    0.9946 C   0  0  0  0  0  0  0  0  0  0  0  0
   -1.2852   -2.7288    1.6826 O   0  0  0  0  0  0  0  0  0  0  0  0
   -1.8202   -1.0288    0.3146 N   0  0  0  0  0  0  0  0  0  0  0  0
   -2.5542   -0.5788   -0.2104 H   0  0  0  0  0  0  0  0  0  0  0  0
   -0.5102   -0.3728    0.3086 C   0  0  1  0  0  0  0  0  0  0  0  0
    0.0719   -0.7468    1.1521 H   0  0  0  0  0  0  0  0  0  0  0  0
    0.2338   -0.7427   -0.9878 C   0  0  0  0  0  0  0  0  0  0  0  0
    0.9122    0.0695   -1.2547 H   0  0  0  0  0  0  0  0  0  0  0  0
    0.8342   -1.6369   -0.8106 H   0  0  0  0  0  0  0  0  0  0  0  0
   -0.6818   -1.0055   -2.1553 C   0  0  0  0  0  0  0  0  0  0  0  0
   -0.5207   -0.5342   -3.4406 N   0  0  0  0  0  0  0  0  0  0  0  0
    0.1890    0.1116   -3.7529 H   0  0  0  0  0  0  0  0  0  0  0  0
   -1.4792   -1.0813   -4.2069 C   0  0  0  0  0  0  0  0  0  0  0  0
   -1.6158   -0.8966   -5.2655 H   0  0  0  0  0  0  0  0  0  0  0  0
   -2.2494   -1.8988   -3.4743 N   0  0  0  0  0  0  0  0  0  0  0  0
   -1.7552   -1.8558   -2.1680 C   0  0  0  0  0  0  0  0  0  0  0  0
   -2.1294   -2.4209   -1.3242 H   0  0  0  0  0  0  0  0  0  0  0  0
   -0.6600    1.1486    0.4782 C   0  0  0  0  0  0  0  0  0  0  0  0
   -1.5001    1.7648   -0.1771 O   0  0  0  0  0  0  0  0  0  0  0  0
    0.1634    1.7559    1.3418 N   0  0  0  0  0  0  0  0  0  0  0  0
    0.8618    1.1897    1.8008 H   0  0  0  0  0  0  0  0  0  0  0  0
    0.1509    3.1886    1.6256 C   0  0  0  0  0  0  0  0  0  0  0  0
   -0.8272    3.4794    2.0152 H   0  0  0  0  0  0  0  0  0  0  0  0
    0.9172    3.4314    2.3624 H   0  0  0  0  0  0  0  0  0  0  0  0
    0.3414    3.7499    0.7095 H   0  0  0  0  0  0  0  0  0  0  0  0
  5  6  2  0  0  0  0
  5  7  1  0  0  0  0
  2  3  1  0  0  0  0
  2  4  1  0  0  0  0
  2  5  1  0  0  0  0
  1  2  1  0  0  0  0
 22 23  2  0  0  0  0
 22 24  1  0  0  0  0
 20 21  1  0  0  0  0
 19 20  1  0  0  0  0
 17 18  1  0  0  0  0
 17 19  2  0  0  0  0
 15 16  1  0  0  0  0
 15 17  1  0  0  0  0
 14 15  1  0  0  0  0
 14 20  2  0  0  0  0
 11 12  1  0  0  0  0
 11 13  1  0  0  0  0
 11 14  1  0  0  0  0
  9 10  1  0  0  0  0
  9 11  1  0  0  0  0
  9 22  1  0  0  0  0
  7  8  1  0  0  0  0
  7  9  1  0  0  0  0
 26 27  1  0  0  0  0
 26 28  1  0  0  0  0
 26 29  1  0  0  0  0
 24 25  1  0  0  0  0
 24 26  1  0  0  0  0
M  END
$$$$
default_name
  -OEChem-02102213163D

 29 29  0     1  0  0  0  0  0999 V2000
   -3.6042   -3.5728    1.4576 H   0  0  0  0  0  0  0  0  0  0  0  0
   -3.5202   -2.6488    0.8866 C   0  0  0  0  0  0  0  0  0  0  0  0
   -4.2052   -1.9048    1.2896 H   0  0  0  0  0  0  0  0  0  0  0  0
   -3.7552   -2.8428   -0.1584 H   0  0  0  0  0  0  0  0  0  0  0  0
   -2.1052   -2.1358    0.9946 C   0  0  0  0  0  0  0  0  0  0  0  0
   -1.2852   -2.7288    1.6826 O   0  0  0  0  0  0  0  0  0  0  0  0
   -1.8202   -1.0288    0.3146 N   0  0  0  0  0  0  0  0  0  0  0  0
   -2.5542   -0.5788   -0.2104 H   0  0  0  0  0  0  0  0  0  0  0  0
   -0.5102   -0.3728    0.3086 C   0  0  1  0  0  0  0  0  0  0  0  0
    0.0719   -0.7468    1.1521 H   0  0  0  0  0  0  0  0  0  0  0  0
    0.2338   -0.7427   -0.9878 C   0  0  0  0  0  0  0  0  0  0  0  0
    0.9122    0.0695   -1.2547 H   0  0  0  0  0  0  0  0  0  0  0  0
    0.8342   -1.6369   -0.8106 H   0  0  0  0  0  0  0  0  0  0  0  0
   -0.6818   -1.0055   -2.1553 C   0  0  0  0  0  0  0  0  0  0  0  0
   -0.3905   -0.7895   -3.4852 N   0  0  0  0  0  0  0  0  0  0  0  0
    0.4448   -0.3554   -3.8484 H   0  0  0  0  0  0  0  0  0  0  0  0
   -1.4178   -1.2538   -4.2162 C   0  0  0  0  0  0  0  0  0  0  0  0
   -1.4830   -1.2198   -5.2969 H   0  0  0  0  0  0  0  0  0  0  0  0
   -2.3597   -1.7741   -3.4159 N   0  0  0  0  0  0  0  0  0  0  0  0
   -1.9053   -1.6184   -2.1037 C   0  0  0  0  0  0  0  0  0  0  0  0
   -2.4115   -1.9546   -1.2081 H   0  0  0  0  0  0  0  0  0  0  0  0
   -0.6600    1.1486    0.4782 C   0  0  0  0  0  0  0  0  0  0  0  0
   -1.5001    1.7648   -0.1771 O   0  0  0  0  0  0  0  0  0  0  0  0
    0.1634    1.7559    1.3418 N   0  0  0  0  0  0  0  0  0  0  0  0
    0.8618    1.1897    1.8008 H   0  0  0  0  0  0  0  0  0  0  0  0
    0.1509    3.1886    1.6256 C   0  0  0  0  0  0  0  0  0  0  0  0
   -0.8272    3.4794    2.0152 H   0  0  0  0  0  0  0  0  0  0  0  0
    0.9172    3.4314    2.3624 H   0  0  0  0  0  0  0  0  0  0  0  0
    0.3414    3.7499    0.7095 H   0  0  0  0  0  0  0  0  0  0  0  0
  5  6  2  0  0  0  0
  5  7  1  0  0  0  0
  2  3  1  0  0  0  0
  2  4  1  0  0  0  0
  2  5  1  0  0  0  0
  1  2  1  0  0  0  0
 22 23  2  0  0  0  0
 22 24  1  0  0  0  0
 20 21  1  0  0  0  0
 19 20  1  0  0  0  0
 17 18  1  0  0  0  0
 17 19  2  0  0  0  0
 15 16  1  0  0  0  0
 15 17  1  0  0  0  0
 14 15  1  0  0  0  0
 14 20  2  0  0  0  0
 11 12  1  0  0  0  0
 11 13  1  0  0  0  0
 11 14  1  0  0  0  0
  9 10  1  0  0  0  0
  9 11  1  0  0  0  0
  9 22  1  0  0  0  0
  7  8  1  0  0  0  0
  7  9  1  0  0  0  0
 26 27  1  0  0  0  0
 26 28  1  0  0  0  0
 26 29  1  0  0  0  0
 24 25  1  0  0  0  0
 24 26  1  0  0  0  0
M  END
$$$$
default_name
  -OEChem-02102213163D

 29 29  0     1  0  0  0  0  0999 V2000
   -3.6042   -3.5728    1.4576 H   0  0  0  0  0  0  0  0  0  0  0  0
   -3.5202   -2.6488    0.8866 C   0  0  0  0  0  0  0  0  0  0  0  0
   -4.2052   -1.9048    1.2896 H   0  0  0  0  0  0  0  0  0  0  0  0
   -3.7552   -2.8428   -0.1584 H   0  0  0  0  0  0  0  0  0  0  0  0
   -2.1052   -2.1358    0.9946 C   0  0  0  0  0  0  0  0  0  0  0  0
   -1.2852   -2.7288    1.6826 O   0  0  0  0  0  0  0  0  0  0  0  0
   -1.8202   -1.0288    0.3146 N   0  0  0  0  0  0  0  0  0  0  0  0
   -2.5542   -0.5788   -0.2104 H   0  0  0  0  0  0  0  0  0  0  0  0
   -0.5102   -0.3728    0.3086 C   0  0  1  0  0  0  0  0  0  0  0  0
    0.0719   -0.7468    1.1521 H   0  0  0  0  0  0  0  0  0  0  0  0
    0.2338   -0.7427   -0.9878 C   0  0  0  0  0  0  0  0  0  0  0  0
    0.9122    0.0695   -1.2547 H   0  0  0  0  0  0  0  0  0  0  0  0
    0.8342   -1.6369   -0.8106 H   0  0  0  0  0  0  0  0  0  0  0  0
   -0.6818   -1.0055   -2.1553 C   0  0  0  0  0  0  0  0  0  0  0  0
   -0.3140   -1.0693   -3.4822 N   0  0  0  0  0  0  0  0  0  0  0  0
    0.6025   -0.8728   -3.8556 H   0  0  0  0  0  0  0  0  0  0  0  0
   -1.3928   -1.4343   -4.1953 C   0  0  0  0  0  0  0  0  0  0  0  0
   -1.4181   -1.5635   -5.2704 H   0  0  0  0  0  0  0  0  0  0  0  0
   -2.4439   -1.6224   -3.3840 N   0  0  0  0  0  0  0  0  0  0  0  0
   -2.0056   -1.3488   -2.0857 C   0  0  0  0  0  0  0  0  0  0  0  0
   -2.5956   -1.4293   -1.1819 H   0  0  0  0  0  0  0  0  0  0  0  0
   -0.6600    1.1486    0.4782 C   0  0  0  0  0  0  0  0  0  0  0  0
   -1.5001    1.7648   -0.1771 O   0  0  0  0  0  0  0  0  0  0  0  0
    0.1634    1.7559    1.3418 N   0  0  0  0  0  0  0  0  0  0  0  0
    0.8618    1.1897    1.8008 H   0  0  0  0  0  0  0  0  0  0  0  0
    0.1509    3.1886    1.6256 C   0  0  0  0  0  0  0  0  0  0  0  0
   -0.8272    3.4794    2.0152 H   0  0  0  0  0  0  0  0  0  0  0  0
    0.9172    3.4314    2.3624 H   0  0  0  0  0  0  0  0  0  0  0  0
    0.3414    3.7499    0.7095 H   0  0  0  0  0  0  0  0  0  0  0  0
  5  6  2  0  0  0  0
  5  7  1  0  0  0  0
  2  3  1  0  0  0  0
  2  4  1  0  0  0  0
  2  5  1  0  0  0  0
  1  2  1  0  0  0  0
 22 23  2  0  0  0  0
 22 24  1  0  0  0  0
 20 21  1  0  0  0  0
 19 20  1  0  0  0  0
 17 18  1  0  0  0  0
 17 19  2  0  0  0  0
 15 16  1  0  0  0  0
 15 17  1  0  0  0  0
 14 15  1  0  0  0  0
 14 20  2  0  0  0  0
 11 12  1  0  0  0  0
 11 13  1  0  0  0  0
 11 14  1  0  0  0  0
  9 10  1  0  0  0  0
  9 11  1  0  0  0  0
  9 22  1  0  0  0  0
  7  8  1  0  0  0  0
  7  9  1  0  0  0  0
 26 27  1  0  0  0  0
 26 28  1  0  0  0  0
 26 29  1  0  0  0  0
 24 25  1  0  0  0  0
 24 26  1  0  0  0  0
M  END
$$$$
default_name
  -OEChem-02102213163D

 29 29  0     1  0  0  0  0  0999 V2000
   -3.6042   -3.5728    1.4576 H   0  0  0  0  0  0  0  0  0  0  0  0
   -3.5202   -2.6488    0.8866 C   0  0  0  0  0  0  0  0  0  0  0  0
   -4.2052   -1.9048    1.2896 H   0  0  0  0  0  0  0  0  0  0  0  0
   -3.7552   -2.8428   -0.1584 H   0  0  0  0  0  0  0  0  0  0  0  0
   -2.1052   -2.1358    0.9946 C   0  0  0  0  0  0  0  0  0  0  0  0
   -1.2852   -2.7288    1.6826 O   0  0  0  0  0  0  0  0  0  0  0  0
   -1.8202   -1.0288    0.3146 N   0  0  0  0  0  0  0  0  0  0  0  0
   -2.5542   -0.5788   -0.2104 H   0  0  0  0  0  0  0  0  0  0  0  0
   -0.5102   -0.3728    0.3086 C   0  0  1  0  0  0  0  0  0  0  0  0
    0.0719   -0.7468    1.1521 H   0  0  0  0  0  0  0  0  0  0  0  0
    0.2338   -0.7427   -0.9878 C   0  0  0  0  0  0  0  0  0  0  0  0
    1.0886   -0.0755   -1.1121 H   0  0  0  0  0  0  0  0  0  0  0  0
    0.6138   -1.7623   -0.9013 H   0  0  0  0  0  0  0  0  0  0  0  0
   -0.6253   -0.6560   -2.2226 C   0  0  0  0  0  0  0  0  0  0  0  0
   -0.2275   -0.9283   -3.5140 N   0  0  0  0  0  0  0  0  0  0  0  0
    0.7107   -1.1475   -3.8138 H   0  0  0  0  0  0  0  0  0  0  0  0
   -1.3083   -0.8456   -4.3079 C   0  0  0  0  0  0  0  0  0  0  0  0
   -1.3113   -1.0026   -5.3796 H   0  0  0  0  0  0  0  0  0  0  0  0
   -2.3950   -0.5426   -3.5829 N   0  0  0  0  0  0  0  0  0  0  0  0
   -1.9730   -0.4154   -2.2570 C   0  0  0  0  0  0  0  0  0  0  0  0
   -2.6033   -0.2016   -1.4035 H   0  0  0  0  0  0  0  0  0  0  0  0
   -0.6600    1.1486    0.4782 C   0  0  0  0  0  0  0  0  0  0  0  0
   -1.5001    1.7648   -0.1771 O   0  0  0  0  0  0  0  0  0  0  0  0
    0.1634    1.7559    1.3418 N   0  0  0  0  0  0  0  0  0  0  0  0
    0.8618    1.1897    1.8008 H   0  0  0  0  0  0  0  0  0  0  0  0
    0.1509    3.1886    1.6256 C   0  0  0  0  0  0  0  0  0  0  0  0
   -0.8272    3.4794    2.0152 H   0  0  0  0  0  0  0  0  0  0  0  0
    0.9172    3.4314    2.3624 H   0  0  0  0  0  0  0  0  0  0  0  0
    0.3414    3.7499    0.7095 H   0  0  0  0  0  0  0  0  0  0  0  0
  5  6  2  0  0  0  0
  5  7  1  0  0  0  0
  2  3  1  0  0  0  0
  2  4  1  0  0  0  0
  2  5  1  0  0  0  0
  1  2  1  0  0  0  0
 22 23  2  0  0  0  0
 22 24  1  0  0  0  0
 20 21  1  0  0  0  0
 19 20  1  0  0  0  0
 17 18  1  0  0  0  0
 17 19  2  0  0  0  0
 15 16  1  0  0  0  0
 15 17  1  0  0  0  0
 14 15  1  0  0  0  0
 14 20  2  0  0  0  0
 11 12  1  0  0  0  0
 11 13  1  0  0  0  0
 11 14  1  0  0  0  0
  9 10  1  0  0  0  0
  9 11  1  0  0  0  0
  9 22  1  0  0  0  0
  7  8  1  0  0  0  0
  7  9  1  0  0  0  0
 26 27  1  0  0  0  0
 26 28  1  0  0  0  0
 26 29  1  0  0  0  0
 24 25  1  0  0  0  0
 24 26  1  0  0  0  0
M  END
$$$$
default_name
  -OEChem-02102213163D

 29 29  0     1  0  0  0  0  0999 V2000
   -3.6042   -3.5728    1.4576 H   0  0  0  0  0  0  0  0  0  0  0  0
   -3.5202   -2.6488    0.8866 C   0  0  0  0  0  0  0  0  0  0  0  0
   -4.2052   -1.9048    1.2896 H   0  0  0  0  0  0  0  0  0  0  0  0
   -3.7552   -2.8428   -0.1584 H   0  0  0  0  0  0  0  0  0  0  0  0
   -2.1052   -2.1358    0.9946 C   0  0  0  0  0  0  0  0  0  0  0  0
   -1.2852   -2.7288    1.6826 O   0  0  0  0  0  0  0  0  0  0  0  0
   -1.8202   -1.0288    0.3146 N   0  0  0  0  0  0  0  0  0  0  0  0
   -2.5542   -0.5788   -0.2104 H   0  0  0  0  0  0  0  0  0  0  0  0
   -0.5102   -0.3728    0.3086 C   0  0  1  0  0  0  0  0  0  0  0  0
    0.0719   -0.7468    1.1521 H   0  0  0  0  0  0  0  0  0  0  0  0
    0.2338   -0.7427   -0.9878 C   0  0  0  0  0  0  0  0  0  0  0  0
    1.0886   -0.0755   -1.1121 H   0  0  0  0  0  0  0  0  0  0  0  0
    0.6138   -1.7623   -0.9013 H   0  0  0  0  0  0  0  0  0  0  0  0
   -0.6253   -0.6560   -2.2226 C   0  0  0  0  0  0  0  0  0  0  0  0
   -0.3339   -1.1924   -3.4585 N   0  0  0  0  0  0  0  0  0  0  0  0
    0.5272   -1.6480   -3.7213 H   0  0  0  0  0  0  0  0  0  0  0  0
   -1.3969   -0.9979   -4.2570 C   0  0  0  0  0  0  0  0  0  0  0  0
   -1.4660   -1.3053   -5.2933 H   0  0  0  0  0  0  0  0  0  0  0  0
   -2.3723   -0.3677   -3.5865 N   0  0  0  0  0  0  0  0  0  0  0  0
   -1.8923   -0.1413   -2.2939 C   0  0  0  0  0  0  0  0  0  0  0  0
   -2.4367    0.3243   -1.4824 H   0  0  0  0  0  0  0  0  0  0  0  0
   -0.6600    1.1486    0.4782 C   0  0  0  0  0  0  0  0  0  0  0  0
   -1.5001    1.7648   -0.1771 O   0  0  0  0  0  0  0  0  0  0  0  0
    0.1634    1.7559    1.3418 N   0  0  0  0  0  0  0  0  0  0  0  0
    0.8618    1.1897    1.8008 H   0  0  0  0  0  0  0  0  0  0  0  0
    0.1509    3.1886    1.6256 C   0  0  0  0  0  0  0  0  0  0  0  0
   -0.8272    3.4794    2.0152 H   0  0  0  0  0  0  0  0  0  0  0  0
    0.9172    3.4314    2.3624 H   0  0  0  0  0  0  0  0  0  0  0  0
    0.3414    3.7499    0.7095 H   0  0  0  0  0  0  0  0  0  0  0  0
  5  6  2  0  0  0  0
  5  7  1  0  0  0  0
  2  3  1  0  0  0  0
  2  4  1  0  0  0  0
  2  5  1  0  0  0  0
  1  2  1  0  0  0  0
 22 23  2  0  0  0  0
 22 24  1  0  0  0  0
 20 21  1  0  0  0  0
 19 20  1  0  0  0  0
 17 18  1  0  0  0  0
 17 19  2  0  0  0  0
 15 16  1  0  0  0  0
 15 17  1  0  0  0  0
 14 15  1  0  0  0  0
 14 20  2  0  0  0  0
 11 12  1  0  0  0  0
 11 13  1  0  0  0  0
 11 14  1  0  0  0  0
  9 10  1  0  0  0  0
  9 11  1  0  0  0  0
  9 22  1  0  0  0  0
  7  8  1  0  0  0  0
  7  9  1  0  0  0  0
 26 27  1  0  0  0  0
 26 28  1  0  0  0  0
 26 29  1  0  0  0  0
 24 25  1  0  0  0  0
 24 26  1  0  0  0  0
M  END
$$$$
default_name
  -OEChem-02102213163D

 29 29  0     1  0  0  0  0  0999 V2000
   -3.6042   -3.5728    1.4576 H   0  0  0  0  0  0  0  0  0  0  0  0
   -3.5202   -2.6488    0.8866 C   0  0  0  0  0  0  0  0  0  0  0  0
   -4.2052   -1.9048    1.2896 H   0  0  0  0  0  0  0  0  0  0  0  0
   -3.7552   -2.8428   -0.1584 H   0  0  0  0  0  0  0  0  0  0  0  0
   -2.1052   -2.1358    0.9946 C   0  0  0  0  0  0  0  0  0  0  0  0
   -1.2852   -2.7288    1.6826 O   0  0  0  0  0  0  0  0  0  0  0  0
   -1.8202   -1.0288    0.3146 N   0  0  0  0  0  0  0  0  0  0  0  0
   -2.5542   -0.5788   -0.2104 H   0  0  0  0  0  0  0  0  0  0  0  0
   -0.5102   -0.3728    0.3086 C   0  0  1  0  0  0  0  0  0  0  0  0
    0.0719   -0.7468    1.1521 H   0  0  0  0  0  0  0  0  0  0  0  0
    0.2338   -0.7427   -0.9878 C   0  0  0  0  0  0  0  0  0  0  0  0
    1.0886   -0.0755   -1.1121 H   0  0  0  0  0  0  0  0  0  0  0  0
    0.6138   -1.7623   -0.9013 H   0  0  0  0  0  0  0  0  0  0  0  0
   -0.6253   -0.6560   -2.2226 C   0  0  0  0  0  0  0  0  0  0  0  0
   -0.4919   -1.4167   -3.3643 N   0  0  0  0  0  0  0  0  0  0  0  0
    0.2453   -2.0788   -3.5553 H   0  0  0  0  0  0  0  0  0  0  0  0
   -1.5140   -1.1188   -4.1840 C   0  0  0  0  0  0  0  0  0  0  0  0
   -1.6783   -1.5523   -5.1629 H   0  0  0  0  0  0  0  0  0  0  0  0
   -2.3134   -0.2040   -3.6160 N   0  0  0  0  0  0  0  0  0  0  0  0
   -1.7568    0.1010   -2.3711 C   0  0  0  0  0  0  0  0  0  0  0  0
   -2.1654    0.7852   -1.6388 H   0  0  0  0  0  0  0  0  0  0  0  0
   -0.6600    1.1486    0.4782 C   0  0  0  0  0  0  0  0  0  0  0  0
   -1.5001    1.7648   -0.1771 O   0  0  0  0  0  0  0  0  0  0  0  0
    0.1634    1.7559    1.3418 N   0  0  0  0  0  0  0  0  0  0  0  0
    0.8618    1.1897    1.8008 H   0  0  0  0  0  0  0  0  0  0  0  0
    0.1509    3.1886    1.6256 C   0  0  0  0  0  0  0  0  0  0  0  0
   -0.8272    3.4794    2.0152 H   0  0  0  0  0  0  0  0  0  0  0  0
    0.9172    3.4314    2.3624 H   0  0  0  0  0  0  0  0  0  0  0  0
    0.3414    3.7499    0.7095 H   0  0  0  0  0  0  0  0  0  0  0  0
  5  6  2  0  0  0  0
  5  7  1  0  0  0  0
  2  3  1  0  0  0  0
  2  4  1  0  0  0  0
  2  5  1  0  0  0  0
  1  2  1  0  0  0  0
 22 23  2  0  0  0  0
 22 24  1  0  0  0  0
 20 21  1  0  0  0  0
 19 20  1  0  0  0  0
 17 18  1  0  0  0  0
 17 19  2  0  0  0  0
 15 16  1  0  0  0  0
 15 17  1  0  0  0  0
 14 15  1  0  0  0  0
 14 20  2  0  0  0  0
 11 12  1  0  0  0  0
 11 13  1  0  0  0  0
 11 14  1  0  0  0  0
  9 10  1  0  0  0  0
  9 11  1  0  0  0  0
  9 22  1  0  0  0  0
  7  8  1  0  0  0  0
  7  9  1  0  0  0  0
 26 27  1  0  0  0  0
 26 28  1  0  0  0  0
 26 29  1  0  0  0  0
 24 25  1  0  0  0  0
 24 26  1  0  0  0  0
M  END
$$$$
default_name
  -OEChem-02102213163D

 29 29  0     1  0  0  0  0  0999 V2000
   -3.6042   -3.5728    1.4576 H   0  0  0  0  0  0  0  0  0  0  0  0
   -3.5202   -2.6488    0.8866 C   0  0  0  0  0  0  0  0  0  0  0  0
   -4.2052   -1.9048    1.2896 H   0  0  0  0  0  0  0  0  0  0  0  0
   -3.7552   -2.8428   -0.1584 H   0  0  0  0  0  0  0  0  0  0  0  0
   -2.1052   -2.1358    0.9946 C   0  0  0  0  0  0  0  0  0  0  0  0
   -1.2852   -2.7288    1.6826 O   0  0  0  0  0  0  0  0  0  0  0  0
   -1.8202   -1.0288    0.3146 N   0  0  0  0  0  0  0  0  0  0  0  0
   -2.5542   -0.5788   -0.2104 H   0  0  0  0  0  0  0  0  0  0  0  0
   -0.5102   -0.3728    0.3086 C   0  0  1  0  0  0  0  0  0  0  0  0
    0.0719   -0.7468    1.1521 H   0  0  0  0  0  0  0  0  0  0  0  0
    0.2338   -0.7427   -0.9878 C   0  0  0  0  0  0  0  0  0  0  0  0
    1.0886   -0.0755   -1.1121 H   0  0  0  0  0  0  0  0  0  0  0  0
    0.6138   -1.7623   -0.9013 H   0  0  0  0  0  0  0  0  0  0  0  0
   -0.6253   -0.6560   -2.2226 C   0  0  0  0  0  0  0  0  0  0  0  0
   -0.6906   -1.5860   -3.2379 N   0  0  0  0  0  0  0  0  0  0  0  0
   -0.1160   -2.4106   -3.3273 H   0  0  0  0  0  0  0  0  0  0  0  0
   -1.6517   -1.1998   -4.0939 C   0  0  0  0  0  0  0  0  0  0  0  0
   -1.9338   -1.7265   -4.9974 H   0  0  0  0  0  0  0  0  0  0  0  0
   -2.2221   -0.0628   -3.6696 N   0  0  0  0  0  0  0  0  0  0  0  0
   -1.5756    0.2949   -2.4836 C   0  0  0  0  0  0  0  0  0  0  0  0
   -1.8079    1.1499   -1.8619 H   0  0  0  0  0  0  0  0  0  0  0  0
   -0.6600    1.1486    0.4782 C   0  0  0  0  0  0  0  0  0  0  0  0
   -1.5001    1.7648   -0.1771 O   0  0  0  0  0  0  0  0  0  0  0  0
    0.1634    1.7559    1.3418 N   0  0  0  0  0  0  0  0  0  0  0  0
    0.8618    1.1897    1.8008 H   0  0  0  0  0  0  0  0  0  0  0  0
    0.1509    3.1886    1.6256 C   0  0  0  0  0  0  0  0  0  0  0  0
   -0.8272    3.4794    2.0152 H   0  0  0  0  0  0  0  0  0  0  0  0
    0.9172    3.4314    2.3624 H   0  0  0  0  0  0  0  0  0  0  0  0
    0.3414    3.7499    0.7095 H   0  0  0  0  0  0  0  0  0  0  0  0
  5  6  2  0  0  0  0
  5  7  1  0  0  0  0
  2  3  1  0  0  0  0
  2  4  1  0  0  0  0
  2  5  1  0  0  0  0
  1  2  1  0  0  0  0
 22 23  2  0  0  0  0
 22 24  1  0  0  0  0
 20 21  1  0  0  0  0
 19 20  1  0  0  0  0
 17 18  1  0  0  0  0
 17 19  2  0  0  0  0
 15 16  1  0  0  0  0
 15 17  1  0  0  0  0
 14 15  1  0  0  0  0
 14 20  2  0  0  0  0
 11 12  1  0  0  0  0
 11 13  1  0  0  0  0
 11 14  1  0  0  0  0
  9 10  1  0  0  0  0
  9 11  1  0  0  0  0
  9 22  1  0  0  0  0
  7  8  1  0  0  0  0
  7  9  1  0  0  0  0
 26 27  1  0  0  0  0
 26 28  1  0  0  0  0
 26 29  1  0  0  0  0
 24 25  1  0  0  0  0
 24 26  1  0  0  0  0
M  END
$$$$
default_name
  -OEChem-02102213163D

 29 29  0     1  0  0  0  0  0999 V2000
   -3.6042   -3.5728    1.4576 H   0  0  0  0  0  0  0  0  0  0  0  0
   -3.5202   -2.6488    0.8866 C   0  0  0  0  0  0  0  0  0  0  0  0
   -4.2052   -1.9048    1.2896 H   0  0  0  0  0  0  0  0  0  0  0  0
   -3.7552   -2.8428   -0.1584 H   0  0  0  0  0  0  0  0  0  0  0  0
   -2.1052   -2.1358    0.9946 C   0  0  0  0  0  0  0  0  0  0  0  0
   -1.2852   -2.7288    1.6826 O   0  0  0  0  0  0  0  0  0  0  0  0
   -1.8202   -1.0288    0.3146 N   0  0  0  0  0  0  0  0  0  0  0  0
   -2.5542   -0.5788   -0.2104 H   0  0  0  0  0  0  0  0  0  0  0  0
   -0.5102   -0.3728    0.3086 C   0  0  1  0  0  0  0  0  0  0  0  0
    0.0719   -0.7468    1.1521 H   0  0  0  0  0  0  0  0  0  0  0  0
    0.2338   -0.7427   -0.9878 C   0  0  0  0  0  0  0  0  0  0  0  0
    1.0886   -0.0755   -1.1121 H   0  0  0  0  0  0  0  0  0  0  0  0
    0.6138   -1.7623   -0.9013 H   0  0  0  0  0  0  0  0  0  0  0  0
   -0.6253   -0.6560   -2.2226 C   0  0  0  0  0  0  0  0  0  0  0  0
   -0.9166   -1.6887   -3.0879 N   0  0  0  0  0  0  0  0  0  0  0  0
   -0.5320   -2.6208   -3.0526 H   0  0  0  0  0  0  0  0  0  0  0  0
   -1.8005   -1.2357   -3.9929 C   0  0  0  0  0  0  0  0  0  0  0  0
   -2.2151   -1.8162   -4.8080 H   0  0  0  0  0  0  0  0  0  0  0  0
   -2.1049    0.0463   -3.7435 N   0  0  0  0  0  0  0  0  0  0  0  0
   -1.3612    0.4271   -2.6235 C   0  0  0  0  0  0  0  0  0  0  0  0
   -1.3886    1.3933   -2.1366 H   0  0  0  0  0  0  0  0  0  0  0  0
   -0.6600    1.1486    0.4782 C   0  0  0  0  0  0  0  0  0  0  0  0
   -1.5001    1.7648   -0.1771 O   0  0  0  0  0  0  0  0  0  0  0  0
    0.1634    1.7559    1.3418 N   0  0  0  0  0  0  0  0  0  0  0  0
    0.8618    1.1897    1.8008 H   0  0  0  0  0  0  0  0  0  0  0  0
    0.1509    3.1886    1.6256 C   0  0  0  0  0  0  0  0  0  0  0  0
   -0.8272    3.4794    2.0152 H   0  0  0  0  0  0  0  0  0  0  0  0
    0.9172    3.4314    2.3624 H   0  0  0  0  0  0  0  0  0  0  0  0
    0.3414    3.7499    0.7095 H   0  0  0  0  0  0  0  0  0  0  0  0
  5  6  2  0  0  0  0
  5  7  1  0  0  0  0
  2  3  1  0  0  0  0
  2  4  1  0  0  0  0
  2  5  1  0  0  0  0
  1  2  1  0  0  0  0
 22 23  2  0  0  0  0
 22 24  1  0  0  0  0
 20 21  1  0  0  0  0
 19 20  1  0  0  0  0
 17 18  1  0  0  0  0
 17 19  2  0  0  0  0
 15 16  1  0  0  0  0
 15 17  1  0  0  0  0
 14 15  1  0  0  0  0
 14 20  2  0  0  0  0
 11 12  1  0  0  0  0
 11 13  1  0  0  0  0
 11 14  1  0  0  0  0
  9 10  1  0  0  0  0
  9 11  1  0  0  0  0
  9 22  1  0  0  0  0
  7  8  1  0  0  0  0
  7  9  1  0  0  0  0
 26 27  1  0  0  0  0
 26 28  1  0  0  0  0
 26 29  1  0  0  0  0
 24 25  1  0  0  0  0
 24 26  1  0  0  0  0
M  END
$$$$
default_name
  -OEChem-02102213163D

 29 29  0     1  0  0  0  0  0999 V2000
   -3.6042   -3.5728    1.4576 H   0  0  0  0  0  0  0  0  0  0  0  0
   -3.5202   -2.6488    0.8866 C   0  0  0  0  0  0  0  0  0  0  0  0
   -4.2052   -1.9048    1.2896 H   0  0  0  0  0  0  0  0  0  0  0  0
   -3.7552   -2.8428   -0.1584 H   0  0  0  0  0  0  0  0  0  0  0  0
   -2.1052   -2.1358    0.9946 C   0  0  0  0  0  0  0  0  0  0  0  0
   -1.2852   -2.7288    1.6826 O   0  0  0  0  0  0  0  0  0  0  0  0
   -1.8202   -1.0288    0.3146 N   0  0  0  0  0  0  0  0  0  0  0  0
   -2.5542   -0.5788   -0.2104 H   0  0  0  0  0  0  0  0  0  0  0  0
   -0.5102   -0.3728    0.3086 C   0  0  1  0  0  0  0  0  0  0  0  0
    0.0719   -0.7468    1.1521 H   0  0  0  0  0  0  0  0  0  0  0  0
    0.2338   -0.7427   -0.9878 C   0  0  0  0  0  0  0  0  0  0  0  0
    1.0886   -0.0755   -1.1121 H   0  0  0  0  0  0  0  0  0  0  0  0
    0.6138   -1.7623   -0.9013 H   0  0  0  0  0  0  0  0  0  0  0  0
   -0.6253   -0.6560   -2.2226 C   0  0  0  0  0  0  0  0  0  0  0  0
   -1.1545   -1.7178   -2.9245 N   0  0  0  0  0  0  0  0  0  0  0  0
   -0.9742   -2.6952   -2.7501 H   0  0  0  0  0  0  0  0  0  0  0  0
   -1.9503   -1.2238   -3.8878 C   0  0  0  0  0  0  0  0  0  0  0  0
   -2.5030   -1.8152   -4.6076 H   0  0  0  0  0  0  0  0  0  0  0  0
   -1.9695    0.1159   -3.8327 N   0  0  0  0  0  0  0  0  0  0  0  0
   -1.1281    0.4887   -2.7813 C   0  0  0  0  0  0  0  0  0  0  0  0
   -0.9360    1.4991   -2.4441 H   0  0  0  0  0  0  0  0  0  0  0  0
   -0.6600    1.1486    0.4782 C   0  0  0  0  0  0  0  0  0  0  0  0
   -1.5001    1.7648   -0.1771 O   0  0  0  0  0  0  0  0  0  0  0  0
    0.1634    1.7559    1.3418 N   0  0  0  0  0  0  0  0  0  0  0  0
    0.8618    1.1897    1.8008 H   0  0  0  0  0  0  0  0  0  0  0  0
    0.1509    3.1886    1.6256 C   0  0  0  0  0  0  0  0  0  0  0  0
   -0.8272    3.4794    2.0152 H   0  0  0  0  0  0  0  0  0  0  0  0
    0.9172    3.4314    2.3624 H   0  0  0  0  0  0  0  0  0  0  0  0
    0.3414    3.7499    0.7095 H   0  0  0  0  0  0  0  0  0  0  0  0
  5  6  2  0  0  0  0
  5  7  1  0  0  0  0
  2  3  1  0  0  0  0
  2  4  1  0  0  0  0
  2  5  1  0  0  0  0
  1  2  1  0  0  0  0
 22 23  2  0  0  0  0
 22 24  1  0  0  0  0
 20 21  1  0  0  0  0
 19 20  1  0  0  0  0
 17 18  1  0  0  0  0
 17 19  2  0  0  0  0
 15 16  1  0  0  0  0
 15 17  1  0  0  0  0
 14 15  1  0  0  0  0
 14 20  2  0  0  0  0
 11 12  1  0  0  0  0
 11 13  1  0  0  0  0
 11 14  1  0  0  0  0
  9 10  1  0  0  0  0
  9 11  1  0  0  0  0
  9 22  1  0  0  0  0
  7  8  1  0  0  0  0
  7  9  1  0  0  0  0
 26 27  1  0  0  0  0
 26 28  1  0  0  0  0
 26 29  1  0  0  0  0
 24 25  1  0  0  0  0
 24 26  1  0  0  0  0
M  END
$$$$
default_name
  -OEChem-02102213163D

 29 29  0     1  0  0  0  0  0999 V2000
   -3.6042   -3.5728    1.4576 H   0  0  0  0  0  0  0  0  0  0  0  0
   -3.5202   -2.6488    0.8866 C   0  0  0  0  0  0  0  0  0  0  0  0
   -4.2052   -1.9048    1.2896 H   0  0  0  0  0  0  0  0  0  0  0  0
   -3.7552   -2.8428   -0.1584 H   0  0  0  0  0  0  0  0  0  0  0  0
   -2.1052   -2.1358    0.9946 C   0  0  0  0  0  0  0  0  0  0  0  0
   -1.2852   -2.7288    1.6826 O   0  0  0  0  0  0  0  0  0  0  0  0
   -1.8202   -1.0288    0.3146 N   0  0  0  0  0  0  0  0  0  0  0  0
   -2.5542   -0.5788   -0.2104 H   0  0  0  0  0  0  0  0  0  0  0  0
   -0.5102   -0.3728    0.3086 C   0  0  1  0  0  0  0  0  0  0  0  0
    0.0719   -0.7468    1.1521 H   0  0  0  0  0  0  0  0  0  0  0  0
    0.2338   -0.7427   -0.9878 C   0  0  0  0  0  0  0  0  0  0  0  0
    1.0886   -0.0755   -1.1121 H   0  0  0  0  0  0  0  0  0  0  0  0
    0.6138   -1.7623   -0.9013 H   0  0  0  0  0  0  0  0  0  0  0  0
   -0.6253   -0.6560   -2.2226 C   0  0  0  0  0  0  0  0  0  0  0  0
   -1.3880   -1.6713   -2.7587 N   0  0  0  0  0  0  0  0  0  0  0  0
   -1.4127   -2.6285   -2.4404 H   0  0  0  0  0  0  0  0  0  0  0  0
   -2.0910   -1.1651   -3.7858 C   0  0  0  0  0  0  0  0  0  0  0  0
   -2.7778   -1.7236   -4.4099 H   0  0  0  0  0  0  0  0  0  0  0  0
   -1.8254    0.1413   -3.9313 N   0  0  0  0  0  0  0  0  0  0  0  0
   -0.8922    0.4755   -2.9464 C   0  0  0  0  0  0  0  0  0  0  0  0
   -0.4810    1.4598   -2.7634 H   0  0  0  0  0  0  0  0  0  0  0  0
   -0.6600    1.1486    0.4782 C   0  0  0  0  0  0  0  0  0  0  0  0
   -1.5001    1.7648   -0.1771 O   0  0  0  0  0  0  0  0  0  0  0  0
    0.1634    1.7559    1.3418 N   0  0  0  0  0  0  0  0  0  0  0  0
    0.8618    1.1897    1.8008 H   0  0  0  0  0  0  0  0  0  0  0  0
    0.1509    3.1886    1.6256 C   0  0  0  0  0  0  0  0  0  0  0  0
   -0.8272    3.4794    2.0152 H   0  0  0  0  0  0  0  0  0  0  0  0
    0.9172    3.4314    2.3624 H   0  0  0  0  0  0  0  0  0  0  0  0
    0.3414    3.7499    0.7095 H   0  0  0  0  0  0  0  0  0  0  0  0
  5  6  2  0  0  0  0
  5  7  1  0  0  0  0
  2  3  1  0  0  0  0
  2  4  1  0  0  0  0
  2  5  1  0  0  0  0
  1  2  1  0  0  0  0
 22 23  2  0  0  0  0
 22 24  1  0  0  0  0
 20 21  1  0  0  0  0
 19 20  1  0  0  0  0
 17 18  1  0  0  0  0
 17 19  2  0  0  0  0
 15 16  1  0  0  0  0
 15 17  1  0  0  0  0
 14 15  1  0  0  0  0
 14 20  2  0  0  0  0
 11 12  1  0  0  0  0
 11 13  1  0  0  0  0
 11 14  1  0  0  0  0
  9 10  1  0  0  0  0
  9 11  1  0  0  0  0
  9 22  1  0  0  0  0
  7  8  1  0  0  0  0
  7  9  1  0  0  0  0
 26 27  1  0  0  0  0
 26 28  1  0  0  0  0
 26 29  1  0  0  0  0
 24 25  1  0  0  0  0
 24 26  1  0  0  0  0
M  END
$$$$
default_name
  -OEChem-02102213163D

 29 29  0     1  0  0  0  0  0999 V2000
   -3.6042   -3.5728    1.4576 H   0  0  0  0  0  0  0  0  0  0  0  0
   -3.5202   -2.6488    0.8866 C   0  0  0  0  0  0  0  0  0  0  0  0
   -4.2052   -1.9048    1.2896 H   0  0  0  0  0  0  0  0  0  0  0  0
   -3.7552   -2.8428   -0.1584 H   0  0  0  0  0  0  0  0  0  0  0  0
   -2.1052   -2.1358    0.9946 C   0  0  0  0  0  0  0  0  0  0  0  0
   -1.2852   -2.7288    1.6826 O   0  0  0  0  0  0  0  0  0  0  0  0
   -1.8202   -1.0288    0.3146 N   0  0  0  0  0  0  0  0  0  0  0  0
   -2.5542   -0.5788   -0.2104 H   0  0  0  0  0  0  0  0  0  0  0  0
   -0.5102   -0.3728    0.3086 C   0  0  1  0  0  0  0  0  0  0  0  0
    0.0719   -0.7468    1.1521 H   0  0  0  0  0  0  0  0  0  0  0  0
    0.2338   -0.7427   -0.9878 C   0  0  0  0  0  0  0  0  0  0  0  0
    1.0886   -0.0755   -1.1121 H   0  0  0  0  0  0  0  0  0  0  0  0
    0.6138   -1.7623   -0.9013 H   0  0  0  0  0  0  0  0  0  0  0  0
   -0.6253   -0.6560   -2.2226 C   0  0  0  0  0  0  0  0  0  0  0  0
   -1.6012   -1.5525   -2.6021 N   0  0  0  0  0  0  0  0  0  0  0  0
   -1.8175   -2.4254   -2.1445 H   0  0  0  0  0  0  0  0  0  0  0  0
   -2.2128   -1.0635   -3.6939 C   0  0  0  0  0  0  0  0  0  0  0  0
   -3.0210   -1.5476   -4.2284 H   0  0  0  0  0  0  0  0  0  0  0  0
   -1.6822    0.1207   -4.0323 N   0  0  0  0  0  0  0  0  0  0  0  0
   -0.6697    0.3883   -3.1073 C   0  0  0  0  0  0  0  0  0  0  0  0
   -0.0546    1.2782   -3.0728 H   0  0  0  0  0  0  0  0  0  0  0  0
   -0.6600    1.1486    0.4782 C   0  0  0  0  0  0  0  0  0  0  0  0
   -1.5001    1.7648   -0.1771 O   0  0  0  0  0  0  0  0  0  0  0  0
    0.1634    1.7559    1.3418 N   0  0  0  0  0  0  0  0  0  0  0  0
    0.8618    1.1897    1.8008 H   0  0  0  0  0  0  0  0  0  0  0  0
    0.1509    3.1886    1.6256 C   0  0  0  0  0  0  0  0  0  0  0  0
   -0.8272    3.4794    2.0152 H   0  0  0  0  0  0  0  0  0  0  0  0
    0.9172    3.4314    2.3624 H   0  0  0  0  0  0  0  0  0  0  0  0
    0.3414    3.7499    0.7095 H   0  0  0  0  0  0  0  0  0  0  0  0
  5  6  2  0  0  0  0
  5  7  1  0  0  0  0
  2  3  1  0  0  0  0
  2  4  1  0  0  0  0
  2  5  1  0  0  0  0
  1  2  1  0  0  0  0
 22 23  2  0  0  0  0
 22 24  1  0  0  0  0
 20 21  1  0  0  0  0
 19 20  1  0  0  0  0
 17 18  1  0  0  0  0
 17 19  2  0  0  0  0
 15 16  1  0  0  0  0
 15 17  1  0  0  0  0
 14 15  1  0  0  0  0
 14 20  2  0  0  0  0
 11 12  1  0  0  0  0
 11 13  1  0  0  0  0
 11 14  1  0  0  0  0
  9 10  1  0  0  0  0
  9 11  1  0  0  0  0
  9 22  1  0  0  0  0
  7  8  1  0  0  0  0
  7  9  1  0  0  0  0
 26 27  1  0  0  0  0
 26 28  1  0  0  0  0
 26 29  1  0  0  0  0
 24 25  1  0  0  0  0
 24 26  1  0  0  0  0
M  END
$$$$
default_name
  -OEChem-02102213163D

 29 29  0     1  0  0  0  0  0999 V2000
   -3.6042   -3.5728    1.4576 H   0  0  0  0  0  0  0  0  0  0  0  0
   -3.5202   -2.6488    0.8866 C   0  0  0  0  0  0  0  0  0  0  0  0
   -4.2052   -1.9048    1.2896 H   0  0  0  0  0  0  0  0  0  0  0  0
   -3.7552   -2.8428   -0.1584 H   0  0  0  0  0  0  0  0  0  0  0  0
   -2.1052   -2.1358    0.9946 C   0  0  0  0  0  0  0  0  0  0  0  0
   -1.2852   -2.7288    1.6826 O   0  0  0  0  0  0  0  0  0  0  0  0
   -1.8202   -1.0288    0.3146 N   0  0  0  0  0  0  0  0  0  0  0  0
   -2.5542   -0.5788   -0.2104 H   0  0  0  0  0  0  0  0  0  0  0  0
   -0.5102   -0.3728    0.3086 C   0  0  1  0  0  0  0  0  0  0  0  0
    0.0719   -0.7468    1.1521 H   0  0  0  0  0  0  0  0  0  0  0  0
    0.2338   -0.7427   -0.9878 C   0  0  0  0  0  0  0  0  0  0  0  0
    1.0886   -0.0755   -1.1121 H   0  0  0  0  0  0  0  0  0  0  0  0
    0.6138   -1.7623   -0.9013 H   0  0  0  0  0  0  0  0  0  0  0  0
   -0.6253   -0.6560   -2.2226 C   0  0  0  0  0  0  0  0  0  0  0  0
   -1.7796   -1.3694   -2.4651 N   0  0  0  0  0  0  0  0  0  0  0  0
   -2.1610   -2.0997   -1.8826 H   0  0  0  0  0  0  0  0  0  0  0  0
   -2.3076   -0.9259   -3.6183 C   0  0  0  0  0  0  0  0  0  0  0  0
   -3.2158   -1.2993   -4.0754 H   0  0  0  0  0  0  0  0  0  0  0  0
   -1.5498    0.0555   -4.1290 N   0  0  0  0  0  0  0  0  0  0  0  0
   -0.4756    0.2332   -3.2533 C   0  0  0  0  0  0  0  0  0  0  0  0
    0.3142    0.9667   -3.3513 H   0  0  0  0  0  0  0  0  0  0  0  0
   -0.6600    1.1486    0.4782 C   0  0  0  0  0  0  0  0  0  0  0  0
   -1.5001    1.7648   -0.1771 O   0  0  0  0  0  0  0  0  0  0  0  0
    0.1634    1.7559    1.3418 N   0  0  0  0  0  0  0  0  0  0  0  0
    0.8618    1.1897    1.8008 H   0  0  0  0  0  0  0  0  0  0  0  0
    0.1509    3.1886    1.6256 C   0  0  0  0  0  0  0  0  0  0  0  0
   -0.8272    3.4794    2.0152 H   0  0  0  0  0  0  0  0  0  0  0  0
    0.9172    3.4314    2.3624 H   0  0  0  0  0  0  0  0  0  0  0  0
    0.3414    3.7499    0.7095 H   0  0  0  0  0  0  0  0  0  0  0  0
  5  6  2  0  0  0  0
  5  7  1  0  0  0  0
  2  3  1  0  0  0  0
  2  4  1  0  0  0  0
  2  5  1  0  0  0  0
  1  2  1  0  0  0  0
 22 23  2  0  0  0  0
 22 24  1  0  0  0  0
 20 21  1  0  0  0  0
 19 20  1  0  0  0  0
 17 18  1  0  0  0  0
 17 19  2  0  0  0  0
 15 16  1  0  0  0  0
 15 17  1  0  0  0  0
 14 15  1  0  0  0  0
 14 20  2  0  0  0  0
 11 12  1  0  0  0  0
 11 13  1  0  0  0  0
 11 14  1  0  0  0  0
  9 10  1  0  0  0  0
  9 11  1  0  0  0  0
  9 22  1  0  0  0  0
  7  8  1  0  0  0  0
  7  9  1  0  0  0  0
 26 27  1  0  0  0  0
 26 28  1  0  0  0  0
 26 29  1  0  0  0  0
 24 25  1  0  0  0  0
 24 26  1  0  0  0  0
M  END
$$$$
default_name
  -OEChem-02102213163D

 29 29  0     1  0  0  0  0  0999 V2000
   -3.6042   -3.5728    1.4576 H   0  0  0  0  0  0  0  0  0  0  0  0
   -3.5202   -2.6488    0.8866 C   0  0  0  0  0  0  0  0  0  0  0  0
   -4.2052   -1.9048    1.2896 H   0  0  0  0  0  0  0  0  0  0  0  0
   -3.7552   -2.8428   -0.1584 H   0  0  0  0  0  0  0  0  0  0  0  0
   -2.1052   -2.1358    0.9946 C   0  0  0  0  0  0  0  0  0  0  0  0
   -1.2852   -2.7288    1.6826 O   0  0  0  0  0  0  0  0  0  0  0  0
   -1.8202   -1.0288    0.3146 N   0  0  0  0  0  0  0  0  0  0  0  0
   -2.5542   -0.5788   -0.2104 H   0  0  0  0  0  0  0  0  0  0  0  0
   -0.5102   -0.3728    0.3086 C   0  0  1  0  0  0  0  0  0  0  0  0
    0.0719   -0.7468    1.1521 H   0  0  0  0  0  0  0  0  0  0  0  0
    0.2338   -0.7427   -0.9878 C   0  0  0  0  0  0  0  0  0  0  0  0
    1.0886   -0.0755   -1.1121 H   0  0  0  0  0  0  0  0  0  0  0  0
    0.6138   -1.7623   -0.9013 H   0  0  0  0  0  0  0  0  0  0  0  0
   -0.6253   -0.6560   -2.2226 C   0  0  0  0  0  0  0  0  0  0  0  0
   -1.9110   -1.1344   -2.3571 N   0  0  0  0  0  0  0  0  0  0  0  0
   -2.4198   -1.6736   -1.6726 H   0  0  0  0  0  0  0  0  0  0  0  0
   -2.3689   -0.7617   -3.5641 C   0  0  0  0  0  0  0  0  0  0  0  0
   -3.3491   -0.9955   -3.9613 H   0  0  0  0  0  0  0  0  0  0  0  0
   -1.4372   -0.0498   -4.2148 N   0  0  0  0  0  0  0  0  0  0  0  0
   -0.3232    0.0206   -3.3742 C   0  0  0  0  0  0  0  0  0  0  0  0
    0.6002    0.5466   -3.5797 H   0  0  0  0  0  0  0  0  0  0  0  0
   -0.6600    1.1486    0.4782 C   0  0  0  0  0  0  0  0  0  0  0  0
   -1.5001    1.7648   -0.1771 O   0  0  0  0  0  0  0  0  0  0  0  0
    0.1634    1.7559    1.3418 N   0  0  0  0  0  0  0  0  0  0  0  0
    0.8618    1.1897    1.8008 H   0  0  0  0  0  0  0  0  0  0  0  0
    0.1509    3.1886    1.6256 C   0  0  0  0  0  0  0  0  0  0  0  0
   -0.8272    3.4794    2.0152 H   0  0  0  0  0  0  0  0  0  0  0  0
    0.9172    3.4314    2.3624 H   0  0  0  0  0  0  0  0  0  0  0  0
    0.3414    3.7499    0.7095 H   0  0  0  0  0  0  0  0  0  0  0  0
  5  6  2  0  0  0  0
  5  7  1  0  0  0  0
  2  3  1  0  0  0  0
  2  4  1  0  0  0  0
  2  5  1  0  0  0  0
  1  2  1  0  0  0  0
 22 23  2  0  0  0  0
 22 24  1  0  0  0  0
 20 21  1  0  0  0  0
 19 20  1  0  0  0  0
 17 18  1  0  0  0  0
 17 19  2  0  0  0  0
 15 16  1  0  0  0  0
 15 17  1  0  0  0  0
 14 15  1  0  0  0  0
 14 20  2  0  0  0  0
 11 12  1  0  0  0  0
 11 13  1  0  0  0  0
 11 14  1  0  0  0  0
  9 10  1  0  0  0  0
  9 11  1  0  0  0  0
  9 22  1  0  0  0  0
  7  8  1  0  0  0  0
  7  9  1  0  0  0  0
 26 27  1  0  0  0  0
 26 28  1  0  0  0  0
 26 29  1  0  0  0  0
 24 25  1  0  0  0  0
 24 26  1  0  0  0  0
M  END
$$$$
default_name
  -OEChem-02102213163D

 29 29  0     1  0  0  0  0  0999 V2000
   -3.6042   -3.5728    1.4576 H   0  0  0  0  0  0  0  0  0  0  0  0
   -3.5202   -2.6488    0.8866 C   0  0  0  0  0  0  0  0  0  0  0  0
   -4.2052   -1.9048    1.2896 H   0  0  0  0  0  0  0  0  0  0  0  0
   -3.7552   -2.8428   -0.1584 H   0  0  0  0  0  0  0  0  0  0  0  0
   -2.1052   -2.1358    0.9946 C   0  0  0  0  0  0  0  0  0  0  0  0
   -1.2852   -2.7288    1.6826 O   0  0  0  0  0  0  0  0  0  0  0  0
   -1.8202   -1.0288    0.3146 N   0  0  0  0  0  0  0  0  0  0  0  0
   -2.5542   -0.5788   -0.2104 H   0  0  0  0  0  0  0  0  0  0  0  0
   -0.5102   -0.3728    0.3086 C   0  0  1  0  0  0  0  0  0  0  0  0
    0.0719   -0.7468    1.1521 H   0  0  0  0  0  0  0  0  0  0  0  0
    0.2338   -0.7427   -0.9878 C   0  0  0  0  0  0  0  0  0  0  0  0
    1.0886   -0.0755   -1.1121 H   0  0  0  0  0  0  0  0  0  0  0  0
    0.6138   -1.7623   -0.9013 H   0  0  0  0  0  0  0  0  0  0  0  0
   -0.6253   -0.6560   -2.2226 C   0  0  0  0  0  0  0  0  0  0  0  0
   -1.9865   -0.8637   -2.2856 N   0  0  0  0  0  0  0  0  0  0  0  0
   -2.5763   -1.1762   -1.5288 H   0  0  0  0  0  0  0  0  0  0  0  0
   -2.3925   -0.5822   -3.5351 C   0  0  0  0  0  0  0  0  0  0  0  0
   -3.4117   -0.6570   -3.8940 H   0  0  0  0  0  0  0  0  0  0  0  0
   -1.3520   -0.1880   -4.2837 N   0  0  0  0  0  0  0  0  0  0  0  0
   -0.2229   -0.2349   -3.4620 C   0  0  0  0  0  0  0  0  0  0  0  0
    0.7839    0.0463   -3.7427 H   0  0  0  0  0  0  0  0  0  0  0  0
   -0.6600    1.1486    0.4782 C   0  0  0  0  0  0  0  0  0  0  0  0
   -1.5001    1.7648   -0.1771 O   0  0  0  0  0  0  0  0  0  0  0  0
    0.1634    1.7559    1.3418 N   0  0  0  0  0  0  0  0  0  0  0  0
    0.8618    1.1897    1.8008 H   0  0  0  0  0  0  0  0  0  0  0  0
    0.1509    3.1886    1.6256 C   0  0  0  0  0  0  0  0  0  0  0  0
   -0.8272    3.4794    2.0152 H   0  0  0  0  0  0  0  0  0  0  0  0
    0.9172    3.4314    2.3624 H   0  0  0  0  0  0  0  0  0  0  0  0
    0.3414    3.7499    0.7095 H   0  0  0  0  0  0  0  0  0  0  0  0
  5  6  2  0  0  0  0
  5  7  1  0  0  0  0
  2  3  1  0  0  0  0
  2  4  1  0  0  0  0
  2  5  1  0  0  0  0
  1  2  1  0  0  0  0
 22 23  2  0  0  0  0
 22 24  1  0  0  0  0
 20 21  1  0  0  0  0
 19 20  1  0  0  0  0
 17 18  1  0  0  0  0
 17 19  2  0  0  0  0
 15 16  1  0  0  0  0
 15 17  1  0  0  0  0
 14 15  1  0  0  0  0
 14 20  2  0  0  0  0
 11 12  1  0  0  0  0
 11 13  1  0  0  0  0
 11 14  1  0  0  0  0
  9 10  1  0  0  0  0
  9 11  1  0  0  0  0
  9 22  1  0  0  0  0
  7  8  1  0  0  0  0
  7  9  1  0  0  0  0
 26 27  1  0  0  0  0
 26 28  1  0  0  0  0
 26 29  1  0  0  0  0
 24 25  1  0  0  0  0
 24 26  1  0  0  0  0
M  END
$$$$
default_name
  -OEChem-02102213163D

 29 29  0     1  0  0  0  0  0999 V2000
   -3.6042   -3.5728    1.4576 H   0  0  0  0  0  0  0  0  0  0  0  0
   -3.5202   -2.6488    0.8866 C   0  0  0  0  0  0  0  0  0  0  0  0
   -4.2052   -1.9048    1.2896 H   0  0  0  0  0  0  0  0  0  0  0  0
   -3.7552   -2.8428   -0.1584 H   0  0  0  0  0  0  0  0  0  0  0  0
   -2.1052   -2.1358    0.9946 C   0  0  0  0  0  0  0  0  0  0  0  0
   -1.2852   -2.7288    1.6826 O   0  0  0  0  0  0  0  0  0  0  0  0
   -1.8202   -1.0288    0.3146 N   0  0  0  0  0  0  0  0  0  0  0  0
   -2.5542   -0.5788   -0.2104 H   0  0  0  0  0  0  0  0  0  0  0  0
   -0.5102   -0.3728    0.3086 C   0  0  1  0  0  0  0  0  0  0  0  0
    0.0719   -0.7468    1.1521 H   0  0  0  0  0  0  0  0  0  0  0  0
    0.2338   -0.7427   -0.9878 C   0  0  0  0  0  0  0  0  0  0  0  0
    1.0886   -0.0755   -1.1121 H   0  0  0  0  0  0  0  0  0  0  0  0
    0.6138   -1.7623   -0.9013 H   0  0  0  0  0  0  0  0  0  0  0  0
   -0.6253   -0.6560   -2.2226 C   0  0  0  0  0  0  0  0  0  0  0  0
   -2.0010   -0.5756   -2.2553 N   0  0  0  0  0  0  0  0  0  0  0  0
   -2.6198   -0.6412   -1.4610 H   0  0  0  0  0  0  0  0  0  0  0  0
   -2.3767   -0.3995   -3.5332 C   0  0  0  0  0  0  0  0  0  0  0  0
   -3.3993   -0.3069   -3.8780 H   0  0  0  0  0  0  0  0  0  0  0  0
   -1.3001   -0.3498   -4.3312 N   0  0  0  0  0  0  0  0  0  0  0  0
   -0.1815   -0.5159   -3.5105 C   0  0  0  0  0  0  0  0  0  0  0  0
    0.8528   -0.4999   -3.8290 H   0  0  0  0  0  0  0  0  0  0  0  0
   -0.6600    1.1486    0.4782 C   0  0  0  0  0  0  0  0  0  0  0  0
   -1.5001    1.7648   -0.1771 O   0  0  0  0  0  0  0  0  0  0  0  0
    0.1634    1.7559    1.3418 N   0  0  0  0  0  0  0  0  0  0  0  0
    0.8618    1.1897    1.8008 H   0  0  0  0  0  0  0  0  0  0  0  0
    0.1509    3.1886    1.6256 C   0  0  0  0  0  0  0  0  0  0  0  0
   -0.8272    3.4794    2.0152 H   0  0  0  0  0  0  0  0  0  0  0  0
    0.9172    3.4314    2.3624 H   0  0  0  0  0  0  0  0  0  0  0  0
    0.3414    3.7499    0.7095 H   0  0  0  0  0  0  0  0  0  0  0  0
  5  6  2  0  0  0  0
  5  7  1  0  0  0  0
  2  3  1  0  0  0  0
  2  4  1  0  0  0  0
  2  5  1  0  0  0  0
  1  2  1  0  0  0  0
 22 23  2  0  0  0  0
 22 24  1  0  0  0  0
 20 21  1  0  0  0  0
 19 20  1  0  0  0  0
 17 18  1  0  0  0  0
 17 19  2  0  0  0  0
 15 16  1  0  0  0  0
 15 17  1  0  0  0  0
 14 15  1  0  0  0  0
 14 20  2  0  0  0  0
 11 12  1  0  0  0  0
 11 13  1  0  0  0  0
 11 14  1  0  0  0  0
  9 10  1  0  0  0  0
  9 11  1  0  0  0  0
  9 22  1  0  0  0  0
  7  8  1  0  0  0  0
  7  9  1  0  0  0  0
 26 27  1  0  0  0  0
 26 28  1  0  0  0  0
 26 29  1  0  0  0  0
 24 25  1  0  0  0  0
 24 26  1  0  0  0  0
M  END
$$$$
default_name
  -OEChem-02102213163D

 29 29  0     1  0  0  0  0  0999 V2000
   -3.6042   -3.5728    1.4576 H   0  0  0  0  0  0  0  0  0  0  0  0
   -3.5202   -2.6488    0.8866 C   0  0  0  0  0  0  0  0  0  0  0  0
   -4.2052   -1.9048    1.2896 H   0  0  0  0  0  0  0  0  0  0  0  0
   -3.7552   -2.8428   -0.1584 H   0  0  0  0  0  0  0  0  0  0  0  0
   -2.1052   -2.1358    0.9946 C   0  0  0  0  0  0  0  0  0  0  0  0
   -1.2852   -2.7288    1.6826 O   0  0  0  0  0  0  0  0  0  0  0  0
   -1.8202   -1.0288    0.3146 N   0  0  0  0  0  0  0  0  0  0  0  0
   -2.5542   -0.5788   -0.2104 H   0  0  0  0  0  0  0  0  0  0  0  0
   -0.5102   -0.3728    0.3086 C   0  0  1  0  0  0  0  0  0  0  0  0
    0.0719   -0.7468    1.1521 H   0  0  0  0  0  0  0  0  0  0  0  0
    0.2338   -0.7427   -0.9878 C   0  0  0  0  0  0  0  0  0  0  0  0
    1.0886   -0.0755   -1.1121 H   0  0  0  0  0  0  0  0  0  0  0  0
    0.6138   -1.7623   -0.9013 H   0  0  0  0  0  0  0  0  0  0  0  0
   -0.6253   -0.6560   -2.2226 C   0  0  0  0  0  0  0  0  0  0  0  0
   -1.9534   -0.2897   -2.2683 N   0  0  0  0  0  0  0  0  0  0  0  0
   -2.5473   -0.1053   -1.4737 H   0  0  0  0  0  0  0  0  0  0  0  0
   -2.3227   -0.2260   -3.5586 C   0  0  0  0  0  0  0  0  0  0  0  0
   -3.3129    0.0311   -3.9144 H   0  0  0  0  0  0  0  0  0  0  0  0
   -1.2850   -0.5241   -4.3540 N   0  0  0  0  0  0  0  0  0  0  0  0
   -0.2018   -0.8033   -3.5165 C   0  0  0  0  0  0  0  0  0  0  0  0
    0.8023   -1.0548   -3.8328 H   0  0  0  0  0  0  0  0  0  0  0  0
   -0.6600    1.1486    0.4782 C   0  0  0  0  0  0  0  0  0  0  0  0
   -1.5001    1.7648   -0.1771 O   0  0  0  0  0  0  0  0  0  0  0  0
    0.1634    1.7559    1.3418 N   0  0  0  0  0  0  0  0  0  0  0  0
    0.8618    1.1897    1.8008 H   0  0  0  0  0  0  0  0  0  0  0  0
    0.1509    3.1886    1.6256 C   0  0  0  0  0  0  0  0  0  0  0  0
   -0.8272    3.4794    2.0152 H   0  0  0  0  0  0  0  0  0  0  0  0
    0.9172    3.4314    2.3624 H   0  0  0  0  0  0  0  0  0  0  0  0
    0.3414    3.7499    0.7095 H   0  0  0  0  0  0  0  0  0  0  0  0
  5  6  2  0  0  0  0
  5  7  1  0  0  0  0
  2  3  1  0  0  0  0
  2  4  1  0  0  0  0
  2  5  1  0  0  0  0
  1  2  1  0  0  0  0
 22 23  2  0  0  0  0
 22 24  1  0  0  0  0
 20 21  1  0  0  0  0
 19 20  1  0  0  0  0
 17 18  1  0  0  0  0
 17 19  2  0  0  0  0
 15 16  1  0  0  0  0
 15 17  1  0  0  0  0
 14 15  1  0  0  0  0
 14 20  2  0  0  0  0
 11 12  1  0  0  0  0
 11 13  1  0  0  0  0
 11 14  1  0  0  0  0
  9 10  1  0  0  0  0
  9 11  1  0  0  0  0
  9 22  1  0  0  0  0
  7  8  1  0  0  0  0
  7  9  1  0  0  0  0
 26 27  1  0  0  0  0
 26 28  1  0  0  0  0
 26 29  1  0  0  0  0
 24 25  1  0  0  0  0
 24 26  1  0  0  0  0
M  END
$$$$
default_name
  -OEChem-02102213163D

 29 29  0     1  0  0  0  0  0999 V2000
   -3.6042   -3.5728    1.4576 H   0  0  0  0  0  0  0  0  0  0  0  0
   -3.5202   -2.6488    0.8866 C   0  0  0  0  0  0  0  0  0  0  0  0
   -4.2052   -1.9048    1.2896 H   0  0  0  0  0  0  0  0  0  0  0  0
   -3.7552   -2.8428   -0.1584 H   0  0  0  0  0  0  0  0  0  0  0  0
   -2.1052   -2.1358    0.9946 C   0  0  0  0  0  0  0  0  0  0  0  0
   -1.2852   -2.7288    1.6826 O   0  0  0  0  0  0  0  0  0  0  0  0
   -1.8202   -1.0288    0.3146 N   0  0  0  0  0  0  0  0  0  0  0  0
   -2.5542   -0.5788   -0.2104 H   0  0  0  0  0  0  0  0  0  0  0  0
   -0.5102   -0.3728    0.3086 C   0  0  1  0  0  0  0  0  0  0  0  0
    0.0719   -0.7468    1.1521 H   0  0  0  0  0  0  0  0  0  0  0  0
    0.2338   -0.7427   -0.9878 C   0  0  0  0  0  0  0  0  0  0  0  0
    1.0886   -0.0755   -1.1121 H   0  0  0  0  0  0  0  0  0  0  0  0
    0.6138   -1.7623   -0.9013 H   0  0  0  0  0  0  0  0  0  0  0  0
   -0.6253   -0.6560   -2.2226 C   0  0  0  0  0  0  0  0  0  0  0  0
   -1.8470   -0.0257   -2.3238 N   0  0  0  0  0  0  0  0  0  0  0  0
   -2.3639    0.3951   -1.5662 H   0  0  0  0  0  0  0  0  0  0  0  0
   -2.2341   -0.0737   -3.6096 C   0  0  0  0  0  0  0  0  0  0  0  0
   -3.1583    0.3339   -4.0007 H   0  0  0  0  0  0  0  0  0  0  0  0
   -1.3077   -0.6991   -4.3505 N   0  0  0  0  0  0  0  0  0  0  0  0
   -0.2825   -1.0774   -3.4797 C   0  0  0  0  0  0  0  0  0  0  0  0
    0.6357   -1.5807   -3.7538 H   0  0  0  0  0  0  0  0  0  0  0  0
   -0.6600    1.1486    0.4782 C   0  0  0  0  0  0  0  0  0  0  0  0
   -1.5001    1.7648   -0.1771 O   0  0  0  0  0  0  0  0  0  0  0  0
    0.1634    1.7559    1.3418 N   0  0  0  0  0  0  0  0  0  0  0  0
    0.8618    1.1897    1.8008 H   0  0  0  0  0  0  0  0  0  0  0  0
    0.1509    3.1886    1.6256 C   0  0  0  0  0  0  0  0  0  0  0  0
   -0.8272    3.4794    2.0152 H   0  0  0  0  0  0  0  0  0  0  0  0
    0.9172    3.4314    2.3624 H   0  0  0  0  0  0  0  0  0  0  0  0
    0.3414    3.7499    0.7095 H   0  0  0  0  0  0  0  0  0  0  0  0
  5  6  2  0  0  0  0
  5  7  1  0  0  0  0
  2  3  1  0  0  0  0
  2  4  1  0  0  0  0
  2  5  1  0  0  0  0
  1  2  1  0  0  0  0
 22 23  2  0  0  0  0
 22 24  1  0  0  0  0
 20 21  1  0  0  0  0
 19 20  1  0  0  0  0
 17 18  1  0  0  0  0
 17 19  2  0  0  0  0
 15 16  1  0  0  0  0
 15 17  1  0  0  0  0
 14 15  1  0  0  0  0
 14 20  2  0  0  0  0
 11 12  1  0  0  0  0
 11 13  1  0  0  0  0
 11 14  1  0  0  0  0
  9 10  1  0  0  0  0
  9 11  1  0  0  0  0
  9 22  1  0  0  0  0
  7  8  1  0  0  0  0
  7  9  1  0  0  0  0
 26 27  1  0  0  0  0
 26 28  1  0  0  0  0
 26 29  1  0  0  0  0
 24 25  1  0  0  0  0
 24 26  1  0  0  0  0
M  END
$$$$
default_name
  -OEChem-02102213163D

 29 29  0     1  0  0  0  0  0999 V2000
   -3.6042   -3.5728    1.4576 H   0  0  0  0  0  0  0  0  0  0  0  0
   -3.5202   -2.6488    0.8866 C   0  0  0  0  0  0  0  0  0  0  0  0
   -4.2052   -1.9048    1.2896 H   0  0  0  0  0  0  0  0  0  0  0  0
   -3.7552   -2.8428   -0.1584 H   0  0  0  0  0  0  0  0  0  0  0  0
   -2.1052   -2.1358    0.9946 C   0  0  0  0  0  0  0  0  0  0  0  0
   -1.2852   -2.7288    1.6826 O   0  0  0  0  0  0  0  0  0  0  0  0
   -1.8202   -1.0288    0.3146 N   0  0  0  0  0  0  0  0  0  0  0  0
   -2.5542   -0.5788   -0.2104 H   0  0  0  0  0  0  0  0  0  0  0  0
   -0.5102   -0.3728    0.3086 C   0  0  1  0  0  0  0  0  0  0  0  0
    0.0719   -0.7468    1.1521 H   0  0  0  0  0  0  0  0  0  0  0  0
    0.2338   -0.7427   -0.9878 C   0  0  0  0  0  0  0  0  0  0  0  0
    1.0886   -0.0755   -1.1121 H   0  0  0  0  0  0  0  0  0  0  0  0
    0.6138   -1.7623   -0.9013 H   0  0  0  0  0  0  0  0  0  0  0  0
   -0.6253   -0.6560   -2.2226 C   0  0  0  0  0  0  0  0  0  0  0  0
   -1.6890    0.1986   -2.4180 N   0  0  0  0  0  0  0  0  0  0  0  0
   -2.0819    0.8259   -1.7322 H   0  0  0  0  0  0  0  0  0  0  0  0
   -2.1170    0.0471   -3.6825 C   0  0  0  0  0  0  0  0  0  0  0  0
   -2.9460    0.5808   -4.1311 H   0  0  0  0  0  0  0  0  0  0  0  0
   -1.3666   -0.8627   -4.3209 N   0  0  0  0  0  0  0  0  0  0  0  0
   -0.4180   -1.3197   -3.4024 C   0  0  0  0  0  0  0  0  0  0  0  0
    0.3644   -2.0417   -3.5975 H   0  0  0  0  0  0  0  0  0  0  0  0
   -0.6600    1.1486    0.4782 C   0  0  0  0  0  0  0  0  0  0  0  0
   -1.5001    1.7648   -0.1771 O   0  0  0  0  0  0  0  0  0  0  0  0
    0.1634    1.7559    1.3418 N   0  0  0  0  0  0  0  0  0  0  0  0
    0.8618    1.1897    1.8008 H   0  0  0  0  0  0  0  0  0  0  0  0
    0.1509    3.1886    1.6256 C   0  0  0  0  0  0  0  0  0  0  0  0
   -0.8272    3.4794    2.0152 H   0  0  0  0  0  0  0  0  0  0  0  0
    0.9172    3.4314    2.3624 H   0  0  0  0  0  0  0  0  0  0  0  0
    0.3414    3.7499    0.7095 H   0  0  0  0  0  0  0  0  0  0  0  0
  5  6  2  0  0  0  0
  5  7  1  0  0  0  0
  2  3  1  0  0  0  0
  2  4  1  0  0  0  0
  2  5  1  0  0  0  0
  1  2  1  0  0  0  0
 22 23  2  0  0  0  0
 22 24  1  0  0  0  0
 20 21  1  0  0  0  0
 19 20  1  0  0  0  0
 17 18  1  0  0  0  0
 17 19  2  0  0  0  0
 15 16  1  0  0  0  0
 15 17  1  0  0  0  0
 14 15  1  0  0  0  0
 14 20  2  0  0  0  0
 11 12  1  0  0  0  0
 11 13  1  0  0  0  0
 11 14  1  0  0  0  0
  9 10  1  0  0  0  0
  9 11  1  0  0  0  0
  9 22  1  0  0  0  0
  7  8  1  0  0  0  0
  7  9  1  0  0  0  0
 26 27  1  0  0  0  0
 26 28  1  0  0  0  0
 26 29  1  0  0  0  0
 24 25  1  0  0  0  0
 24 26  1  0  0  0  0
M  END
$$$$
default_name
  -OEChem-02102213163D

 29 29  0     1  0  0  0  0  0999 V2000
   -3.6042   -3.5728    1.4576 H   0  0  0  0  0  0  0  0  0  0  0  0
   -3.5202   -2.6488    0.8866 C   0  0  0  0  0  0  0  0  0  0  0  0
   -4.2052   -1.9048    1.2896 H   0  0  0  0  0  0  0  0  0  0  0  0
   -3.7552   -2.8428   -0.1584 H   0  0  0  0  0  0  0  0  0  0  0  0
   -2.1052   -2.1358    0.9946 C   0  0  0  0  0  0  0  0  0  0  0  0
   -1.2852   -2.7288    1.6826 O   0  0  0  0  0  0  0  0  0  0  0  0
   -1.8202   -1.0288    0.3146 N   0  0  0  0  0  0  0  0  0  0  0  0
   -2.5542   -0.5788   -0.2104 H   0  0  0  0  0  0  0  0  0  0  0  0
   -0.5102   -0.3728    0.3086 C   0  0  1  0  0  0  0  0  0  0  0  0
    0.0719   -0.7468    1.1521 H   0  0  0  0  0  0  0  0  0  0  0  0
    0.2338   -0.7427   -0.9878 C   0  0  0  0  0  0  0  0  0  0  0  0
    1.0886   -0.0755   -1.1121 H   0  0  0  0  0  0  0  0  0  0  0  0
    0.6138   -1.7623   -0.9013 H   0  0  0  0  0  0  0  0  0  0  0  0
   -0.6253   -0.6560   -2.2226 C   0  0  0  0  0  0  0  0  0  0  0  0
   -1.4903    0.3679   -2.5443 N   0  0  0  0  0  0  0  0  0  0  0  0
   -1.7206    1.1578   -1.9602 H   0  0  0  0  0  0  0  0  0  0  0  0
   -1.9794    0.1282   -3.7726 C   0  0  0  0  0  0  0  0  0  0  0  0
   -2.6905    0.7551   -4.2966 H   0  0  0  0  0  0  0  0  0  0  0  0
   -1.4579   -1.0039   -4.2674 N   0  0  0  0  0  0  0  0  0  0  0  0
   -0.5992   -1.5136   -3.2900 C   0  0  0  0  0  0  0  0  0  0  0  0
    0.0069   -2.4063   -3.3744 H   0  0  0  0  0  0  0  0  0  0  0  0
   -0.6600    1.1486    0.4782 C   0  0  0  0  0  0  0  0  0  0  0  0
   -1.5001    1.7648   -0.1771 O   0  0  0  0  0  0  0  0  0  0  0  0
    0.1634    1.7559    1.3418 N   0  0  0  0  0  0  0  0  0  0  0  0
    0.8618    1.1897    1.8008 H   0  0  0  0  0  0  0  0  0  0  0  0
    0.1509    3.1886    1.6256 C   0  0  0  0  0  0  0  0  0  0  0  0
   -0.8272    3.4794    2.0152 H   0  0  0  0  0  0  0  0  0  0  0  0
    0.9172    3.4314    2.3624 H   0  0  0  0  0  0  0  0  0  0  0  0
    0.3414    3.7499    0.7095 H   0  0  0  0  0  0  0  0  0  0  0  0
  5  6  2  0  0  0  0
  5  7  1  0  0  0  0
  2  3  1  0  0  0  0
  2  4  1  0  0  0  0
  2  5  1  0  0  0  0
  1  2  1  0  0  0  0
 22 23  2  0  0  0  0
 22 24  1  0  0  0  0
 20 21  1  0  0  0  0
 19 20  1  0  0  0  0
 17 18  1  0  0  0  0
 17 19  2  0  0  0  0
 15 16  1  0  0  0  0
 15 17  1  0  0  0  0
 14 15  1  0  0  0  0
 14 20  2  0  0  0  0
 11 12  1  0  0  0  0
 11 13  1  0  0  0  0
 11 14  1  0  0  0  0
  9 10  1  0  0  0  0
  9 11  1  0  0  0  0
  9 22  1  0  0  0  0
  7  8  1  0  0  0  0
  7  9  1  0  0  0  0
 26 27  1  0  0  0  0
 26 28  1  0  0  0  0
 26 29  1  0  0  0  0
 24 25  1  0  0  0  0
 24 26  1  0  0  0  0
M  END
$$$$
default_name
  -OEChem-02102213163D

 29 29  0     1  0  0  0  0  0999 V2000
   -3.6042   -3.5728    1.4576 H   0  0  0  0  0  0  0  0  0  0  0  0
   -3.5202   -2.6488    0.8866 C   0  0  0  0  0  0  0  0  0  0  0  0
   -4.2052   -1.9048    1.2896 H   0  0  0  0  0  0  0  0  0  0  0  0
   -3.7552   -2.8428   -0.1584 H   0  0  0  0  0  0  0  0  0  0  0  0
   -2.1052   -2.1358    0.9946 C   0  0  0  0  0  0  0  0  0  0  0  0
   -1.2852   -2.7288    1.6826 O   0  0  0  0  0  0  0  0  0  0  0  0
   -1.8202   -1.0288    0.3146 N   0  0  0  0  0  0  0  0  0  0  0  0
   -2.5542   -0.5788   -0.2104 H   0  0  0  0  0  0  0  0  0  0  0  0
   -0.5102   -0.3728    0.3086 C   0  0  1  0  0  0  0  0  0  0  0  0
    0.0719   -0.7468    1.1521 H   0  0  0  0  0  0  0  0  0  0  0  0
    0.2338   -0.7427   -0.9878 C   0  0  0  0  0  0  0  0  0  0  0  0
    1.0886   -0.0755   -1.1121 H   0  0  0  0  0  0  0  0  0  0  0  0
    0.6138   -1.7623   -0.9013 H   0  0  0  0  0  0  0  0  0  0  0  0
   -0.6253   -0.6560   -2.2226 C   0  0  0  0  0  0  0  0  0  0  0  0
   -1.2642    0.4706   -2.6944 N   0  0  0  0  0  0  0  0  0  0  0  0
   -1.3047    1.3680   -2.2349 H   0  0  0  0  0  0  0  0  0  0  0  0
   -1.8306    0.1640   -3.8736 C   0  0  0  0  0  0  0  0  0  0  0  0
   -2.4092    0.8447   -4.4860 H   0  0  0  0  0  0  0  0  0  0  0  0
   -1.5752   -1.1130   -4.1935 N   0  0  0  0  0  0  0  0  0  0  0  0
   -0.8136   -1.6458   -3.1500 C   0  0  0  0  0  0  0  0  0  0  0  0
   -0.4124   -2.6498   -3.0997 H   0  0  0  0  0  0  0  0  0  0  0  0
   -0.6600    1.1486    0.4782 C   0  0  0  0  0  0  0  0  0  0  0  0
   -1.5001    1.7648   -0.1771 O   0  0  0  0  0  0  0  0  0  0  0  0
    0.1634    1.7559    1.3418 N   0  0  0  0  0  0  0  0  0  0  0  0
    0.8618    1.1897    1.8008 H   0  0  0  0  0  0  0  0  0  0  0  0
    0.1509    3.1886    1.6256 C   0  0  0  0  0  0  0  0  0  0  0  0
   -0.8272    3.4794    2.0152 H   0  0  0  0  0  0  0  0  0  0  0  0
    0.9172    3.4314    2.3624 H   0  0  0  0  0  0  0  0  0  0  0  0
    0.3414    3.7499    0.7095 H   0  0  0  0  0  0  0  0  0  0  0  0
  5  6  2  0  0  0  0
  5  7  1  0  0  0  0
  2  3  1  0  0  0  0
  2  4  1  0  0  0  0
  2  5  1  0  0  0  0
  1  2  1  0  0  0  0
 22 23  2  0  0  0  0
 22 24  1  0  0  0  0
 20 21  1  0  0  0  0
 19 20  1  0  0  0  0
 17 18  1  0  0  0  0
 17 19  2  0  0  0  0
 15 16  1  0  0  0  0
 15 17  1  0  0  0  0
 14 15  1  0  0  0  0
 14 20  2  0  0  0  0
 11 12  1  0  0  0  0
 11 13  1  0  0  0  0
 11 14  1  0  0  0  0
  9 10  1  0  0  0  0
  9 11  1  0  0  0  0
  9 22  1  0  0  0  0
  7  8  1  0  0  0  0
  7  9  1  0  0  0  0
 26 27  1  0  0  0  0
 26 28  1  0  0  0  0
 26 29  1  0  0  0  0
 24 25  1  0  0  0  0
 24 26  1  0  0  0  0
M  END
$$$$
default_name
  -OEChem-02102213163D

 29 29  0     1  0  0  0  0  0999 V2000
   -3.6042   -3.5728    1.4576 H   0  0  0  0  0  0  0  0  0  0  0  0
   -3.5202   -2.6488    0.8866 C   0  0  0  0  0  0  0  0  0  0  0  0
   -4.2052   -1.9048    1.2896 H   0  0  0  0  0  0  0  0  0  0  0  0
   -3.7552   -2.8428   -0.1584 H   0  0  0  0  0  0  0  0  0  0  0  0
   -2.1052   -2.1358    0.9946 C   0  0  0  0  0  0  0  0  0  0  0  0
   -1.2852   -2.7288    1.6826 O   0  0  0  0  0  0  0  0  0  0  0  0
   -1.8202   -1.0288    0.3146 N   0  0  0  0  0  0  0  0  0  0  0  0
   -2.5542   -0.5788   -0.2104 H   0  0  0  0  0  0  0  0  0  0  0  0
   -0.5102   -0.3728    0.3086 C   0  0  1  0  0  0  0  0  0  0  0  0
    0.0719   -0.7468    1.1521 H   0  0  0  0  0  0  0  0  0  0  0  0
    0.2338   -0.7427   -0.9878 C   0  0  0  0  0  0  0  0  0  0  0  0
    1.0886   -0.0755   -1.1121 H   0  0  0  0  0  0  0  0  0  0  0  0
    0.6138   -1.7623   -0.9013 H   0  0  0  0  0  0  0  0  0  0  0  0
   -0.6253   -0.6560   -2.2226 C   0  0  0  0  0  0  0  0  0  0  0  0
   -1.0264    0.4997   -2.8578 N   0  0  0  0  0  0  0  0  0  0  0  0
   -0.8624    1.4423   -2.5374 H   0  0  0  0  0  0  0  0  0  0  0  0
   -1.6807    0.1521   -3.9787 C   0  0  0  0  0  0  0  0  0  0  0  0
   -2.1213    0.8438   -4.6864 H   0  0  0  0  0  0  0  0  0  0  0  0
   -1.7105   -1.1827   -4.1042 N   0  0  0  0  0  0  0  0  0  0  0  0
   -1.0467   -1.7074   -2.9922 C   0  0  0  0  0  0  0  0  0  0  0  0
   -0.8650   -2.7555   -2.7922 H   0  0  0  0  0  0  0  0  0  0  0  0
   -0.6600    1.1486    0.4782 C   0  0  0  0  0  0  0  0  0  0  0  0
   -1.5001    1.7648   -0.1771 O   0  0  0  0  0  0  0  0  0  0  0  0
    0.1634    1.7559    1.3418 N   0  0  0  0  0  0  0  0  0  0  0  0
    0.8618    1.1897    1.8008 H   0  0  0  0  0  0  0  0  0  0  0  0
    0.1509    3.1886    1.6256 C   0  0  0  0  0  0  0  0  0  0  0  0
   -0.8272    3.4794    2.0152 H   0  0  0  0  0  0  0  0  0  0  0  0
    0.9172    3.4314    2.3624 H   0  0  0  0  0  0  0  0  0  0  0  0
    0.3414    3.7499    0.7095 H   0  0  0  0  0  0  0  0  0  0  0  0
  5  6  2  0  0  0  0
  5  7  1  0  0  0  0
  2  3  1  0  0  0  0
  2  4  1  0  0  0  0
  2  5  1  0  0  0  0
  1  2  1  0  0  0  0
 22 23  2  0  0  0  0
 22 24  1  0  0  0  0
 20 21  1  0  0  0  0
 19 20  1  0  0  0  0
 17 18  1  0  0  0  0
 17 19  2  0  0  0  0
 15 16  1  0  0  0  0
 15 17  1  0  0  0  0
 14 15  1  0  0  0  0
 14 20  2  0  0  0  0
 11 12  1  0  0  0  0
 11 13  1  0  0  0  0
 11 14  1  0  0  0  0
  9 10  1  0  0  0  0
  9 11  1  0  0  0  0
  9 22  1  0  0  0  0
  7  8  1  0  0  0  0
  7  9  1  0  0  0  0
 26 27  1  0  0  0  0
 26 28  1  0  0  0  0
 26 29  1  0  0  0  0
 24 25  1  0  0  0  0
 24 26  1  0  0  0  0
M  END
$$$$
default_name
  -OEChem-02102213163D

 29 29  0     1  0  0  0  0  0999 V2000
   -3.6042   -3.5728    1.4576 H   0  0  0  0  0  0  0  0  0  0  0  0
   -3.5202   -2.6488    0.8866 C   0  0  0  0  0  0  0  0  0  0  0  0
   -4.2052   -1.9048    1.2896 H   0  0  0  0  0  0  0  0  0  0  0  0
   -3.7552   -2.8428   -0.1584 H   0  0  0  0  0  0  0  0  0  0  0  0
   -2.1052   -2.1358    0.9946 C   0  0  0  0  0  0  0  0  0  0  0  0
   -1.2852   -2.7288    1.6826 O   0  0  0  0  0  0  0  0  0  0  0  0
   -1.8202   -1.0288    0.3146 N   0  0  0  0  0  0  0  0  0  0  0  0
   -2.5542   -0.5788   -0.2104 H   0  0  0  0  0  0  0  0  0  0  0  0
   -0.5102   -0.3728    0.3086 C   0  0  1  0  0  0  0  0  0  0  0  0
    0.0719   -0.7468    1.1521 H   0  0  0  0  0  0  0  0  0  0  0  0
    0.2338   -0.7427   -0.9878 C   0  0  0  0  0  0  0  0  0  0  0  0
    1.0886   -0.0755   -1.1121 H   0  0  0  0  0  0  0  0  0  0  0  0
    0.6138   -1.7623   -0.9013 H   0  0  0  0  0  0  0  0  0  0  0  0
   -0.6253   -0.6560   -2.2226 C   0  0  0  0  0  0  0  0  0  0  0  0
   -0.7929    0.4533   -3.0235 N   0  0  0  0  0  0  0  0  0  0  0  0
   -0.4239    1.3757   -2.8471 H   0  0  0  0  0  0  0  0  0  0  0  0
   -1.5401    0.0934   -4.0807 C   0  0  0  0  0  0  0  0  0  0  0  0
   -1.8464    0.7522   -4.8841 H   0  0  0  0  0  0  0  0  0  0  0  0
   -1.8546   -1.2080   -4.0057 N   0  0  0  0  0  0  0  0  0  0  0  0
   -1.2826   -1.6942   -2.8272 C   0  0  0  0  0  0  0  0  0  0  0  0
   -1.3200   -2.7162   -2.4729 H   0  0  0  0  0  0  0  0  0  0  0  0
   -0.6600    1.1486    0.4782 C   0  0  0  0  0  0  0  0  0  0  0  0
   -1.5001    1.7648   -0.1771 O   0  0  0  0  0  0  0  0  0  0  0  0
    0.1634    1.7559    1.3418 N   0  0  0  0  0  0  0  0  0  0  0  0
    0.8618    1.1897    1.8008 H   0  0  0  0  0  0  0  0  0  0  0  0
    0.1509    3.1886    1.6256 C   0  0  0  0  0  0  0  0  0  0  0  0
   -0.8272    3.4794    2.0152 H   0  0  0  0  0  0  0  0  0  0  0  0
    0.9172    3.4314    2.3624 H   0  0  0  0  0  0  0  0  0  0  0  0
    0.3414    3.7499    0.7095 H   0  0  0  0  0  0  0  0  0  0  0  0
  5  6  2  0  0  0  0
  5  7  1  0  0  0  0
  2  3  1  0  0  0  0
  2  4  1  0  0  0  0
  2  5  1  0  0  0  0
  1  2  1  0  0  0  0
 22 23  2  0  0  0  0
 22 24  1  0  0  0  0
 20 21  1  0  0  0  0
 19 20  1  0  0  0  0
 17 18  1  0  0  0  0
 17 19  2  0  0  0  0
 15 16  1  0  0  0  0
 15 17  1  0  0  0  0
 14 15  1  0  0  0  0
 14 20  2  0  0  0  0
 11 12  1  0  0  0  0
 11 13  1  0  0  0  0
 11 14  1  0  0  0  0
  9 10  1  0  0  0  0
  9 11  1  0  0  0  0
  9 22  1  0  0  0  0
  7  8  1  0  0  0  0
  7  9  1  0  0  0  0
 26 27  1  0  0  0  0
 26 28  1  0  0  0  0
 26 29  1  0  0  0  0
 24 25  1  0  0  0  0
 24 26  1  0  0  0  0
M  END
$$$$
default_name
  -OEChem-02102213163D

 29 29  0     1  0  0  0  0  0999 V2000
   -3.6042   -3.5728    1.4576 H   0  0  0  0  0  0  0  0  0  0  0  0
   -3.5202   -2.6488    0.8866 C   0  0  0  0  0  0  0  0  0  0  0  0
   -4.2052   -1.9048    1.2896 H   0  0  0  0  0  0  0  0  0  0  0  0
   -3.7552   -2.8428   -0.1584 H   0  0  0  0  0  0  0  0  0  0  0  0
   -2.1052   -2.1358    0.9946 C   0  0  0  0  0  0  0  0  0  0  0  0
   -1.2852   -2.7288    1.6826 O   0  0  0  0  0  0  0  0  0  0  0  0
   -1.8202   -1.0288    0.3146 N   0  0  0  0  0  0  0  0  0  0  0  0
   -2.5542   -0.5788   -0.2104 H   0  0  0  0  0  0  0  0  0  0  0  0
   -0.5102   -0.3728    0.3086 C   0  0  1  0  0  0  0  0  0  0  0  0
    0.0719   -0.7468    1.1521 H   0  0  0  0  0  0  0  0  0  0  0  0
    0.2338   -0.7427   -0.9878 C   0  0  0  0  0  0  0  0  0  0  0  0
    1.0886   -0.0755   -1.1121 H   0  0  0  0  0  0  0  0  0  0  0  0
    0.6138   -1.7623   -0.9013 H   0  0  0  0  0  0  0  0  0  0  0  0
   -0.6253   -0.6560   -2.2226 C   0  0  0  0  0  0  0  0  0  0  0  0
   -0.5797    0.3344   -3.1802 N   0  0  0  0  0  0  0  0  0  0  0  0
   -0.0191    1.1726   -3.1430 H   0  0  0  0  0  0  0  0  0  0  0  0
   -1.4182   -0.0082   -4.1727 C   0  0  0  0  0  0  0  0  0  0  0  0
   -1.6032    0.5762   -5.0657 H   0  0  0  0  0  0  0  0  0  0  0  0
   -1.9978   -1.1874   -3.9046 N   0  0  0  0  0  0  0  0  0  0  0  0
   -1.5051   -1.6070   -2.6662 C   0  0  0  0  0  0  0  0  0  0  0  0
   -1.7464   -2.5346   -2.1635 H   0  0  0  0  0  0  0  0  0  0  0  0
   -0.6600    1.1486    0.4782 C   0  0  0  0  0  0  0  0  0  0  0  0
   -1.5001    1.7648   -0.1771 O   0  0  0  0  0  0  0  0  0  0  0  0
    0.1634    1.7559    1.3418 N   0  0  0  0  0  0  0  0  0  0  0  0
    0.8618    1.1897    1.8008 H   0  0  0  0  0  0  0  0  0  0  0  0
    0.1509    3.1886    1.6256 C   0  0  0  0  0  0  0  0  0  0  0  0
   -0.8272    3.4794    2.0152 H   0  0  0  0  0  0  0  0  0  0  0  0
    0.9172    3.4314    2.3624 H   0  0  0  0  0  0  0  0  0  0  0  0
    0.3414    3.7499    0.7095 H   0  0  0  0  0  0  0  0  0  0  0  0
  5  6  2  0  0  0  0
  5  7  1  0  0  0  0
  2  3  1  0  0  0  0
  2  4  1  0  0  0  0
  2  5  1  0  0  0  0
  1  2  1  0  0  0  0
 22 23  2  0  0  0  0
 22 24  1  0  0  0  0
 20 21  1  0  0  0  0
 19 20  1  0  0  0  0
 17 18  1  0  0  0  0
 17 19  2  0  0  0  0
 15 16  1  0  0  0  0
 15 17  1  0  0  0  0
 14 15  1  0  0  0  0
 14 20  2  0  0  0  0
 11 12  1  0  0  0  0
 11 13  1  0  0  0  0
 11 14  1  0  0  0  0
  9 10  1  0  0  0  0
  9 11  1  0  0  0  0
  9 22  1  0  0  0  0
  7  8  1  0  0  0  0
  7  9  1  0  0  0  0
 26 27  1  0  0  0  0
 26 28  1  0  0  0  0
 26 29  1  0  0  0  0
 24 25  1  0  0  0  0
 24 26  1  0  0  0  0
M  END
$$$$
default_name
  -OEChem-02102213163D

 29 29  0     1  0  0  0  0  0999 V2000
   -3.6042   -3.5728    1.4576 H   0  0  0  0  0  0  0  0  0  0  0  0
   -3.5202   -2.6488    0.8866 C   0  0  0  0  0  0  0  0  0  0  0  0
   -4.2052   -1.9048    1.2896 H   0  0  0  0  0  0  0  0  0  0  0  0
   -3.7552   -2.8428   -0.1584 H   0  0  0  0  0  0  0  0  0  0  0  0
   -2.1052   -2.1358    0.9946 C   0  0  0  0  0  0  0  0  0  0  0  0
   -1.2852   -2.7288    1.6826 O   0  0  0  0  0  0  0  0  0  0  0  0
   -1.8202   -1.0288    0.3146 N   0  0  0  0  0  0  0  0  0  0  0  0
   -2.5542   -0.5788   -0.2104 H   0  0  0  0  0  0  0  0  0  0  0  0
   -0.5102   -0.3728    0.3086 C   0  0  1  0  0  0  0  0  0  0  0  0
    0.0719   -0.7468    1.1521 H   0  0  0  0  0  0  0  0  0  0  0  0
    0.2338   -0.7427   -0.9878 C   0  0  0  0  0  0  0  0  0  0  0  0
    1.0886   -0.0755   -1.1121 H   0  0  0  0  0  0  0  0  0  0  0  0
    0.6138   -1.7623   -0.9013 H   0  0  0  0  0  0  0  0  0  0  0  0
   -0.6253   -0.6560   -2.2226 C   0  0  0  0  0  0  0  0  0  0  0  0
   -0.4013    0.1513   -3.3172 N   0  0  0  0  0  0  0  0  0  0  0  0
    0.3244    0.8469   -3.4049 H   0  0  0  0  0  0  0  0  0  0  0  0
   -1.3234   -0.1458   -4.2483 C   0  0  0  0  0  0  0  0  0  0  0  0
   -1.4084    0.3279   -5.2187 H   0  0  0  0  0  0  0  0  0  0  0  0
   -2.1302   -1.1223   -3.8079 N   0  0  0  0  0  0  0  0  0  0  0  0
   -1.6992   -1.4519   -2.5203 C   0  0  0  0  0  0  0  0  0  0  0  0
   -2.1152   -2.2232   -1.8850 H   0  0  0  0  0  0  0  0  0  0  0  0
   -0.6600    1.1486    0.4782 C   0  0  0  0  0  0  0  0  0  0  0  0
   -1.5001    1.7648   -0.1771 O   0  0  0  0  0  0  0  0  0  0  0  0
    0.1634    1.7559    1.3418 N   0  0  0  0  0  0  0  0  0  0  0  0
    0.8618    1.1897    1.8008 H   0  0  0  0  0  0  0  0  0  0  0  0
    0.1509    3.1886    1.6256 C   0  0  0  0  0  0  0  0  0  0  0  0
   -0.8272    3.4794    2.0152 H   0  0  0  0  0  0  0  0  0  0  0  0
    0.9172    3.4314    2.3624 H   0  0  0  0  0  0  0  0  0  0  0  0
    0.3414    3.7499    0.7095 H   0  0  0  0  0  0  0  0  0  0  0  0
  5  6  2  0  0  0  0
  5  7  1  0  0  0  0
  2  3  1  0  0  0  0
  2  4  1  0  0  0  0
  2  5  1  0  0  0  0
  1  2  1  0  0  0  0
 22 23  2  0  0  0  0
 22 24  1  0  0  0  0
 20 21  1  0  0  0  0
 19 20  1  0  0  0  0
 17 18  1  0  0  0  0
 17 19  2  0  0  0  0
 15 16  1  0  0  0  0
 15 17  1  0  0  0  0
 14 15  1  0  0  0  0
 14 20  2  0  0  0  0
 11 12  1  0  0  0  0
 11 13  1  0  0  0  0
 11 14  1  0  0  0  0
  9 10  1  0  0  0  0
  9 11  1  0  0  0  0
  9 22  1  0  0  0  0
  7  8  1  0  0  0  0
  7  9  1  0  0  0  0
 26 27  1  0  0  0  0
 26 28  1  0  0  0  0
 26 29  1  0  0  0  0
 24 25  1  0  0  0  0
 24 26  1  0  0  0  0
M  END
$$$$
default_name
  -OEChem-02102213163D

 29 29  0     1  0  0  0  0  0999 V2000
   -3.6042   -3.5728    1.4576 H   0  0  0  0  0  0  0  0  0  0  0  0
   -3.5202   -2.6488    0.8866 C   0  0  0  0  0  0  0  0  0  0  0  0
   -4.2052   -1.9048    1.2896 H   0  0  0  0  0  0  0  0  0  0  0  0
   -3.7552   -2.8428   -0.1584 H   0  0  0  0  0  0  0  0  0  0  0  0
   -2.1052   -2.1358    0.9946 C   0  0  0  0  0  0  0  0  0  0  0  0
   -1.2852   -2.7288    1.6826 O   0  0  0  0  0  0  0  0  0  0  0  0
   -1.8202   -1.0288    0.3146 N   0  0  0  0  0  0  0  0  0  0  0  0
   -2.5542   -0.5788   -0.2104 H   0  0  0  0  0  0  0  0  0  0  0  0
   -0.5102   -0.3728    0.3086 C   0  0  1  0  0  0  0  0  0  0  0  0
    0.0719   -0.7468    1.1521 H   0  0  0  0  0  0  0  0  0  0  0  0
    0.2338   -0.7427   -0.9878 C   0  0  0  0  0  0  0  0  0  0  0  0
    1.0886   -0.0755   -1.1121 H   0  0  0  0  0  0  0  0  0  0  0  0
    0.6138   -1.7623   -0.9013 H   0  0  0  0  0  0  0  0  0  0  0  0
   -0.6253   -0.6560   -2.2226 C   0  0  0  0  0  0  0  0  0  0  0  0
   -0.2699   -0.0837   -3.4252 N   0  0  0  0  0  0  0  0  0  0  0  0
    0.5832    0.4208   -3.6149 H   0  0  0  0  0  0  0  0  0  0  0  0
   -1.2621   -0.3100   -4.3024 C   0  0  0  0  0  0  0  0  0  0  0  0
   -1.2751    0.0241   -5.3327 H   0  0  0  0  0  0  0  0  0  0  0  0
   -2.2428   -1.0170   -3.7222 N   0  0  0  0  0  0  0  0  0  0  0  0
   -1.8516   -1.2393   -2.3993 C   0  0  0  0  0  0  0  0  0  0  0  0
   -2.4012   -1.8030   -1.6565 H   0  0  0  0  0  0  0  0  0  0  0  0
   -0.6600    1.1486    0.4782 C   0  0  0  0  0  0  0  0  0  0  0  0
   -1.5001    1.7648   -0.1771 O   0  0  0  0  0  0  0  0  0  0  0  0
    0.1634    1.7559    1.3418 N   0  0  0  0  0  0  0  0  0  0  0  0
    0.8618    1.1897    1.8008 H   0  0  0  0  0  0  0  0  0  0  0  0
    0.1509    3.1886    1.6256 C   0  0  0  0  0  0  0  0  0  0  0  0
   -0.8272    3.4794    2.0152 H   0  0  0  0  0  0  0  0  0  0  0  0
    0.9172    3.4314    2.3624 H   0  0  0  0  0  0  0  0  0  0  0  0
    0.3414    3.7499    0.7095 H   0  0  0  0  0  0  0  0  0  0  0  0
  5  6  2  0  0  0  0
  5  7  1  0  0  0  0
  2  3  1  0  0  0  0
  2  4  1  0  0  0  0
  2  5  1  0  0  0  0
  1  2  1  0  0  0  0
 22 23  2  0  0  0  0
 22 24  1  0  0  0  0
 20 21  1  0  0  0  0
 19 20  1  0  0  0  0
 17 18  1  0  0  0  0
 17 19  2  0  0  0  0
 15 16  1  0  0  0  0
 15 17  1  0  0  0  0
 14 15  1  0  0  0  0
 14 20  2  0  0  0  0
 11 12  1  0  0  0  0
 11 13  1  0  0  0  0
 11 14  1  0  0  0  0
  9 10  1  0  0  0  0
  9 11  1  0  0  0  0
  9 22  1  0  0  0  0
  7  8  1  0  0  0  0
  7  9  1  0  0  0  0
 26 27  1  0  0  0  0
 26 28  1  0  0  0  0
 26 29  1  0  0  0  0
 24 25  1  0  0  0  0
 24 26  1  0  0  0  0
M  END
$$$$
default_name
  -OEChem-02102213163D

 29 29  0     1  0  0  0  0  0999 V2000
   -3.6042   -3.5728    1.4576 H   0  0  0  0  0  0  0  0  0  0  0  0
   -3.5202   -2.6488    0.8866 C   0  0  0  0  0  0  0  0  0  0  0  0
   -4.2052   -1.9048    1.2896 H   0  0  0  0  0  0  0  0  0  0  0  0
   -3.7552   -2.8428   -0.1584 H   0  0  0  0  0  0  0  0  0  0  0  0
   -2.1052   -2.1358    0.9946 C   0  0  0  0  0  0  0  0  0  0  0  0
   -1.2852   -2.7288    1.6826 O   0  0  0  0  0  0  0  0  0  0  0  0
   -1.8202   -1.0288    0.3146 N   0  0  0  0  0  0  0  0  0  0  0  0
   -2.5542   -0.5788   -0.2104 H   0  0  0  0  0  0  0  0  0  0  0  0
   -0.5102   -0.3728    0.3086 C   0  0  1  0  0  0  0  0  0  0  0  0
    0.0719   -0.7468    1.1521 H   0  0  0  0  0  0  0  0  0  0  0  0
    0.2338   -0.7427   -0.9878 C   0  0  0  0  0  0  0  0  0  0  0  0
    1.0886   -0.0755   -1.1121 H   0  0  0  0  0  0  0  0  0  0  0  0
    0.6138   -1.7623   -0.9013 H   0  0  0  0  0  0  0  0  0  0  0  0
   -0.6253   -0.6560   -2.2226 C   0  0  0  0  0  0  0  0  0  0  0  0
   -0.1944   -0.3544   -3.4967 N   0  0  0  0  0  0  0  0  0  0  0  0
    0.7397   -0.0767   -3.7587 H   0  0  0  0  0  0  0  0  0  0  0  0
   -1.2386   -0.4895   -4.3314 C   0  0  0  0  0  0  0  0  0  0  0  0
   -1.2125   -0.3144   -5.4000 H   0  0  0  0  0  0  0  0  0  0  0  0
   -2.3280   -0.8787   -3.6532 N   0  0  0  0  0  0  0  0  0  0  0  0
   -1.9519   -0.9838   -2.3116 C   0  0  0  0  0  0  0  0  0  0  0  0
   -2.5849   -1.3028   -1.4936 H   0  0  0  0  0  0  0  0  0  0  0  0
   -0.6600    1.1486    0.4782 C   0  0  0  0  0  0  0  0  0  0  0  0
   -1.5001    1.7648   -0.1771 O   0  0  0  0  0  0  0  0  0  0  0  0
    0.1634    1.7559    1.3418 N   0  0  0  0  0  0  0  0  0  0  0  0
    0.8618    1.1897    1.8008 H   0  0  0  0  0  0  0  0  0  0  0  0
    0.1509    3.1886    1.6256 C   0  0  0  0  0  0  0  0  0  0  0  0
   -0.8272    3.4794    2.0152 H   0  0  0  0  0  0  0  0  0  0  0  0
    0.9172    3.4314    2.3624 H   0  0  0  0  0  0  0  0  0  0  0  0
    0.3414    3.7499    0.7095 H   0  0  0  0  0  0  0  0  0  0  0  0
  5  6  2  0  0  0  0
  5  7  1  0  0  0  0
  2  3  1  0  0  0  0
  2  4  1  0  0  0  0
  2  5  1  0  0  0  0
  1  2  1  0  0  0  0
 22 23  2  0  0  0  0
 22 24  1  0  0  0  0
 20 21  1  0  0  0  0
 19 20  1  0  0  0  0
 17 18  1  0  0  0  0
 17 19  2  0  0  0  0
 15 16  1  0  0  0  0
 15 17  1  0  0  0  0
 14 15  1  0  0  0  0
 14 20  2  0  0  0  0
 11 12  1  0  0  0  0
 11 13  1  0  0  0  0
 11 14  1  0  0  0  0
  9 10  1  0  0  0  0
  9 11  1  0  0  0  0
  9 22  1  0  0  0  0
  7  8  1  0  0  0  0
  7  9  1  0  0  0  0
 26 27  1  0  0  0  0
 26 28  1  0  0  0  0
 26 29  1  0  0  0  0
 24 25  1  0  0  0  0
 24 26  1  0  0  0  0
M  END
$$$$
default_name
  -OEChem-02102213163D

 29 29  0     1  0  0  0  0  0999 V2000
   -3.6042   -3.5728    1.4576 H   0  0  0  0  0  0  0  0  0  0  0  0
   -3.5202   -2.6488    0.8866 C   0  0  0  0  0  0  0  0  0  0  0  0
   -4.2052   -1.9048    1.2896 H   0  0  0  0  0  0  0  0  0  0  0  0
   -3.7552   -2.8428   -0.1584 H   0  0  0  0  0  0  0  0  0  0  0  0
   -2.1052   -2.1358    0.9946 C   0  0  0  0  0  0  0  0  0  0  0  0
   -1.2852   -2.7288    1.6826 O   0  0  0  0  0  0  0  0  0  0  0  0
   -1.8202   -1.0288    0.3146 N   0  0  0  0  0  0  0  0  0  0  0  0
   -2.5542   -0.5788   -0.2104 H   0  0  0  0  0  0  0  0  0  0  0  0
   -0.5102   -0.3728    0.3086 C   0  0  1  0  0  0  0  0  0  0  0  0
    0.0719   -0.7468    1.1521 H   0  0  0  0  0  0  0  0  0  0  0  0
    0.2338   -0.7427   -0.9878 C   0  0  0  0  0  0  0  0  0  0  0  0
    1.0886   -0.0755   -1.1121 H   0  0  0  0  0  0  0  0  0  0  0  0
    0.6138   -1.7623   -0.9013 H   0  0  0  0  0  0  0  0  0  0  0  0
   -0.6253   -0.6560   -2.2226 C   0  0  0  0  0  0  0  0  0  0  0  0
   -0.1799   -0.6425   -3.5270 N   0  0  0  0  0  0  0  0  0  0  0  0
    0.7832   -0.6116   -3.8265 H   0  0  0  0  0  0  0  0  0  0  0  0
   -1.2543   -0.6722   -4.3333 C   0  0  0  0  0  0  0  0  0  0  0  0
   -1.2249   -0.6646   -5.4160 H   0  0  0  0  0  0  0  0  0  0  0  0
   -2.3799   -0.7169   -3.6057 N   0  0  0  0  0  0  0  0  0  0  0  0
   -1.9933   -0.7028   -2.2630 C   0  0  0  0  0  0  0  0  0  0  0  0
   -2.6538   -0.7566   -1.4073 H   0  0  0  0  0  0  0  0  0  0  0  0
   -0.6600    1.1486    0.4782 C   0  0  0  0  0  0  0  0  0  0  0  0
   -1.5001    1.7648   -0.1771 O   0  0  0  0  0  0  0  0  0  0  0  0
    0.1634    1.7559    1.3418 N   0  0  0  0  0  0  0  0  0  0  0  0
    0.8618    1.1897    1.8008 H   0  0  0  0  0  0  0  0  0  0  0  0
    0.1509    3.1886    1.6256 C   0  0  0  0  0  0  0  0  0  0  0  0
   -0.8272    3.4794    2.0152 H   0  0  0  0  0  0  0  0  0  0  0  0
    0.9172    3.4314    2.3624 H   0  0  0  0  0  0  0  0  0  0  0  0
    0.3414    3.7499    0.7095 H   0  0  0  0  0  0  0  0  0  0  0  0
  5  6  2  0  0  0  0
  5  7  1  0  0  0  0
  2  3  1  0  0  0  0
  2  4  1  0  0  0  0
  2  5  1  0  0  0  0
  1  2  1  0  0  0  0
 22 23  2  0  0  0  0
 22 24  1  0  0  0  0
 20 21  1  0  0  0  0
 19 20  1  0  0  0  0
 17 18  1  0  0  0  0
 17 19  2  0  0  0  0
 15 16  1  0  0  0  0
 15 17  1  0  0  0  0
 14 15  1  0  0  0  0
 14 20  2  0  0  0  0
 11 12  1  0  0  0  0
 11 13  1  0  0  0  0
 11 14  1  0  0  0  0
  9 10  1  0  0  0  0
  9 11  1  0  0  0  0
  9 22  1  0  0  0  0
  7  8  1  0  0  0  0
  7  9  1  0  0  0  0
 26 27  1  0  0  0  0
 26 28  1  0  0  0  0
 26 29  1  0  0  0  0
 24 25  1  0  0  0  0
 24 26  1  0  0  0  0
M  END
$$$$
default_name
  -OEChem-02102213163D

 29 29  0     1  0  0  0  0  0999 V2000
   -3.6042   -3.5728    1.4576 H   0  0  0  0  0  0  0  0  0  0  0  0
   -3.5202   -2.6488    0.8866 C   0  0  0  0  0  0  0  0  0  0  0  0
   -4.2052   -1.9048    1.2896 H   0  0  0  0  0  0  0  0  0  0  0  0
   -3.7552   -2.8428   -0.1584 H   0  0  0  0  0  0  0  0  0  0  0  0
   -2.1052   -2.1358    0.9946 C   0  0  0  0  0  0  0  0  0  0  0  0
   -1.2852   -2.7288    1.6826 O   0  0  0  0  0  0  0  0  0  0  0  0
   -1.8202   -1.0288    0.3146 N   0  0  0  0  0  0  0  0  0  0  0  0
   -2.5542   -0.5788   -0.2104 H   0  0  0  0  0  0  0  0  0  0  0  0
   -0.5102   -0.3728    0.3086 C   0  0  1  0  0  0  0  0  0  0  0  0
    0.0719   -0.7468    1.1521 H   0  0  0  0  0  0  0  0  0  0  0  0
    0.2338   -0.7427   -0.9878 C   0  0  0  0  0  0  0  0  0  0  0  0
    1.2185   -0.2719   -0.9815 H   0  0  0  0  0  0  0  0  0  0  0  0
    0.3791   -1.8241   -1.0183 H   0  0  0  0  0  0  0  0  0  0  0  0
   -0.4904   -0.3223   -2.2404 C   0  0  0  0  0  0  0  0  0  0  0  0
   -0.0631   -0.5215   -3.5357 N   0  0  0  0  0  0  0  0  0  0  0  0
    0.8265   -0.9064   -3.8161 H   0  0  0  0  0  0  0  0  0  0  0  0
   -1.0376   -0.1079   -4.3631 C   0  0  0  0  0  0  0  0  0  0  0  0
   -0.9926   -0.1325   -5.4450 H   0  0  0  0  0  0  0  0  0  0  0  0
   -2.0862    0.3409   -3.6578 N   0  0  0  0  0  0  0  0  0  0  0  0
   -1.7488    0.2136   -2.3078 C   0  0  0  0  0  0  0  0  0  0  0  0
   -2.3818    0.4596   -1.4650 H   0  0  0  0  0  0  0  0  0  0  0  0
   -0.6600    1.1486    0.4782 C   0  0  0  0  0  0  0  0  0  0  0  0
   -1.5001    1.7648   -0.1771 O   0  0  0  0  0  0  0  0  0  0  0  0
    0.1634    1.7559    1.3418 N   0  0  0  0  0  0  0  0  0  0  0  0
    0.8618    1.1897    1.8008 H   0  0  0  0  0  0  0  0  0  0  0  0
    0.1509    3.1886    1.6256 C   0  0  0  0  0  0  0  0  0  0  0  0
   -0.8272    3.4794    2.0152 H   0  0  0  0  0  0  0  0  0  0  0  0
    0.9172    3.4314    2.3624 H   0  0  0  0  0  0  0  0  0  0  0  0
    0.3414    3.7499    0.7095 H   0  0  0  0  0  0  0  0  0  0  0  0
  5  6  2  0  0  0  0
  5  7  1  0  0  0  0
  2  3  1  0  0  0  0
  2  4  1  0  0  0  0
  2  5  1  0  0  0  0
  1  2  1  0  0  0  0
 22 23  2  0  0  0  0
 22 24  1  0  0  0  0
 20 21  1  0  0  0  0
 19 20  1  0  0  0  0
 17 18  1  0  0  0  0
 17 19  2  0  0  0  0
 15 16  1  0  0  0  0
 15 17  1  0  0  0  0
 14 15  1  0  0  0  0
 14 20  2  0  0  0  0
 11 12  1  0  0  0  0
 11 13  1  0  0  0  0
 11 14  1  0  0  0  0
  9 10  1  0  0  0  0
  9 11  1  0  0  0  0
  9 22  1  0  0  0  0
  7  8  1  0  0  0  0
  7  9  1  0  0  0  0
 26 27  1  0  0  0  0
 26 28  1  0  0  0  0
 26 29  1  0  0  0  0
 24 25  1  0  0  0  0
 24 26  1  0  0  0  0
M  END
$$$$
default_name
  -OEChem-02102213163D

 29 29  0     1  0  0  0  0  0999 V2000
   -3.6042   -3.5728    1.4576 H   0  0  0  0  0  0  0  0  0  0  0  0
   -3.5202   -2.6488    0.8866 C   0  0  0  0  0  0  0  0  0  0  0  0
   -4.2052   -1.9048    1.2896 H   0  0  0  0  0  0  0  0  0  0  0  0
   -3.7552   -2.8428   -0.1584 H   0  0  0  0  0  0  0  0  0  0  0  0
   -2.1052   -2.1358    0.9946 C   0  0  0  0  0  0  0  0  0  0  0  0
   -1.2852   -2.7288    1.6826 O   0  0  0  0  0  0  0  0  0  0  0  0
   -1.8202   -1.0288    0.3146 N   0  0  0  0  0  0  0  0  0  0  0  0
   -2.5542   -0.5788   -0.2104 H   0  0  0  0  0  0  0  0  0  0  0  0
   -0.5102   -0.3728    0.3086 C   0  0  1  0  0  0  0  0  0  0  0  0
    0.0719   -0.7468    1.1521 H   0  0  0  0  0  0  0  0  0  0  0  0
    0.2338   -0.7427   -0.9878 C   0  0  0  0  0  0  0  0  0  0  0  0
    1.2185   -0.2719   -0.9815 H   0  0  0  0  0  0  0  0  0  0  0  0
    0.3791   -1.8241   -1.0183 H   0  0  0  0  0  0  0  0  0  0  0  0
   -0.4904   -0.3223   -2.2404 C   0  0  0  0  0  0  0  0  0  0  0  0
   -0.2274   -0.7601   -3.5207 N   0  0  0  0  0  0  0  0  0  0  0  0
    0.5338   -1.3610   -3.7994 H   0  0  0  0  0  0  0  0  0  0  0  0
   -1.1603   -0.2417   -4.3370 C   0  0  0  0  0  0  0  0  0  0  0  0
   -1.2145   -0.4014   -5.4070 H   0  0  0  0  0  0  0  0  0  0  0  0
   -2.0264    0.5056   -3.6371 N   0  0  0  0  0  0  0  0  0  0  0  0
   -1.6088    0.4654   -2.3043 C   0  0  0  0  0  0  0  0  0  0  0  0
   -2.1010    0.9409   -1.4658 H   0  0  0  0  0  0  0  0  0  0  0  0
   -0.6600    1.1486    0.4782 C   0  0  0  0  0  0  0  0  0  0  0  0
   -1.5001    1.7648   -0.1771 O   0  0  0  0  0  0  0  0  0  0  0  0
    0.1634    1.7559    1.3418 N   0  0  0  0  0  0  0  0  0  0  0  0
    0.8618    1.1897    1.8008 H   0  0  0  0  0  0  0  0  0  0  0  0
    0.1509    3.1886    1.6256 C   0  0  0  0  0  0  0  0  0  0  0  0
   -0.8272    3.4794    2.0152 H   0  0  0  0  0  0  0  0  0  0  0  0
    0.9172    3.4314    2.3624 H   0  0  0  0  0  0  0  0  0  0  0  0
    0.3414    3.7499    0.7095 H   0  0  0  0  0  0  0  0  0  0  0  0
  5  6  2  0  0  0  0
  5  7  1  0  0  0  0
  2  3  1  0  0  0  0
  2  4  1  0  0  0  0
  2  5  1  0  0  0  0
  1  2  1  0  0  0  0
 22 23  2  0  0  0  0
 22 24  1  0  0  0  0
 20 21  1  0  0  0  0
 19 20  1  0  0  0  0
 17 18  1  0  0  0  0
 17 19  2  0  0  0  0
 15 16  1  0  0  0  0
 15 17  1  0  0  0  0
 14 15  1  0  0  0  0
 14 20  2  0  0  0  0
 11 12  1  0  0  0  0
 11 13  1  0  0  0  0
 11 14  1  0  0  0  0
  9 10  1  0  0  0  0
  9 11  1  0  0  0  0
  9 22  1  0  0  0  0
  7  8  1  0  0  0  0
  7  9  1  0  0  0  0
 26 27  1  0  0  0  0
 26 28  1  0  0  0  0
 26 29  1  0  0  0  0
 24 25  1  0  0  0  0
 24 26  1  0  0  0  0
M  END
$$$$
default_name
  -OEChem-02102213163D

 29 29  0     1  0  0  0  0  0999 V2000
   -3.6042   -3.5728    1.4576 H   0  0  0  0  0  0  0  0  0  0  0  0
   -3.5202   -2.6488    0.8866 C   0  0  0  0  0  0  0  0  0  0  0  0
   -4.2052   -1.9048    1.2896 H   0  0  0  0  0  0  0  0  0  0  0  0
   -3.7552   -2.8428   -0.1584 H   0  0  0  0  0  0  0  0  0  0  0  0
   -2.1052   -2.1358    0.9946 C   0  0  0  0  0  0  0  0  0  0  0  0
   -1.2852   -2.7288    1.6826 O   0  0  0  0  0  0  0  0  0  0  0  0
   -1.8202   -1.0288    0.3146 N   0  0  0  0  0  0  0  0  0  0  0  0
   -2.5542   -0.5788   -0.2104 H   0  0  0  0  0  0  0  0  0  0  0  0
   -0.5102   -0.3728    0.3086 C   0  0  1  0  0  0  0  0  0  0  0  0
    0.0719   -0.7468    1.1521 H   0  0  0  0  0  0  0  0  0  0  0  0
    0.2338   -0.7427   -0.9878 C   0  0  0  0  0  0  0  0  0  0  0  0
    1.2185   -0.2719   -0.9815 H   0  0  0  0  0  0  0  0  0  0  0  0
    0.3791   -1.8241   -1.0183 H   0  0  0  0  0  0  0  0  0  0  0  0
   -0.4904   -0.3223   -2.2404 C   0  0  0  0  0  0  0  0  0  0  0  0
   -0.4364   -0.9533   -3.4648 N   0  0  0  0  0  0  0  0  0  0  0  0
    0.1544   -1.7350   -3.7056 H   0  0  0  0  0  0  0  0  0  0  0  0
   -1.3058   -0.3412   -4.2864 C   0  0  0  0  0  0  0  0  0  0  0  0
   -1.4840   -0.6087   -5.3207 H   0  0  0  0  0  0  0  0  0  0  0  0
   -1.9317    0.6543   -3.6419 N   0  0  0  0  0  0  0  0  0  0  0  0
   -1.4191    0.6790   -2.3423 C   0  0  0  0  0  0  0  0  0  0  0  0
   -1.7263    1.3454   -1.5467 H   0  0  0  0  0  0  0  0  0  0  0  0
   -0.6600    1.1486    0.4782 C   0  0  0  0  0  0  0  0  0  0  0  0
   -1.5001    1.7648   -0.1771 O   0  0  0  0  0  0  0  0  0  0  0  0
    0.1634    1.7559    1.3418 N   0  0  0  0  0  0  0  0  0  0  0  0
    0.8618    1.1897    1.8008 H   0  0  0  0  0  0  0  0  0  0  0  0
    0.1509    3.1886    1.6256 C   0  0  0  0  0  0  0  0  0  0  0  0
   -0.8272    3.4794    2.0152 H   0  0  0  0  0  0  0  0  0  0  0  0
    0.9172    3.4314    2.3624 H   0  0  0  0  0  0  0  0  0  0  0  0
    0.3414    3.7499    0.7095 H   0  0  0  0  0  0  0  0  0  0  0  0
  5  6  2  0  0  0  0
  5  7  1  0  0  0  0
  2  3  1  0  0  0  0
  2  4  1  0  0  0  0
  2  5  1  0  0  0  0
  1  2  1  0  0  0  0
 22 23  2  0  0  0  0
 22 24  1  0  0  0  0
 20 21  1  0  0  0  0
 19 20  1  0  0  0  0
 17 18  1  0  0  0  0
 17 19  2  0  0  0  0
 15 16  1  0  0  0  0
 15 17  1  0  0  0  0
 14 15  1  0  0  0  0
 14 20  2  0  0  0  0
 11 12  1  0  0  0  0
 11 13  1  0  0  0  0
 11 14  1  0  0  0  0
  9 10  1  0  0  0  0
  9 11  1  0  0  0  0
  9 22  1  0  0  0  0
  7  8  1  0  0  0  0
  7  9  1  0  0  0  0
 26 27  1  0  0  0  0
 26 28  1  0  0  0  0
 26 29  1  0  0  0  0
 24 25  1  0  0  0  0
 24 26  1  0  0  0  0
M  END
$$$$
default_name
  -OEChem-02102213163D

 29 29  0     1  0  0  0  0  0999 V2000
   -3.6042   -3.5728    1.4576 H   0  0  0  0  0  0  0  0  0  0  0  0
   -3.5202   -2.6488    0.8866 C   0  0  0  0  0  0  0  0  0  0  0  0
   -4.2052   -1.9048    1.2896 H   0  0  0  0  0  0  0  0  0  0  0  0
   -3.7552   -2.8428   -0.1584 H   0  0  0  0  0  0  0  0  0  0  0  0
   -2.1052   -2.1358    0.9946 C   0  0  0  0  0  0  0  0  0  0  0  0
   -1.2852   -2.7288    1.6826 O   0  0  0  0  0  0  0  0  0  0  0  0
   -1.8202   -1.0288    0.3146 N   0  0  0  0  0  0  0  0  0  0  0  0
   -2.5542   -0.5788   -0.2104 H   0  0  0  0  0  0  0  0  0  0  0  0
   -0.5102   -0.3728    0.3086 C   0  0  1  0  0  0  0  0  0  0  0  0
    0.0719   -0.7468    1.1521 H   0  0  0  0  0  0  0  0  0  0  0  0
    0.2338   -0.7427   -0.9878 C   0  0  0  0  0  0  0  0  0  0  0  0
    1.2185   -0.2719   -0.9815 H   0  0  0  0  0  0  0  0  0  0  0  0
    0.3791   -1.8241   -1.0183 H   0  0  0  0  0  0  0  0  0  0  0  0
   -0.4904   -0.3223   -2.2404 C   0  0  0  0  0  0  0  0  0  0  0  0
   -0.6758   -1.0879   -3.3715 N   0  0  0  0  0  0  0  0  0  0  0  0
   -0.2858   -2.0030   -3.5411 H   0  0  0  0  0  0  0  0  0  0  0  0
   -1.4640   -0.3998   -4.2145 C   0  0  0  0  0  0  0  0  0  0  0  0
   -1.7827   -0.7402   -5.1922 H   0  0  0  0  0  0  0  0  0  0  0  0
   -1.8086    0.7771   -3.6719 N   0  0  0  0  0  0  0  0  0  0  0  0
   -1.1926    0.8397   -2.4193 C   0  0  0  0  0  0  0  0  0  0  0  0
   -1.2832    1.6454   -1.7022 H   0  0  0  0  0  0  0  0  0  0  0  0
   -0.6600    1.1486    0.4782 C   0  0  0  0  0  0  0  0  0  0  0  0
   -1.5001    1.7648   -0.1771 O   0  0  0  0  0  0  0  0  0  0  0  0
    0.1634    1.7559    1.3418 N   0  0  0  0  0  0  0  0  0  0  0  0
    0.8618    1.1897    1.8008 H   0  0  0  0  0  0  0  0  0  0  0  0
    0.1509    3.1886    1.6256 C   0  0  0  0  0  0  0  0  0  0  0  0
   -0.8272    3.4794    2.0152 H   0  0  0  0  0  0  0  0  0  0  0  0
    0.9172    3.4314    2.3624 H   0  0  0  0  0  0  0  0  0  0  0  0
    0.3414    3.7499    0.7095 H   0  0  0  0  0  0  0  0  0  0  0  0
  5  6  2  0  0  0  0
  5  7  1  0  0  0  0
  2  3  1  0  0  0  0
  2  4  1  0  0  0  0
  2  5  1  0  0  0  0
  1  2  1  0  0  0  0
 22 23  2  0  0  0  0
 22 24  1  0  0  0  0
 20 21  1  0  0  0  0
 19 20  1  0  0  0  0
 17 18  1  0  0  0  0
 17 19  2  0  0  0  0
 15 16  1  0  0  0  0
 15 17  1  0  0  0  0
 14 15  1  0  0  0  0
 14 20  2  0  0  0  0
 11 12  1  0  0  0  0
 11 13  1  0  0  0  0
 11 14  1  0  0  0  0
  9 10  1  0  0  0  0
  9 11  1  0  0  0  0
  9 22  1  0  0  0  0
  7  8  1  0  0  0  0
  7  9  1  0  0  0  0
 26 27  1  0  0  0  0
 26 28  1  0  0  0  0
 26 29  1  0  0  0  0
 24 25  1  0  0  0  0
 24 26  1  0  0  0  0
M  END
$$$$
default_name
  -OEChem-02102213163D

 29 29  0     1  0  0  0  0  0999 V2000
   -3.6042   -3.5728    1.4576 H   0  0  0  0  0  0  0  0  0  0  0  0
   -3.5202   -2.6488    0.8866 C   0  0  0  0  0  0  0  0  0  0  0  0
   -4.2052   -1.9048    1.2896 H   0  0  0  0  0  0  0  0  0  0  0  0
   -3.7552   -2.8428   -0.1584 H   0  0  0  0  0  0  0  0  0  0  0  0
   -2.1052   -2.1358    0.9946 C   0  0  0  0  0  0  0  0  0  0  0  0
   -1.2852   -2.7288    1.6826 O   0  0  0  0  0  0  0  0  0  0  0  0
   -1.8202   -1.0288    0.3146 N   0  0  0  0  0  0  0  0  0  0  0  0
   -2.5542   -0.5788   -0.2104 H   0  0  0  0  0  0  0  0  0  0  0  0
   -0.5102   -0.3728    0.3086 C   0  0  1  0  0  0  0  0  0  0  0  0
    0.0719   -0.7468    1.1521 H   0  0  0  0  0  0  0  0  0  0  0  0
    0.2338   -0.7427   -0.9878 C   0  0  0  0  0  0  0  0  0  0  0  0
    1.2185   -0.2719   -0.9815 H   0  0  0  0  0  0  0  0  0  0  0  0
    0.3791   -1.8241   -1.0183 H   0  0  0  0  0  0  0  0  0  0  0  0
   -0.4904   -0.3223   -2.2404 C   0  0  0  0  0  0  0  0  0  0  0  0
   -0.9293   -1.1549   -3.2475 N   0  0  0  0  0  0  0  0  0  0  0  0
   -0.7568   -2.1467   -3.3170 H   0  0  0  0  0  0  0  0  0  0  0  0
   -1.6243   -0.4134   -4.1264 C   0  0  0  0  0  0  0  0  0  0  0  0
   -2.0903   -0.7870   -5.0301 H   0  0  0  0  0  0  0  0  0  0  0  0
   -1.6654    0.8654   -3.7250 N   0  0  0  0  0  0  0  0  0  0  0  0
   -0.9449    0.9367   -2.5300 C   0  0  0  0  0  0  0  0  0  0  0  0
   -0.8018    1.8204   -1.9217 H   0  0  0  0  0  0  0  0  0  0  0  0
   -0.6600    1.1486    0.4782 C   0  0  0  0  0  0  0  0  0  0  0  0
   -1.5001    1.7648   -0.1771 O   0  0  0  0  0  0  0  0  0  0  0  0
    0.1634    1.7559    1.3418 N   0  0  0  0  0  0  0  0  0  0  0  0
    0.8618    1.1897    1.8008 H   0  0  0  0  0  0  0  0  0  0  0  0
    0.1509    3.1886    1.6256 C   0  0  0  0  0  0  0  0  0  0  0  0
   -0.8272    3.4794    2.0152 H   0  0  0  0  0  0  0  0  0  0  0  0
    0.9172    3.4314    2.3624 H   0  0  0  0  0  0  0  0  0  0  0  0
    0.3414    3.7499    0.7095 H   0  0  0  0  0  0  0  0  0  0  0  0
  5  6  2  0  0  0  0
  5  7  1  0  0  0  0
  2  3  1  0  0  0  0
  2  4  1  0  0  0  0
  2  5  1  0  0  0  0
  1  2  1  0  0  0  0
 22 23  2  0  0  0  0
 22 24  1  0  0  0  0
 20 21  1  0  0  0  0
 19 20  1  0  0  0  0
 17 18  1  0  0  0  0
 17 19  2  0  0  0  0
 15 16  1  0  0  0  0
 15 17  1  0  0  0  0
 14 15  1  0  0  0  0
 14 20  2  0  0  0  0
 11 12  1  0  0  0  0
 11 13  1  0  0  0  0
 11 14  1  0  0  0  0
  9 10  1  0  0  0  0
  9 11  1  0  0  0  0
  9 22  1  0  0  0  0
  7  8  1  0  0  0  0
  7  9  1  0  0  0  0
 26 27  1  0  0  0  0
 26 28  1  0  0  0  0
 26 29  1  0  0  0  0
 24 25  1  0  0  0  0
 24 26  1  0  0  0  0
M  END
$$$$
default_name
  -OEChem-02102213163D

 29 29  0     1  0  0  0  0  0999 V2000
   -3.6042   -3.5728    1.4576 H   0  0  0  0  0  0  0  0  0  0  0  0
   -3.5202   -2.6488    0.8866 C   0  0  0  0  0  0  0  0  0  0  0  0
   -4.2052   -1.9048    1.2896 H   0  0  0  0  0  0  0  0  0  0  0  0
   -3.7552   -2.8428   -0.1584 H   0  0  0  0  0  0  0  0  0  0  0  0
   -2.1052   -2.1358    0.9946 C   0  0  0  0  0  0  0  0  0  0  0  0
   -1.2852   -2.7288    1.6826 O   0  0  0  0  0  0  0  0  0  0  0  0
   -1.8202   -1.0288    0.3146 N   0  0  0  0  0  0  0  0  0  0  0  0
   -2.5542   -0.5788   -0.2104 H   0  0  0  0  0  0  0  0  0  0  0  0
   -0.5102   -0.3728    0.3086 C   0  0  1  0  0  0  0  0  0  0  0  0
    0.0719   -0.7468    1.1521 H   0  0  0  0  0  0  0  0  0  0  0  0
    0.2338   -0.7427   -0.9878 C   0  0  0  0  0  0  0  0  0  0  0  0
    1.2185   -0.2719   -0.9815 H   0  0  0  0  0  0  0  0  0  0  0  0
    0.3791   -1.8241   -1.0183 H   0  0  0  0  0  0  0  0  0  0  0  0
   -0.4904   -0.3223   -2.2404 C   0  0  0  0  0  0  0  0  0  0  0  0
   -1.1796   -1.1496   -3.1010 N   0  0  0  0  0  0  0  0  0  0  0  0
   -1.2264   -2.1562   -3.0487 H   0  0  0  0  0  0  0  0  0  0  0  0
   -1.7757   -0.3811   -4.0281 C   0  0  0  0  0  0  0  0  0  0  0  0
   -2.3857   -0.7458   -4.8455 H   0  0  0  0  0  0  0  0  0  0  0  0
   -1.5119    0.9134   -3.7977 N   0  0  0  0  0  0  0  0  0  0  0  0
   -0.6927    0.9633   -2.6668 C   0  0  0  0  0  0  0  0  0  0  0  0
   -0.3151    1.8587   -2.1903 H   0  0  0  0  0  0  0  0  0  0  0  0
   -0.6600    1.1486    0.4782 C   0  0  0  0  0  0  0  0  0  0  0  0
   -1.5001    1.7648   -0.1771 O   0  0  0  0  0  0  0  0  0  0  0  0
    0.1634    1.7559    1.3418 N   0  0  0  0  0  0  0  0  0  0  0  0
    0.8618    1.1897    1.8008 H   0  0  0  0  0  0  0  0  0  0  0  0
    0.1509    3.1886    1.6256 C   0  0  0  0  0  0  0  0  0  0  0  0
   -0.8272    3.4794    2.0152 H   0  0  0  0  0  0  0  0  0  0  0  0
    0.9172    3.4314    2.3624 H   0  0  0  0  0  0  0  0  0  0  0  0
    0.3414    3.7499    0.7095 H   0  0  0  0  0  0  0  0  0  0  0  0
  5  6  2  0  0  0  0
  5  7  1  0  0  0  0
  2  3  1  0  0  0  0
  2  4  1  0  0  0  0
  2  5  1  0  0  0  0
  1  2  1  0  0  0  0
 22 23  2  0  0  0  0
 22 24  1  0  0  0  0
 20 21  1  0  0  0  0
 19 20  1  0  0  0  0
 17 18  1  0  0  0  0
 17 19  2  0  0  0  0
 15 16  1  0  0  0  0
 15 17  1  0  0  0  0
 14 15  1  0  0  0  0
 14 20  2  0  0  0  0
 11 12  1  0  0  0  0
 11 13  1  0  0  0  0
 11 14  1  0  0  0  0
  9 10  1  0  0  0  0
  9 11  1  0  0  0  0
  9 22  1  0  0  0  0
  7  8  1  0  0  0  0
  7  9  1  0  0  0  0
 26 27  1  0  0  0  0
 26 28  1  0  0  0  0
 26 29  1  0  0  0  0
 24 25  1  0  0  0  0
 24 26  1  0  0  0  0
M  END
$$$$
default_name
  -OEChem-02102213163D

 29 29  0     1  0  0  0  0  0999 V2000
   -3.6042   -3.5728    1.4576 H   0  0  0  0  0  0  0  0  0  0  0  0
   -3.5202   -2.6488    0.8866 C   0  0  0  0  0  0  0  0  0  0  0  0
   -4.2052   -1.9048    1.2896 H   0  0  0  0  0  0  0  0  0  0  0  0
   -3.7552   -2.8428   -0.1584 H   0  0  0  0  0  0  0  0  0  0  0  0
   -2.1052   -2.1358    0.9946 C   0  0  0  0  0  0  0  0  0  0  0  0
   -1.2852   -2.7288    1.6826 O   0  0  0  0  0  0  0  0  0  0  0  0
   -1.8202   -1.0288    0.3146 N   0  0  0  0  0  0  0  0  0  0  0  0
   -2.5542   -0.5788   -0.2104 H   0  0  0  0  0  0  0  0  0  0  0  0
   -0.5102   -0.3728    0.3086 C   0  0  1  0  0  0  0  0  0  0  0  0
    0.0719   -0.7468    1.1521 H   0  0  0  0  0  0  0  0  0  0  0  0
    0.2338   -0.7427   -0.9878 C   0  0  0  0  0  0  0  0  0  0  0  0
    1.2185   -0.2719   -0.9815 H   0  0  0  0  0  0  0  0  0  0  0  0
    0.3791   -1.8241   -1.0183 H   0  0  0  0  0  0  0  0  0  0  0  0
   -0.4904   -0.3223   -2.2404 C   0  0  0  0  0  0  0  0  0  0  0  0
   -1.4096   -1.0725   -2.9421 N   0  0  0  0  0  0  0  0  0  0  0  0
   -1.6627   -2.0310   -2.7544 H   0  0  0  0  0  0  0  0  0  0  0  0
   -1.9078   -0.3051   -3.9261 C   0  0  0  0  0  0  0  0  0  0  0  0
   -2.6488   -0.6196   -4.6509 H   0  0  0  0  0  0  0  0  0  0  0  0
   -1.3586    0.9176   -3.8849 N   0  0  0  0  0  0  0  0  0  0  0  0
   -0.4533    0.9176   -2.8206 C   0  0  0  0  0  0  0  0  0  0  0  0
    0.1439    1.7575   -2.4897 H   0  0  0  0  0  0  0  0  0  0  0  0
   -0.6600    1.1486    0.4782 C   0  0  0  0  0  0  0  0  0  0  0  0
   -1.5001    1.7648   -0.1771 O   0  0  0  0  0  0  0  0  0  0  0  0
    0.1634    1.7559    1.3418 N   0  0  0  0  0  0  0  0  0  0  0  0
    0.8618    1.1897    1.8008 H   0  0  0  0  0  0  0  0  0  0  0  0
    0.1509    3.1886    1.6256 C   0  0  0  0  0  0  0  0  0  0  0  0
   -0.8272    3.4794    2.0152 H   0  0  0  0  0  0  0  0  0  0  0  0
    0.9172    3.4314    2.3624 H   0  0  0  0  0  0  0  0  0  0  0  0
    0.3414    3.7499    0.7095 H   0  0  0  0  0  0  0  0  0  0  0  0
  5  6  2  0  0  0  0
  5  7  1  0  0  0  0
  2  3  1  0  0  0  0
  2  4  1  0  0  0  0
  2  5  1  0  0  0  0
  1  2  1  0  0  0  0
 22 23  2  0  0  0  0
 22 24  1  0  0  0  0
 20 21  1  0  0  0  0
 19 20  1  0  0  0  0
 17 18  1  0  0  0  0
 17 19  2  0  0  0  0
 15 16  1  0  0  0  0
 15 17  1  0  0  0  0
 14 15  1  0  0  0  0
 14 20  2  0  0  0  0
 11 12  1  0  0  0  0
 11 13  1  0  0  0  0
 11 14  1  0  0  0  0
  9 10  1  0  0  0  0
  9 11  1  0  0  0  0
  9 22  1  0  0  0  0
  7  8  1  0  0  0  0
  7  9  1  0  0  0  0
 26 27  1  0  0  0  0
 26 28  1  0  0  0  0
 26 29  1  0  0  0  0
 24 25  1  0  0  0  0
 24 26  1  0  0  0  0
M  END
$$$$
default_name
  -OEChem-02102213163D

 29 29  0     1  0  0  0  0  0999 V2000
   -3.6042   -3.5728    1.4576 H   0  0  0  0  0  0  0  0  0  0  0  0
   -3.5202   -2.6488    0.8866 C   0  0  0  0  0  0  0  0  0  0  0  0
   -4.2052   -1.9048    1.2896 H   0  0  0  0  0  0  0  0  0  0  0  0
   -3.7552   -2.8428   -0.1584 H   0  0  0  0  0  0  0  0  0  0  0  0
   -2.1052   -2.1358    0.9946 C   0  0  0  0  0  0  0  0  0  0  0  0
   -1.2852   -2.7288    1.6826 O   0  0  0  0  0  0  0  0  0  0  0  0
   -1.8202   -1.0288    0.3146 N   0  0  0  0  0  0  0  0  0  0  0  0
   -2.5542   -0.5788   -0.2104 H   0  0  0  0  0  0  0  0  0  0  0  0
   -0.5102   -0.3728    0.3086 C   0  0  1  0  0  0  0  0  0  0  0  0
    0.0719   -0.7468    1.1521 H   0  0  0  0  0  0  0  0  0  0  0  0
    0.2338   -0.7427   -0.9878 C   0  0  0  0  0  0  0  0  0  0  0  0
    1.2185   -0.2719   -0.9815 H   0  0  0  0  0  0  0  0  0  0  0  0
    0.3791   -1.8241   -1.0183 H   0  0  0  0  0  0  0  0  0  0  0  0
   -0.4904   -0.3223   -2.2404 C   0  0  0  0  0  0  0  0  0  0  0  0
   -1.6037   -0.9286   -2.7816 N   0  0  0  0  0  0  0  0  0  0  0  0
   -2.0360   -1.7796   -2.4542 H   0  0  0  0  0  0  0  0  0  0  0  0
   -2.0118   -0.1906   -3.8276 C   0  0  0  0  0  0  0  0  0  0  0  0
   -2.8618   -0.4168   -4.4597 H   0  0  0  0  0  0  0  0  0  0  0  0
   -1.2159    0.8778   -3.9808 N   0  0  0  0  0  0  0  0  0  0  0  0
   -0.2429    0.8029   -2.9807 C   0  0  0  0  0  0  0  0  0  0  0  0
    0.5439    1.5237   -2.7994 H   0  0  0  0  0  0  0  0  0  0  0  0
   -0.6600    1.1486    0.4782 C   0  0  0  0  0  0  0  0  0  0  0  0
   -1.5001    1.7648   -0.1771 O   0  0  0  0  0  0  0  0  0  0  0  0
    0.1634    1.7559    1.3418 N   0  0  0  0  0  0  0  0  0  0  0  0
    0.8618    1.1897    1.8008 H   0  0  0  0  0  0  0  0  0  0  0  0
    0.1509    3.1886    1.6256 C   0  0  0  0  0  0  0  0  0  0  0  0
   -0.8272    3.4794    2.0152 H   0  0  0  0  0  0  0  0  0  0  0  0
    0.9172    3.4314    2.3624 H   0  0  0  0  0  0  0  0  0  0  0  0
    0.3414    3.7499    0.7095 H   0  0  0  0  0  0  0  0  0  0  0  0
  5  6  2  0  0  0  0
  5  7  1  0  0  0  0
  2  3  1  0  0  0  0
  2  4  1  0  0  0  0
  2  5  1  0  0  0  0
  1  2  1  0  0  0  0
 22 23  2  0  0  0  0
 22 24  1  0  0  0  0
 20 21  1  0  0  0  0
 19 20  1  0  0  0  0
 17 18  1  0  0  0  0
 17 19  2  0  0  0  0
 15 16  1  0  0  0  0
 15 17  1  0  0  0  0
 14 15  1  0  0  0  0
 14 20  2  0  0  0  0
 11 12  1  0  0  0  0
 11 13  1  0  0  0  0
 11 14  1  0  0  0  0
  9 10  1  0  0  0  0
  9 11  1  0  0  0  0
  9 22  1  0  0  0  0
  7  8  1  0  0  0  0
  7  9  1  0  0  0  0
 26 27  1  0  0  0  0
 26 28  1  0  0  0  0
 26 29  1  0  0  0  0
 24 25  1  0  0  0  0
 24 26  1  0  0  0  0
M  END
$$$$
default_name
  -OEChem-02102213163D

 29 29  0     1  0  0  0  0  0999 V2000
   -3.6042   -3.5728    1.4576 H   0  0  0  0  0  0  0  0  0  0  0  0
   -3.5202   -2.6488    0.8866 C   0  0  0  0  0  0  0  0  0  0  0  0
   -4.2052   -1.9048    1.2896 H   0  0  0  0  0  0  0  0  0  0  0  0
   -3.7552   -2.8428   -0.1584 H   0  0  0  0  0  0  0  0  0  0  0  0
   -2.1052   -2.1358    0.9946 C   0  0  0  0  0  0  0  0  0  0  0  0
   -1.2852   -2.7288    1.6826 O   0  0  0  0  0  0  0  0  0  0  0  0
   -1.8202   -1.0288    0.3146 N   0  0  0  0  0  0  0  0  0  0  0  0
   -2.5542   -0.5788   -0.2104 H   0  0  0  0  0  0  0  0  0  0  0  0
   -0.5102   -0.3728    0.3086 C   0  0  1  0  0  0  0  0  0  0  0  0
    0.0719   -0.7468    1.1521 H   0  0  0  0  0  0  0  0  0  0  0  0
    0.2338   -0.7427   -0.9878 C   0  0  0  0  0  0  0  0  0  0  0  0
    1.2185   -0.2719   -0.9815 H   0  0  0  0  0  0  0  0  0  0  0  0
    0.3791   -1.8241   -1.0183 H   0  0  0  0  0  0  0  0  0  0  0  0
   -0.4904   -0.3223   -2.2404 C   0  0  0  0  0  0  0  0  0  0  0  0
   -1.7487   -0.7280   -2.6304 N   0  0  0  0  0  0  0  0  0  0  0  0
   -2.3207   -1.4191   -2.1685 H   0  0  0  0  0  0  0  0  0  0  0  0
   -2.0804   -0.0453   -3.7391 C   0  0  0  0  0  0  0  0  0  0  0  0
   -3.0100   -0.1513   -4.2849 H   0  0  0  0  0  0  0  0  0  0  0  0
   -1.0936    0.7968   -4.0787 N   0  0  0  0  0  0  0  0  0  0  0  0
   -0.0760    0.6269   -3.1363 C   0  0  0  0  0  0  0  0  0  0  0  0
    0.8575    1.1733   -3.0984 H   0  0  0  0  0  0  0  0  0  0  0  0
   -0.6600    1.1486    0.4782 C   0  0  0  0  0  0  0  0  0  0  0  0
   -1.5001    1.7648   -0.1771 O   0  0  0  0  0  0  0  0  0  0  0  0
    0.1634    1.7559    1.3418 N   0  0  0  0  0  0  0  0  0  0  0  0
    0.8618    1.1897    1.8008 H   0  0  0  0  0  0  0  0  0  0  0  0
    0.1509    3.1886    1.6256 C   0  0  0  0  0  0  0  0  0  0  0  0
   -0.8272    3.4794    2.0152 H   0  0  0  0  0  0  0  0  0  0  0  0
    0.9172    3.4314    2.3624 H   0  0  0  0  0  0  0  0  0  0  0  0
    0.3414    3.7499    0.7095 H   0  0  0  0  0  0  0  0  0  0  0  0
  5  6  2  0  0  0  0
  5  7  1  0  0  0  0
  2  3  1  0  0  0  0
  2  4  1  0  0  0  0
  2  5  1  0  0  0  0
  1  2  1  0  0  0  0
 22 23  2  0  0  0  0
 22 24  1  0  0  0  0
 20 21  1  0  0  0  0
 19 20  1  0  0  0  0
 17 18  1  0  0  0  0
 17 19  2  0  0  0  0
 15 16  1  0  0  0  0
 15 17  1  0  0  0  0
 14 15  1  0  0  0  0
 14 20  2  0  0  0  0
 11 12  1  0  0  0  0
 11 13  1  0  0  0  0
 11 14  1  0  0  0  0
  9 10  1  0  0  0  0
  9 11  1  0  0  0  0
  9 22  1  0  0  0  0
  7  8  1  0  0  0  0
  7  9  1  0  0  0  0
 26 27  1  0  0  0  0
 26 28  1  0  0  0  0
 26 29  1  0  0  0  0
 24 25  1  0  0  0  0
 24 26  1  0  0  0  0
M  END
$$$$
default_name
  -OEChem-02102213163D

 29 29  0     1  0  0  0  0  0999 V2000
   -3.6042   -3.5728    1.4576 H   0  0  0  0  0  0  0  0  0  0  0  0
   -3.5202   -2.6488    0.8866 C   0  0  0  0  0  0  0  0  0  0  0  0
   -4.2052   -1.9048    1.2896 H   0  0  0  0  0  0  0  0  0  0  0  0
   -3.7552   -2.8428   -0.1584 H   0  0  0  0  0  0  0  0  0  0  0  0
   -2.1052   -2.1358    0.9946 C   0  0  0  0  0  0  0  0  0  0  0  0
   -1.2852   -2.7288    1.6826 O   0  0  0  0  0  0  0  0  0  0  0  0
   -1.8202   -1.0288    0.3146 N   0  0  0  0  0  0  0  0  0  0  0  0
   -2.5542   -0.5788   -0.2104 H   0  0  0  0  0  0  0  0  0  0  0  0
   -0.5102   -0.3728    0.3086 C   0  0  1  0  0  0  0  0  0  0  0  0
    0.0719   -0.7468    1.1521 H   0  0  0  0  0  0  0  0  0  0  0  0
    0.2338   -0.7427   -0.9878 C   0  0  0  0  0  0  0  0  0  0  0  0
    1.2185   -0.2719   -0.9815 H   0  0  0  0  0  0  0  0  0  0  0  0
    0.3791   -1.8241   -1.0183 H   0  0  0  0  0  0  0  0  0  0  0  0
   -0.4904   -0.3223   -2.2404 C   0  0  0  0  0  0  0  0  0  0  0  0
   -1.8347   -0.4842   -2.4989 N   0  0  0  0  0  0  0  0  0  0  0  0
   -2.4976   -0.9741   -1.9169 H   0  0  0  0  0  0  0  0  0  0  0  0
   -2.1091    0.1207   -3.6668 C   0  0  0  0  0  0  0  0  0  0  0  0
   -3.0835    0.1588   -4.1383 H   0  0  0  0  0  0  0  0  0  0  0  0
   -0.9999    0.6800   -4.1721 N   0  0  0  0  0  0  0  0  0  0  0  0
    0.0361    0.4017   -3.2767 C   0  0  0  0  0  0  0  0  0  0  0  0
    1.0635    0.7302   -3.3662 H   0  0  0  0  0  0  0  0  0  0  0  0
   -0.6600    1.1486    0.4782 C   0  0  0  0  0  0  0  0  0  0  0  0
   -1.5001    1.7648   -0.1771 O   0  0  0  0  0  0  0  0  0  0  0  0
    0.1634    1.7559    1.3418 N   0  0  0  0  0  0  0  0  0  0  0  0
    0.8618    1.1897    1.8008 H   0  0  0  0  0  0  0  0  0  0  0  0
    0.1509    3.1886    1.6256 C   0  0  0  0  0  0  0  0  0  0  0  0
   -0.8272    3.4794    2.0152 H   0  0  0  0  0  0  0  0  0  0  0  0
    0.9172    3.4314    2.3624 H   0  0  0  0  0  0  0  0  0  0  0  0
    0.3414    3.7499    0.7095 H   0  0  0  0  0  0  0  0  0  0  0  0
  5  6  2  0  0  0  0
  5  7  1  0  0  0  0
  2  3  1  0  0  0  0
  2  4  1  0  0  0  0
  2  5  1  0  0  0  0
  1  2  1  0  0  0  0
 22 23  2  0  0  0  0
 22 24  1  0  0  0  0
 20 21  1  0  0  0  0
 19 20  1  0  0  0  0
 17 18  1  0  0  0  0
 17 19  2  0  0  0  0
 15 16  1  0  0  0  0
 15 17  1  0  0  0  0
 14 15  1  0  0  0  0
 14 20  2  0  0  0  0
 11 12  1  0  0  0  0
 11 13  1  0  0  0  0
 11 14  1  0  0  0  0
  9 10  1  0  0  0  0
  9 11  1  0  0  0  0
  9 22  1  0  0  0  0
  7  8  1  0  0  0  0
  7  9  1  0  0  0  0
 26 27  1  0  0  0  0
 26 28  1  0  0  0  0
 26 29  1  0  0  0  0
 24 25  1  0  0  0  0
 24 26  1  0  0  0  0
M  END
$$$$
default_name
  -OEChem-02102213163D

 29 29  0     1  0  0  0  0  0999 V2000
   -3.6042   -3.5728    1.4576 H   0  0  0  0  0  0  0  0  0  0  0  0
   -3.5202   -2.6488    0.8866 C   0  0  0  0  0  0  0  0  0  0  0  0
   -4.2052   -1.9048    1.2896 H   0  0  0  0  0  0  0  0  0  0  0  0
   -3.7552   -2.8428   -0.1584 H   0  0  0  0  0  0  0  0  0  0  0  0
   -2.1052   -2.1358    0.9946 C   0  0  0  0  0  0  0  0  0  0  0  0
   -1.2852   -2.7288    1.6826 O   0  0  0  0  0  0  0  0  0  0  0  0
   -1.8202   -1.0288    0.3146 N   0  0  0  0  0  0  0  0  0  0  0  0
   -2.5542   -0.5788   -0.2104 H   0  0  0  0  0  0  0  0  0  0  0  0
   -0.5102   -0.3728    0.3086 C   0  0  1  0  0  0  0  0  0  0  0  0
    0.0719   -0.7468    1.1521 H   0  0  0  0  0  0  0  0  0  0  0  0
    0.2338   -0.7427   -0.9878 C   0  0  0  0  0  0  0  0  0  0  0  0
    1.2185   -0.2719   -0.9815 H   0  0  0  0  0  0  0  0  0  0  0  0
    0.3791   -1.8241   -1.0183 H   0  0  0  0  0  0  0  0  0  0  0  0
   -0.4904   -0.3223   -2.2404 C   0  0  0  0  0  0  0  0  0  0  0  0
   -1.8557   -0.2138   -2.3959 N   0  0  0  0  0  0  0  0  0  0  0  0
   -2.5545   -0.4749   -1.7164 H   0  0  0  0  0  0  0  0  0  0  0  0
   -2.0958    0.2963   -3.6155 C   0  0  0  0  0  0  0  0  0  0  0  0
   -3.0772    0.4924   -4.0300 H   0  0  0  0  0  0  0  0  0  0  0  0
   -0.9413    0.5354   -4.2545 N   0  0  0  0  0  0  0  0  0  0  0  0
    0.0859    0.1425   -3.3925 C   0  0  0  0  0  0  0  0  0  0  0  0
    1.1478    0.2245   -3.5847 H   0  0  0  0  0  0  0  0  0  0  0  0
   -0.6600    1.1486    0.4782 C   0  0  0  0  0  0  0  0  0  0  0  0
   -1.5001    1.7648   -0.1771 O   0  0  0  0  0  0  0  0  0  0  0  0
    0.1634    1.7559    1.3418 N   0  0  0  0  0  0  0  0  0  0  0  0
    0.8618    1.1897    1.8008 H   0  0  0  0  0  0  0  0  0  0  0  0
    0.1509    3.1886    1.6256 C   0  0  0  0  0  0  0  0  0  0  0  0
   -0.8272    3.4794    2.0152 H   0  0  0  0  0  0  0  0  0  0  0  0
    0.9172    3.4314    2.3624 H   0  0  0  0  0  0  0  0  0  0  0  0
    0.3414    3.7499    0.7095 H   0  0  0  0  0  0  0  0  0  0  0  0
  5  6  2  0  0  0  0
  5  7  1  0  0  0  0
  2  3  1  0  0  0  0
  2  4  1  0  0  0  0
  2  5  1  0  0  0  0
  1  2  1  0  0  0  0
 22 23  2  0  0  0  0
 22 24  1  0  0  0  0
 20 21  1  0  0  0  0
 19 20  1  0  0  0  0
 17 18  1  0  0  0  0
 17 19  2  0  0  0  0
 15 16  1  0  0  0  0
 15 17  1  0  0  0  0
 14 15  1  0  0  0  0
 14 20  2  0  0  0  0
 11 12  1  0  0  0  0
 11 13  1  0  0  0  0
 11 14  1  0  0  0  0
  9 10  1  0  0  0  0
  9 11  1  0  0  0  0
  9 22  1  0  0  0  0
  7  8  1  0  0  0  0
  7  9  1  0  0  0  0
 26 27  1  0  0  0  0
 26 28  1  0  0  0  0
 26 29  1  0  0  0  0
 24 25  1  0  0  0  0
 24 26  1  0  0  0  0
M  END
$$$$
default_name
  -OEChem-02102213163D

 29 29  0     1  0  0  0  0  0999 V2000
   -3.6042   -3.5728    1.4576 H   0  0  0  0  0  0  0  0  0  0  0  0
   -3.5202   -2.6488    0.8866 C   0  0  0  0  0  0  0  0  0  0  0  0
   -4.2052   -1.9048    1.2896 H   0  0  0  0  0  0  0  0  0  0  0  0
   -3.7552   -2.8428   -0.1584 H   0  0  0  0  0  0  0  0  0  0  0  0
   -2.1052   -2.1358    0.9946 C   0  0  0  0  0  0  0  0  0  0  0  0
   -1.2852   -2.7288    1.6826 O   0  0  0  0  0  0  0  0  0  0  0  0
   -1.8202   -1.0288    0.3146 N   0  0  0  0  0  0  0  0  0  0  0  0
   -2.5542   -0.5788   -0.2104 H   0  0  0  0  0  0  0  0  0  0  0  0
   -0.5102   -0.3728    0.3086 C   0  0  1  0  0  0  0  0  0  0  0  0
    0.0719   -0.7468    1.1521 H   0  0  0  0  0  0  0  0  0  0  0  0
    0.2338   -0.7427   -0.9878 C   0  0  0  0  0  0  0  0  0  0  0  0
    1.2185   -0.2719   -0.9815 H   0  0  0  0  0  0  0  0  0  0  0  0
    0.3791   -1.8241   -1.0183 H   0  0  0  0  0  0  0  0  0  0  0  0
   -0.4904   -0.3223   -2.2404 C   0  0  0  0  0  0  0  0  0  0  0  0
   -1.8105    0.0647   -2.3286 N   0  0  0  0  0  0  0  0  0  0  0  0
   -2.4876    0.0445   -1.5808 H   0  0  0  0  0  0  0  0  0  0  0  0
   -2.0415    0.4695   -3.5888 C   0  0  0  0  0  0  0  0  0  0  0  0
   -2.9914    0.8267   -3.9674 H   0  0  0  0  0  0  0  0  0  0  0  0
   -0.9217    0.3729   -4.3203 N   0  0  0  0  0  0  0  0  0  0  0  0
    0.0697   -0.1329   -3.4756 C   0  0  0  0  0  0  0  0  0  0  0  0
    1.1047   -0.3093   -3.7389 H   0  0  0  0  0  0  0  0  0  0  0  0
   -0.6600    1.1486    0.4782 C   0  0  0  0  0  0  0  0  0  0  0  0
   -1.5001    1.7648   -0.1771 O   0  0  0  0  0  0  0  0  0  0  0  0
    0.1634    1.7559    1.3418 N   0  0  0  0  0  0  0  0  0  0  0  0
    0.8618    1.1897    1.8008 H   0  0  0  0  0  0  0  0  0  0  0  0
    0.1509    3.1886    1.6256 C   0  0  0  0  0  0  0  0  0  0  0  0
   -0.8272    3.4794    2.0152 H   0  0  0  0  0  0  0  0  0  0  0  0
    0.9172    3.4314    2.3624 H   0  0  0  0  0  0  0  0  0  0  0  0
    0.3414    3.7499    0.7095 H   0  0  0  0  0  0  0  0  0  0  0  0
  5  6  2  0  0  0  0
  5  7  1  0  0  0  0
  2  3  1  0  0  0  0
  2  4  1  0  0  0  0
  2  5  1  0  0  0  0
  1  2  1  0  0  0  0
 22 23  2  0  0  0  0
 22 24  1  0  0  0  0
 20 21  1  0  0  0  0
 19 20  1  0  0  0  0
 17 18  1  0  0  0  0
 17 19  2  0  0  0  0
 15 16  1  0  0  0  0
 15 17  1  0  0  0  0
 14 15  1  0  0  0  0
 14 20  2  0  0  0  0
 11 12  1  0  0  0  0
 11 13  1  0  0  0  0
 11 14  1  0  0  0  0
  9 10  1  0  0  0  0
  9 11  1  0  0  0  0
  9 22  1  0  0  0  0
  7  8  1  0  0  0  0
  7  9  1  0  0  0  0
 26 27  1  0  0  0  0
 26 28  1  0  0  0  0
 26 29  1  0  0  0  0
 24 25  1  0  0  0  0
 24 26  1  0  0  0  0
M  END
$$$$
default_name
  -OEChem-02102213163D

 29 29  0     1  0  0  0  0  0999 V2000
   -3.6042   -3.5728    1.4576 H   0  0  0  0  0  0  0  0  0  0  0  0
   -3.5202   -2.6488    0.8866 C   0  0  0  0  0  0  0  0  0  0  0  0
   -4.2052   -1.9048    1.2896 H   0  0  0  0  0  0  0  0  0  0  0  0
   -3.7552   -2.8428   -0.1584 H   0  0  0  0  0  0  0  0  0  0  0  0
   -2.1052   -2.1358    0.9946 C   0  0  0  0  0  0  0  0  0  0  0  0
   -1.2852   -2.7288    1.6826 O   0  0  0  0  0  0  0  0  0  0  0  0
   -1.8202   -1.0288    0.3146 N   0  0  0  0  0  0  0  0  0  0  0  0
   -2.5542   -0.5788   -0.2104 H   0  0  0  0  0  0  0  0  0  0  0  0
   -0.5102   -0.3728    0.3086 C   0  0  1  0  0  0  0  0  0  0  0  0
    0.0719   -0.7468    1.1521 H   0  0  0  0  0  0  0  0  0  0  0  0
    0.2338   -0.7427   -0.9878 C   0  0  0  0  0  0  0  0  0  0  0  0
    1.2185   -0.2719   -0.9815 H   0  0  0  0  0  0  0  0  0  0  0  0
    0.3791   -1.8241   -1.0183 H   0  0  0  0  0  0  0  0  0  0  0  0
   -0.4904   -0.3223   -2.2404 C   0  0  0  0  0  0  0  0  0  0  0  0
   -1.7020    0.3323   -2.3015 N   0  0  0  0  0  0  0  0  0  0  0  0
   -2.3014    0.5487   -1.5192 H   0  0  0  0  0  0  0  0  0  0  0  0
   -1.9499    0.6283   -3.5885 C   0  0  0  0  0  0  0  0  0  0  0  0
   -2.8322    1.1390   -3.9546 H   0  0  0  0  0  0  0  0  0  0  0  0
   -0.9426    0.2036   -4.3651 N   0  0  0  0  0  0  0  0  0  0  0  0
   -0.0111   -0.4059   -3.5205 C   0  0  0  0  0  0  0  0  0  0  0  0
    0.9370   -0.8347   -3.8183 H   0  0  0  0  0  0  0  0  0  0  0  0
   -0.6600    1.1486    0.4782 C   0  0  0  0  0  0  0  0  0  0  0  0
   -1.5001    1.7648   -0.1771 O   0  0  0  0  0  0  0  0  0  0  0  0
    0.1634    1.7559    1.3418 N   0  0  0  0  0  0  0  0  0  0  0  0
    0.8618    1.1897    1.8008 H   0  0  0  0  0  0  0  0  0  0  0  0
    0.1509    3.1886    1.6256 C   0  0  0  0  0  0  0  0  0  0  0  0
   -0.8272    3.4794    2.0152 H   0  0  0  0  0  0  0  0  0  0  0  0
    0.9172    3.4314    2.3624 H   0  0  0  0  0  0  0  0  0  0  0  0
    0.3414    3.7499    0.7095 H   0  0  0  0  0  0  0  0  0  0  0  0
  5  6  2  0  0  0  0
  5  7  1  0  0  0  0
  2  3  1  0  0  0  0
  2  4  1  0  0  0  0
  2  5  1  0  0  0  0
  1  2  1  0  0  0  0
 22 23  2  0  0  0  0
 22 24  1  0  0  0  0
 20 21  1  0  0  0  0
 19 20  1  0  0  0  0
 17 18  1  0  0  0  0
 17 19  2  0  0  0  0
 15 16  1  0  0  0  0
 15 17  1  0  0  0  0
 14 15  1  0  0  0  0
 14 20  2  0  0  0  0
 11 12  1  0  0  0  0
 11 13  1  0  0  0  0
 11 14  1  0  0  0  0
  9 10  1  0  0  0  0
  9 11  1  0  0  0  0
  9 22  1  0  0  0  0
  7  8  1  0  0  0  0
  7  9  1  0  0  0  0
 26 27  1  0  0  0  0
 26 28  1  0  0  0  0
 26 29  1  0  0  0  0
 24 25  1  0  0  0  0
 24 26  1  0  0  0  0
M  END
$$$$
default_name
  -OEChem-02102213163D

 29 29  0     1  0  0  0  0  0999 V2000
   -3.6042   -3.5728    1.4576 H   0  0  0  0  0  0  0  0  0  0  0  0
   -3.5202   -2.6488    0.8866 C   0  0  0  0  0  0  0  0  0  0  0  0
   -4.2052   -1.9048    1.2896 H   0  0  0  0  0  0  0  0  0  0  0  0
   -3.7552   -2.8428   -0.1584 H   0  0  0  0  0  0  0  0  0  0  0  0
   -2.1052   -2.1358    0.9946 C   0  0  0  0  0  0  0  0  0  0  0  0
   -1.2852   -2.7288    1.6826 O   0  0  0  0  0  0  0  0  0  0  0  0
   -1.8202   -1.0288    0.3146 N   0  0  0  0  0  0  0  0  0  0  0  0
   -2.5542   -0.5788   -0.2104 H   0  0  0  0  0  0  0  0  0  0  0  0
   -0.5102   -0.3728    0.3086 C   0  0  1  0  0  0  0  0  0  0  0  0
    0.0719   -0.7468    1.1521 H   0  0  0  0  0  0  0  0  0  0  0  0
    0.2338   -0.7427   -0.9878 C   0  0  0  0  0  0  0  0  0  0  0  0
    1.2185   -0.2719   -0.9815 H   0  0  0  0  0  0  0  0  0  0  0  0
    0.3791   -1.8241   -1.0183 H   0  0  0  0  0  0  0  0  0  0  0  0
   -0.4904   -0.3223   -2.2404 C   0  0  0  0  0  0  0  0  0  0  0  0
   -1.5376    0.5708   -2.3165 N   0  0  0  0  0  0  0  0  0  0  0  0
   -2.0086    1.0033   -1.5359 H   0  0  0  0  0  0  0  0  0  0  0  0
   -1.8272    0.7621   -3.6145 C   0  0  0  0  0  0  0  0  0  0  0  0
   -2.6102    1.4079   -3.9927 H   0  0  0  0  0  0  0  0  0  0  0  0
   -1.0024    0.0389   -4.3858 N   0  0  0  0  0  0  0  0  0  0  0  0
   -0.1511   -0.6577   -3.5241 C   0  0  0  0  0  0  0  0  0  0  0  0
    0.6562   -1.3161   -3.8176 H   0  0  0  0  0  0  0  0  0  0  0  0
   -0.6600    1.1486    0.4782 C   0  0  0  0  0  0  0  0  0  0  0  0
   -1.5001    1.7648   -0.1771 O   0  0  0  0  0  0  0  0  0  0  0  0
    0.1634    1.7559    1.3418 N   0  0  0  0  0  0  0  0  0  0  0  0
    0.8618    1.1897    1.8008 H   0  0  0  0  0  0  0  0  0  0  0  0
    0.1509    3.1886    1.6256 C   0  0  0  0  0  0  0  0  0  0  0  0
   -0.8272    3.4794    2.0152 H   0  0  0  0  0  0  0  0  0  0  0  0
    0.9172    3.4314    2.3624 H   0  0  0  0  0  0  0  0  0  0  0  0
    0.3414    3.7499    0.7095 H   0  0  0  0  0  0  0  0  0  0  0  0
  5  6  2  0  0  0  0
  5  7  1  0  0  0  0
  2  3  1  0  0  0  0
  2  4  1  0  0  0  0
  2  5  1  0  0  0  0
  1  2  1  0  0  0  0
 22 23  2  0  0  0  0
 22 24  1  0  0  0  0
 20 21  1  0  0  0  0
 19 20  1  0  0  0  0
 17 18  1  0  0  0  0
 17 19  2  0  0  0  0
 15 16  1  0  0  0  0
 15 17  1  0  0  0  0
 14 15  1  0  0  0  0
 14 20  2  0  0  0  0
 11 12  1  0  0  0  0
 11 13  1  0  0  0  0
 11 14  1  0  0  0  0
  9 10  1  0  0  0  0
  9 11  1  0  0  0  0
  9 22  1  0  0  0  0
  7  8  1  0  0  0  0
  7  9  1  0  0  0  0
 26 27  1  0  0  0  0
 26 28  1  0  0  0  0
 26 29  1  0  0  0  0
 24 25  1  0  0  0  0
 24 26  1  0  0  0  0
M  END
$$$$
default_name
  -OEChem-02102213163D

 29 29  0     1  0  0  0  0  0999 V2000
   -3.6042   -3.5728    1.4576 H   0  0  0  0  0  0  0  0  0  0  0  0
   -3.5202   -2.6488    0.8866 C   0  0  0  0  0  0  0  0  0  0  0  0
   -4.2052   -1.9048    1.2896 H   0  0  0  0  0  0  0  0  0  0  0  0
   -3.7552   -2.8428   -0.1584 H   0  0  0  0  0  0  0  0  0  0  0  0
   -2.1052   -2.1358    0.9946 C   0  0  0  0  0  0  0  0  0  0  0  0
   -1.2852   -2.7288    1.6826 O   0  0  0  0  0  0  0  0  0  0  0  0
   -1.8202   -1.0288    0.3146 N   0  0  0  0  0  0  0  0  0  0  0  0
   -2.5542   -0.5788   -0.2104 H   0  0  0  0  0  0  0  0  0  0  0  0
   -0.5102   -0.3728    0.3086 C   0  0  1  0  0  0  0  0  0  0  0  0
    0.0719   -0.7468    1.1521 H   0  0  0  0  0  0  0  0  0  0  0  0
    0.2338   -0.7427   -0.9878 C   0  0  0  0  0  0  0  0  0  0  0  0
    1.2185   -0.2719   -0.9815 H   0  0  0  0  0  0  0  0  0  0  0  0
    0.3791   -1.8241   -1.0183 H   0  0  0  0  0  0  0  0  0  0  0  0
   -0.4904   -0.3223   -2.2404 C   0  0  0  0  0  0  0  0  0  0  0  0
   -1.3286    0.7640   -2.3725 N   0  0  0  0  0  0  0  0  0  0  0  0
   -1.6292    1.3773   -1.6297 H   0  0  0  0  0  0  0  0  0  0  0  0
   -1.6817    0.8617   -3.6652 C   0  0  0  0  0  0  0  0  0  0  0  0
   -2.3407    1.6152   -4.0789 H   0  0  0  0  0  0  0  0  0  0  0  0
   -1.0971   -0.1099   -4.3810 N   0  0  0  0  0  0  0  0  0  0  0  0
   -0.3408   -0.8712   -3.4861 C   0  0  0  0  0  0  0  0  0  0  0  0
    0.2815   -1.7205   -3.7367 H   0  0  0  0  0  0  0  0  0  0  0  0
   -0.6600    1.1486    0.4782 C   0  0  0  0  0  0  0  0  0  0  0  0
   -1.5001    1.7648   -0.1771 O   0  0  0  0  0  0  0  0  0  0  0  0
    0.1634    1.7559    1.3418 N   0  0  0  0  0  0  0  0  0  0  0  0
    0.8618    1.1897    1.8008 H   0  0  0  0  0  0  0  0  0  0  0  0
    0.1509    3.1886    1.6256 C   0  0  0  0  0  0  0  0  0  0  0  0
   -0.8272    3.4794    2.0152 H   0  0  0  0  0  0  0  0  0  0  0  0
    0.9172    3.4314    2.3624 H   0  0  0  0  0  0  0  0  0  0  0  0
    0.3414    3.7499    0.7095 H   0  0  0  0  0  0  0  0  0  0  0  0
  5  6  2  0  0  0  0
  5  7  1  0  0  0  0
  2  3  1  0  0  0  0
  2  4  1  0  0  0  0
  2  5  1  0  0  0  0
  1  2  1  0  0  0  0
 22 23  2  0  0  0  0
 22 24  1  0  0  0  0
 20 21  1  0  0  0  0
 19 20  1  0  0  0  0
 17 18  1  0  0  0  0
 17 19  2  0  0  0  0
 15 16  1  0  0  0  0
 15 17  1  0  0  0  0
 14 15  1  0  0  0  0
 14 20  2  0  0  0  0
 11 12  1  0  0  0  0
 11 13  1  0  0  0  0
 11 14  1  0  0  0  0
  9 10  1  0  0  0  0
  9 11  1  0  0  0  0
  9 22  1  0  0  0  0
  7  8  1  0  0  0  0
  7  9  1  0  0  0  0
 26 27  1  0  0  0  0
 26 28  1  0  0  0  0
 26 29  1  0  0  0  0
 24 25  1  0  0  0  0
 24 26  1  0  0  0  0
M  END
$$$$
default_name
  -OEChem-02102213163D

 29 29  0     1  0  0  0  0  0999 V2000
   -3.6042   -3.5728    1.4576 H   0  0  0  0  0  0  0  0  0  0  0  0
   -3.5202   -2.6488    0.8866 C   0  0  0  0  0  0  0  0  0  0  0  0
   -4.2052   -1.9048    1.2896 H   0  0  0  0  0  0  0  0  0  0  0  0
   -3.7552   -2.8428   -0.1584 H   0  0  0  0  0  0  0  0  0  0  0  0
   -2.1052   -2.1358    0.9946 C   0  0  0  0  0  0  0  0  0  0  0  0
   -1.2852   -2.7288    1.6826 O   0  0  0  0  0  0  0  0  0  0  0  0
   -1.8202   -1.0288    0.3146 N   0  0  0  0  0  0  0  0  0  0  0  0
   -2.5542   -0.5788   -0.2104 H   0  0  0  0  0  0  0  0  0  0  0  0
   -0.5102   -0.3728    0.3086 C   0  0  1  0  0  0  0  0  0  0  0  0
    0.0719   -0.7468    1.1521 H   0  0  0  0  0  0  0  0  0  0  0  0
    0.2338   -0.7427   -0.9878 C   0  0  0  0  0  0  0  0  0  0  0  0
    1.2185   -0.2719   -0.9815 H   0  0  0  0  0  0  0  0  0  0  0  0
    0.3791   -1.8241   -1.0183 H   0  0  0  0  0  0  0  0  0  0  0  0
   -0.4904   -0.3223   -2.2404 C   0  0  0  0  0  0  0  0  0  0  0  0
   -1.0892    0.8987   -2.4657 N   0  0  0  0  0  0  0  0  0  0  0  0
   -1.1890    1.6453   -1.7943 H   0  0  0  0  0  0  0  0  0  0  0  0
   -1.5235    0.9203   -3.7370 C   0  0  0  0  0  0  0  0  0  0  0  0
   -2.0420    1.7467   -4.2075 H   0  0  0  0  0  0  0  0  0  0  0  0
   -1.2202   -0.2327   -4.3511 N   0  0  0  0  0  0  0  0  0  0  0  0
   -0.5673   -1.0320   -3.4091 C   0  0  0  0  0  0  0  0  0  0  0  0
   -0.1616   -2.0205   -3.5812 H   0  0  0  0  0  0  0  0  0  0  0  0
   -0.6600    1.1486    0.4782 C   0  0  0  0  0  0  0  0  0  0  0  0
   -1.5001    1.7648   -0.1771 O   0  0  0  0  0  0  0  0  0  0  0  0
    0.1634    1.7559    1.3418 N   0  0  0  0  0  0  0  0  0  0  0  0
    0.8618    1.1897    1.8008 H   0  0  0  0  0  0  0  0  0  0  0  0
    0.1509    3.1886    1.6256 C   0  0  0  0  0  0  0  0  0  0  0  0
   -0.8272    3.4794    2.0152 H   0  0  0  0  0  0  0  0  0  0  0  0
    0.9172    3.4314    2.3624 H   0  0  0  0  0  0  0  0  0  0  0  0
    0.3414    3.7499    0.7095 H   0  0  0  0  0  0  0  0  0  0  0  0
  5  6  2  0  0  0  0
  5  7  1  0  0  0  0
  2  3  1  0  0  0  0
  2  4  1  0  0  0  0
  2  5  1  0  0  0  0
  1  2  1  0  0  0  0
 22 23  2  0  0  0  0
 22 24  1  0  0  0  0
 20 21  1  0  0  0  0
 19 20  1  0  0  0  0
 17 18  1  0  0  0  0
 17 19  2  0  0  0  0
 15 16  1  0  0  0  0
 15 17  1  0  0  0  0
 14 15  1  0  0  0  0
 14 20  2  0  0  0  0
 11 12  1  0  0  0  0
 11 13  1  0  0  0  0
 11 14  1  0  0  0  0
  9 10  1  0  0  0  0
  9 11  1  0  0  0  0
  9 22  1  0  0  0  0
  7  8  1  0  0  0  0
  7  9  1  0  0  0  0
 26 27  1  0  0  0  0
 26 28  1  0  0  0  0
 26 29  1  0  0  0  0
 24 25  1  0  0  0  0
 24 26  1  0  0  0  0
M  END
$$$$
default_name
  -OEChem-02102213163D

 29 29  0     1  0  0  0  0  0999 V2000
   -3.6042   -3.5728    1.4576 H   0  0  0  0  0  0  0  0  0  0  0  0
   -3.5202   -2.6488    0.8866 C   0  0  0  0  0  0  0  0  0  0  0  0
   -4.2052   -1.9048    1.2896 H   0  0  0  0  0  0  0  0  0  0  0  0
   -3.7552   -2.8428   -0.1584 H   0  0  0  0  0  0  0  0  0  0  0  0
   -2.1052   -2.1358    0.9946 C   0  0  0  0  0  0  0  0  0  0  0  0
   -1.2852   -2.7288    1.6826 O   0  0  0  0  0  0  0  0  0  0  0  0
   -1.8202   -1.0288    0.3146 N   0  0  0  0  0  0  0  0  0  0  0  0
   -2.5542   -0.5788   -0.2104 H   0  0  0  0  0  0  0  0  0  0  0  0
   -0.5102   -0.3728    0.3086 C   0  0  1  0  0  0  0  0  0  0  0  0
    0.0719   -0.7468    1.1521 H   0  0  0  0  0  0  0  0  0  0  0  0
    0.2338   -0.7427   -0.9878 C   0  0  0  0  0  0  0  0  0  0  0  0
    1.2185   -0.2719   -0.9815 H   0  0  0  0  0  0  0  0  0  0  0  0
    0.3791   -1.8241   -1.0183 H   0  0  0  0  0  0  0  0  0  0  0  0
   -0.4904   -0.3223   -2.2404 C   0  0  0  0  0  0  0  0  0  0  0  0
   -0.8358    0.9657   -2.5897 N   0  0  0  0  0  0  0  0  0  0  0  0
   -0.7181    1.7889   -2.0183 H   0  0  0  0  0  0  0  0  0  0  0  0
   -1.3632    0.9339   -3.8251 C   0  0  0  0  0  0  0  0  0  0  0  0
   -1.7345    1.7935   -4.3696 H   0  0  0  0  0  0  0  0  0  0  0  0
   -1.3634   -0.3210   -4.2979 N   0  0  0  0  0  0  0  0  0  0  0  0
   -0.8150   -1.1289   -3.2984 C   0  0  0  0  0  0  0  0  0  0  0  0
   -0.6430   -2.1956   -3.3616 H   0  0  0  0  0  0  0  0  0  0  0  0
   -0.6600    1.1486    0.4782 C   0  0  0  0  0  0  0  0  0  0  0  0
   -1.5001    1.7648   -0.1771 O   0  0  0  0  0  0  0  0  0  0  0  0
    0.1634    1.7559    1.3418 N   0  0  0  0  0  0  0  0  0  0  0  0
    0.8618    1.1897    1.8008 H   0  0  0  0  0  0  0  0  0  0  0  0
    0.1509    3.1886    1.6256 C   0  0  0  0  0  0  0  0  0  0  0  0
   -0.8272    3.4794    2.0152 H   0  0  0  0  0  0  0  0  0  0  0  0
    0.9172    3.4314    2.3624 H   0  0  0  0  0  0  0  0  0  0  0  0
    0.3414    3.7499    0.7095 H   0  0  0  0  0  0  0  0  0  0  0  0
  5  6  2  0  0  0  0
  5  7  1  0  0  0  0
  2  3  1  0  0  0  0
  2  4  1  0  0  0  0
  2  5  1  0  0  0  0
  1  2  1  0  0  0  0
 22 23  2  0  0  0  0
 22 24  1  0  0  0  0
 20 21  1  0  0  0  0
 19 20  1  0  0  0  0
 17 18  1  0  0  0  0
 17 19  2  0  0  0  0
 15 16  1  0  0  0  0
 15 17  1  0  0  0  0
 14 15  1  0  0  0  0
 14 20  2  0  0  0  0
 11 12  1  0  0  0  0
 11 13  1  0  0  0  0
 11 14  1  0  0  0  0
  9 10  1  0  0  0  0
  9 11  1  0  0  0  0
  9 22  1  0  0  0  0
  7  8  1  0  0  0  0
  7  9  1  0  0  0  0
 26 27  1  0  0  0  0
 26 28  1  0  0  0  0
 26 29  1  0  0  0  0
 24 25  1  0  0  0  0
 24 26  1  0  0  0  0
M  END
$$$$
default_name
  -OEChem-02102213163D

 29 29  0     1  0  0  0  0  0999 V2000
   -3.6042   -3.5728    1.4576 H   0  0  0  0  0  0  0  0  0  0  0  0
   -3.5202   -2.6488    0.8866 C   0  0  0  0  0  0  0  0  0  0  0  0
   -4.2052   -1.9048    1.2896 H   0  0  0  0  0  0  0  0  0  0  0  0
   -3.7552   -2.8428   -0.1584 H   0  0  0  0  0  0  0  0  0  0  0  0
   -2.1052   -2.1358    0.9946 C   0  0  0  0  0  0  0  0  0  0  0  0
   -1.2852   -2.7288    1.6826 O   0  0  0  0  0  0  0  0  0  0  0  0
   -1.8202   -1.0288    0.3146 N   0  0  0  0  0  0  0  0  0  0  0  0
   -2.5542   -0.5788   -0.2104 H   0  0  0  0  0  0  0  0  0  0  0  0
   -0.5102   -0.3728    0.3086 C   0  0  1  0  0  0  0  0  0  0  0  0
    0.0719   -0.7468    1.1521 H   0  0  0  0  0  0  0  0  0  0  0  0
    0.2338   -0.7427   -0.9878 C   0  0  0  0  0  0  0  0  0  0  0  0
    1.2185   -0.2719   -0.9815 H   0  0  0  0  0  0  0  0  0  0  0  0
    0.3791   -1.8241   -1.0183 H   0  0  0  0  0  0  0  0  0  0  0  0
   -0.4904   -0.3223   -2.2404 C   0  0  0  0  0  0  0  0  0  0  0  0
   -0.5855    0.9604   -2.7362 N   0  0  0  0  0  0  0  0  0  0  0  0
   -0.2484    1.7985   -2.2866 H   0  0  0  0  0  0  0  0  0  0  0  0
   -1.2118    0.9016   -3.9235 C   0  0  0  0  0  0  0  0  0  0  0  0
   -1.4391    1.7524   -4.5542 H   0  0  0  0  0  0  0  0  0  0  0  0
   -1.5168   -0.3689   -4.2253 N   0  0  0  0  0  0  0  0  0  0  0  0
   -1.0672   -1.1555   -3.1615 C   0  0  0  0  0  0  0  0  0  0  0  0
   -1.1297   -2.2338   -3.0930 H   0  0  0  0  0  0  0  0  0  0  0  0
   -0.6600    1.1486    0.4782 C   0  0  0  0  0  0  0  0  0  0  0  0
   -1.5001    1.7648   -0.1771 O   0  0  0  0  0  0  0  0  0  0  0  0
    0.1634    1.7559    1.3418 N   0  0  0  0  0  0  0  0  0  0  0  0
    0.8618    1.1897    1.8008 H   0  0  0  0  0  0  0  0  0  0  0  0
    0.1509    3.1886    1.6256 C   0  0  0  0  0  0  0  0  0  0  0  0
   -0.8272    3.4794    2.0152 H   0  0  0  0  0  0  0  0  0  0  0  0
    0.9172    3.4314    2.3624 H   0  0  0  0  0  0  0  0  0  0  0  0
    0.3414    3.7499    0.7095 H   0  0  0  0  0  0  0  0  0  0  0  0
  5  6  2  0  0  0  0
  5  7  1  0  0  0  0
  2  3  1  0  0  0  0
  2  4  1  0  0  0  0
  2  5  1  0  0  0  0
  1  2  1  0  0  0  0
 22 23  2  0  0  0  0
 22 24  1  0  0  0  0
 20 21  1  0  0  0  0
 19 20  1  0  0  0  0
 17 18  1  0  0  0  0
 17 19  2  0  0  0  0
 15 16  1  0  0  0  0
 15 17  1  0  0  0  0
 14 15  1  0  0  0  0
 14 20  2  0  0  0  0
 11 12  1  0  0  0  0
 11 13  1  0  0  0  0
 11 14  1  0  0  0  0
  9 10  1  0  0  0  0
  9 11  1  0  0  0  0
  9 22  1  0  0  0  0
  7  8  1  0  0  0  0
  7  9  1  0  0  0  0
 26 27  1  0  0  0  0
 26 28  1  0  0  0  0
 26 29  1  0  0  0  0
 24 25  1  0  0  0  0
 24 26  1  0  0  0  0
M  END
$$$$
default_name
  -OEChem-02102213163D

 29 29  0     1  0  0  0  0  0999 V2000
   -3.6042   -3.5728    1.4576 H   0  0  0  0  0  0  0  0  0  0  0  0
   -3.5202   -2.6488    0.8866 C   0  0  0  0  0  0  0  0  0  0  0  0
   -4.2052   -1.9048    1.2896 H   0  0  0  0  0  0  0  0  0  0  0  0
   -3.7552   -2.8428   -0.1584 H   0  0  0  0  0  0  0  0  0  0  0  0
   -2.1052   -2.1358    0.9946 C   0  0  0  0  0  0  0  0  0  0  0  0
   -1.2852   -2.7288    1.6826 O   0  0  0  0  0  0  0  0  0  0  0  0
   -1.8202   -1.0288    0.3146 N   0  0  0  0  0  0  0  0  0  0  0  0
   -2.5542   -0.5788   -0.2104 H   0  0  0  0  0  0  0  0  0  0  0  0
   -0.5102   -0.3728    0.3086 C   0  0  1  0  0  0  0  0  0  0  0  0
    0.0719   -0.7468    1.1521 H   0  0  0  0  0  0  0  0  0  0  0  0
    0.2338   -0.7427   -0.9878 C   0  0  0  0  0  0  0  0  0  0  0  0
    1.2185   -0.2719   -0.9815 H   0  0  0  0  0  0  0  0  0  0  0  0
    0.3791   -1.8241   -1.0183 H   0  0  0  0  0  0  0  0  0  0  0  0
   -0.4904   -0.3223   -2.2404 C   0  0  0  0  0  0  0  0  0  0  0  0
   -0.3554    0.8832   -2.8951 N   0  0  0  0  0  0  0  0  0  0  0  0
    0.1879    1.6733   -2.5809 H   0  0  0  0  0  0  0  0  0  0  0  0
   -1.0797    0.8256   -4.0254 C   0  0  0  0  0  0  0  0  0  0  0  0
   -1.1759    1.6261   -4.7487 H   0  0  0  0  0  0  0  0  0  0  0  0
   -1.6701   -0.3731   -4.1381 N   0  0  0  0  0  0  0  0  0  0  0  0
   -1.3066   -1.1099   -3.0077 C   0  0  0  0  0  0  0  0  0  0  0  0
   -1.5887   -2.1326   -2.7937 H   0  0  0  0  0  0  0  0  0  0  0  0
   -0.6600    1.1486    0.4782 C   0  0  0  0  0  0  0  0  0  0  0  0
   -1.5001    1.7648   -0.1771 O   0  0  0  0  0  0  0  0  0  0  0  0
    0.1634    1.7559    1.3418 N   0  0  0  0  0  0  0  0  0  0  0  0
    0.8618    1.1897    1.8008 H   0  0  0  0  0  0  0  0  0  0  0  0
    0.1509    3.1886    1.6256 C   0  0  0  0  0  0  0  0  0  0  0  0
   -0.8272    3.4794    2.0152 H   0  0  0  0  0  0  0  0  0  0  0  0
    0.9172    3.4314    2.3624 H   0  0  0  0  0  0  0  0  0  0  0  0
    0.3414    3.7499    0.7095 H   0  0  0  0  0  0  0  0  0  0  0  0
  5  6  2  0  0  0  0
  5  7  1  0  0  0  0
  2  3  1  0  0  0  0
  2  4  1  0  0  0  0
  2  5  1  0  0  0  0
  1  2  1  0  0  0  0
 22 23  2  0  0  0  0
 22 24  1  0  0  0  0
 20 21  1  0  0  0  0
 19 20  1  0  0  0  0
 17 18  1  0  0  0  0
 17 19  2  0  0  0  0
 15 16  1  0  0  0  0
 15 17  1  0  0  0  0
 14 15  1  0  0  0  0
 14 20  2  0  0  0  0
 11 12  1  0  0  0  0
 11 13  1  0  0  0  0
 11 14  1  0  0  0  0
  9 10  1  0  0  0  0
  9 11  1  0  0  0  0
  9 22  1  0  0  0  0
  7  8  1  0  0  0  0
  7  9  1  0  0  0  0
 26 27  1  0  0  0  0
 26 28  1  0  0  0  0
 26 29  1  0  0  0  0
 24 25  1  0  0  0  0
 24 26  1  0  0  0  0
M  END
$$$$
default_name
  -OEChem-02102213163D

 29 29  0     1  0  0  0  0  0999 V2000
   -3.6042   -3.5728    1.4576 H   0  0  0  0  0  0  0  0  0  0  0  0
   -3.5202   -2.6488    0.8866 C   0  0  0  0  0  0  0  0  0  0  0  0
   -4.2052   -1.9048    1.2896 H   0  0  0  0  0  0  0  0  0  0  0  0
   -3.7552   -2.8428   -0.1584 H   0  0  0  0  0  0  0  0  0  0  0  0
   -2.1052   -2.1358    0.9946 C   0  0  0  0  0  0  0  0  0  0  0  0
   -1.2852   -2.7288    1.6826 O   0  0  0  0  0  0  0  0  0  0  0  0
   -1.8202   -1.0288    0.3146 N   0  0  0  0  0  0  0  0  0  0  0  0
   -2.5542   -0.5788   -0.2104 H   0  0  0  0  0  0  0  0  0  0  0  0
   -0.5102   -0.3728    0.3086 C   0  0  1  0  0  0  0  0  0  0  0  0
    0.0719   -0.7468    1.1521 H   0  0  0  0  0  0  0  0  0  0  0  0
    0.2338   -0.7427   -0.9878 C   0  0  0  0  0  0  0  0  0  0  0  0
    1.2185   -0.2719   -0.9815 H   0  0  0  0  0  0  0  0  0  0  0  0
    0.3791   -1.8241   -1.0183 H   0  0  0  0  0  0  0  0  0  0  0  0
   -0.4904   -0.3223   -2.2404 C   0  0  0  0  0  0  0  0  0  0  0  0
   -0.1613    0.7394   -3.0556 N   0  0  0  0  0  0  0  0  0  0  0  0
    0.5611    1.4219   -2.8811 H   0  0  0  0  0  0  0  0  0  0  0  0
   -0.9757    0.7111   -4.1240 C   0  0  0  0  0  0  0  0  0  0  0  0
   -0.9630    1.4233   -4.9399 H   0  0  0  0  0  0  0  0  0  0  0  0
   -1.8128   -0.3334   -4.0422 N   0  0  0  0  0  0  0  0  0  0  0  0
   -1.5170   -0.9952   -2.8476 C   0  0  0  0  0  0  0  0  0  0  0  0
   -1.9887   -1.8989   -2.4840 H   0  0  0  0  0  0  0  0  0  0  0  0
   -0.6600    1.1486    0.4782 C   0  0  0  0  0  0  0  0  0  0  0  0
   -1.5001    1.7648   -0.1771 O   0  0  0  0  0  0  0  0  0  0  0  0
    0.1634    1.7559    1.3418 N   0  0  0  0  0  0  0  0  0  0  0  0
    0.8618    1.1897    1.8008 H   0  0  0  0  0  0  0  0  0  0  0  0
    0.1509    3.1886    1.6256 C   0  0  0  0  0  0  0  0  0  0  0  0
   -0.8272    3.4794    2.0152 H   0  0  0  0  0  0  0  0  0  0  0  0
    0.9172    3.4314    2.3624 H   0  0  0  0  0  0  0  0  0  0  0  0
    0.3414    3.7499    0.7095 H   0  0  0  0  0  0  0  0  0  0  0  0
  5  6  2  0  0  0  0
  5  7  1  0  0  0  0
  2  3  1  0  0  0  0
  2  4  1  0  0  0  0
  2  5  1  0  0  0  0
  1  2  1  0  0  0  0
 22 23  2  0  0  0  0
 22 24  1  0  0  0  0
 20 21  1  0  0  0  0
 19 20  1  0  0  0  0
 17 18  1  0  0  0  0
 17 19  2  0  0  0  0
 15 16  1  0  0  0  0
 15 17  1  0  0  0  0
 14 15  1  0  0  0  0
 14 20  2  0  0  0  0
 11 12  1  0  0  0  0
 11 13  1  0  0  0  0
 11 14  1  0  0  0  0
  9 10  1  0  0  0  0
  9 11  1  0  0  0  0
  9 22  1  0  0  0  0
  7  8  1  0  0  0  0
  7  9  1  0  0  0  0
 26 27  1  0  0  0  0
 26 28  1  0  0  0  0
 26 29  1  0  0  0  0
 24 25  1  0  0  0  0
 24 26  1  0  0  0  0
M  END
$$$$
default_name
  -OEChem-02102213163D

 29 29  0     1  0  0  0  0  0999 V2000
   -3.6042   -3.5728    1.4576 H   0  0  0  0  0  0  0  0  0  0  0  0
   -3.5202   -2.6488    0.8866 C   0  0  0  0  0  0  0  0  0  0  0  0
   -4.2052   -1.9048    1.2896 H   0  0  0  0  0  0  0  0  0  0  0  0
   -3.7552   -2.8428   -0.1584 H   0  0  0  0  0  0  0  0  0  0  0  0
   -2.1052   -2.1358    0.9946 C   0  0  0  0  0  0  0  0  0  0  0  0
   -1.2852   -2.7288    1.6826 O   0  0  0  0  0  0  0  0  0  0  0  0
   -1.8202   -1.0288    0.3146 N   0  0  0  0  0  0  0  0  0  0  0  0
   -2.5542   -0.5788   -0.2104 H   0  0  0  0  0  0  0  0  0  0  0  0
   -0.5102   -0.3728    0.3086 C   0  0  1  0  0  0  0  0  0  0  0  0
    0.0719   -0.7468    1.1521 H   0  0  0  0  0  0  0  0  0  0  0  0
    0.2338   -0.7427   -0.9878 C   0  0  0  0  0  0  0  0  0  0  0  0
    1.2185   -0.2719   -0.9815 H   0  0  0  0  0  0  0  0  0  0  0  0
    0.3791   -1.8241   -1.0183 H   0  0  0  0  0  0  0  0  0  0  0  0
   -0.4904   -0.3223   -2.2404 C   0  0  0  0  0  0  0  0  0  0  0  0
   -0.0163    0.5388   -3.2068 N   0  0  0  0  0  0  0  0  0  0  0  0
    0.8459    1.0614   -3.1668 H   0  0  0  0  0  0  0  0  0  0  0  0
   -0.9071    0.5658   -4.2124 C   0  0  0  0  0  0  0  0  0  0  0  0
   -0.8147    1.1578   -5.1148 H   0  0  0  0  0  0  0  0  0  0  0  0
   -1.9352   -0.2524   -3.9443 N   0  0  0  0  0  0  0  0  0  0  0  0
   -1.6839   -0.8192   -2.6920 C   0  0  0  0  0  0  0  0  0  0  0  0
   -2.3023   -1.5485   -2.1850 H   0  0  0  0  0  0  0  0  0  0  0  0
   -0.6600    1.1486    0.4782 C   0  0  0  0  0  0  0  0  0  0  0  0
   -1.5001    1.7648   -0.1771 O   0  0  0  0  0  0  0  0  0  0  0  0
    0.1634    1.7559    1.3418 N   0  0  0  0  0  0  0  0  0  0  0  0
    0.8618    1.1897    1.8008 H   0  0  0  0  0  0  0  0  0  0  0  0
    0.1509    3.1886    1.6256 C   0  0  0  0  0  0  0  0  0  0  0  0
   -0.8272    3.4794    2.0152 H   0  0  0  0  0  0  0  0  0  0  0  0
    0.9172    3.4314    2.3624 H   0  0  0  0  0  0  0  0  0  0  0  0
    0.3414    3.7499    0.7095 H   0  0  0  0  0  0  0  0  0  0  0  0
  5  6  2  0  0  0  0
  5  7  1  0  0  0  0
  2  3  1  0  0  0  0
  2  4  1  0  0  0  0
  2  5  1  0  0  0  0
  1  2  1  0  0  0  0
 22 23  2  0  0  0  0
 22 24  1  0  0  0  0
 20 21  1  0  0  0  0
 19 20  1  0  0  0  0
 17 18  1  0  0  0  0
 17 19  2  0  0  0  0
 15 16  1  0  0  0  0
 15 17  1  0  0  0  0
 14 15  1  0  0  0  0
 14 20  2  0  0  0  0
 11 12  1  0  0  0  0
 11 13  1  0  0  0  0
 11 14  1  0  0  0  0
  9 10  1  0  0  0  0
  9 11  1  0  0  0  0
  9 22  1  0  0  0  0
  7  8  1  0  0  0  0
  7  9  1  0  0  0  0
 26 27  1  0  0  0  0
 26 28  1  0  0  0  0
 26 29  1  0  0  0  0
 24 25  1  0  0  0  0
 24 26  1  0  0  0  0
M  END
$$$$
default_name
  -OEChem-02102213163D

 29 29  0     1  0  0  0  0  0999 V2000
   -3.6042   -3.5728    1.4576 H   0  0  0  0  0  0  0  0  0  0  0  0
   -3.5202   -2.6488    0.8866 C   0  0  0  0  0  0  0  0  0  0  0  0
   -4.2052   -1.9048    1.2896 H   0  0  0  0  0  0  0  0  0  0  0  0
   -3.7552   -2.8428   -0.1584 H   0  0  0  0  0  0  0  0  0  0  0  0
   -2.1052   -2.1358    0.9946 C   0  0  0  0  0  0  0  0  0  0  0  0
   -1.2852   -2.7288    1.6826 O   0  0  0  0  0  0  0  0  0  0  0  0
   -1.8202   -1.0288    0.3146 N   0  0  0  0  0  0  0  0  0  0  0  0
   -2.5542   -0.5788   -0.2104 H   0  0  0  0  0  0  0  0  0  0  0  0
   -0.5102   -0.3728    0.3086 C   0  0  1  0  0  0  0  0  0  0  0  0
    0.0719   -0.7468    1.1521 H   0  0  0  0  0  0  0  0  0  0  0  0
    0.2338   -0.7427   -0.9878 C   0  0  0  0  0  0  0  0  0  0  0  0
    1.2185   -0.2719   -0.9815 H   0  0  0  0  0  0  0  0  0  0  0  0
    0.3791   -1.8241   -1.0183 H   0  0  0  0  0  0  0  0  0  0  0  0
   -0.4904   -0.3223   -2.2404 C   0  0  0  0  0  0  0  0  0  0  0  0
    0.0696    0.2949   -3.3384 N   0  0  0  0  0  0  0  0  0  0  0  0
    1.0227    0.6164   -3.4184 H   0  0  0  0  0  0  0  0  0  0  0  0
   -0.8784    0.3997   -4.2847 C   0  0  0  0  0  0  0  0  0  0  0  0
   -0.7413    0.8477   -5.2613 H   0  0  0  0  0  0  0  0  0  0  0  0
   -2.0289   -0.1356   -3.8509 N   0  0  0  0  0  0  0  0  0  0  0  0
   -1.7960   -0.5939   -2.5516 C   0  0  0  0  0  0  0  0  0  0  0  0
   -2.5083   -1.1053   -1.9171 H   0  0  0  0  0  0  0  0  0  0  0  0
   -0.6600    1.1486    0.4782 C   0  0  0  0  0  0  0  0  0  0  0  0
   -1.5001    1.7648   -0.1771 O   0  0  0  0  0  0  0  0  0  0  0  0
    0.1634    1.7559    1.3418 N   0  0  0  0  0  0  0  0  0  0  0  0
    0.8618    1.1897    1.8008 H   0  0  0  0  0  0  0  0  0  0  0  0
    0.1509    3.1886    1.6256 C   0  0  0  0  0  0  0  0  0  0  0  0
   -0.8272    3.4794    2.0152 H   0  0  0  0  0  0  0  0  0  0  0  0
    0.9172    3.4314    2.3624 H   0  0  0  0  0  0  0  0  0  0  0  0
    0.3414    3.7499    0.7095 H   0  0  0  0  0  0  0  0  0  0  0  0
  5  6  2  0  0  0  0
  5  7  1  0  0  0  0
  2  3  1  0  0  0  0
  2  4  1  0  0  0  0
  2  5  1  0  0  0  0
  1  2  1  0  0  0  0
 22 23  2  0  0  0  0
 22 24  1  0  0  0  0
 20 21  1  0  0  0  0
 19 20  1  0  0  0  0
 17 18  1  0  0  0  0
 17 19  2  0  0  0  0
 15 16  1  0  0  0  0
 15 17  1  0  0  0  0
 14 15  1  0  0  0  0
 14 20  2  0  0  0  0
 11 12  1  0  0  0  0
 11 13  1  0  0  0  0
 11 14  1  0  0  0  0
  9 10  1  0  0  0  0
  9 11  1  0  0  0  0
  9 22  1  0  0  0  0
  7  8  1  0  0  0  0
  7  9  1  0  0  0  0
 26 27  1  0  0  0  0
 26 28  1  0  0  0  0
 26 29  1  0  0  0  0
 24 25  1  0  0  0  0
 24 26  1  0  0  0  0
M  END
$$$$
default_name
  -OEChem-02102213163D

 29 29  0     1  0  0  0  0  0999 V2000
   -3.6042   -3.5728    1.4576 H   0  0  0  0  0  0  0  0  0  0  0  0
   -3.5202   -2.6488    0.8866 C   0  0  0  0  0  0  0  0  0  0  0  0
   -4.2052   -1.9048    1.2896 H   0  0  0  0  0  0  0  0  0  0  0  0
   -3.7552   -2.8428   -0.1584 H   0  0  0  0  0  0  0  0  0  0  0  0
   -2.1052   -2.1358    0.9946 C   0  0  0  0  0  0  0  0  0  0  0  0
   -1.2852   -2.7288    1.6826 O   0  0  0  0  0  0  0  0  0  0  0  0
   -1.8202   -1.0288    0.3146 N   0  0  0  0  0  0  0  0  0  0  0  0
   -2.5542   -0.5788   -0.2104 H   0  0  0  0  0  0  0  0  0  0  0  0
   -0.5102   -0.3728    0.3086 C   0  0  1  0  0  0  0  0  0  0  0  0
    0.0719   -0.7468    1.1521 H   0  0  0  0  0  0  0  0  0  0  0  0
    0.2338   -0.7427   -0.9878 C   0  0  0  0  0  0  0  0  0  0  0  0
    1.2185   -0.2719   -0.9815 H   0  0  0  0  0  0  0  0  0  0  0  0
    0.3791   -1.8241   -1.0183 H   0  0  0  0  0  0  0  0  0  0  0  0
   -0.4904   -0.3223   -2.2404 C   0  0  0  0  0  0  0  0  0  0  0  0
    0.0907    0.0246   -3.4413 N   0  0  0  0  0  0  0  0  0  0  0  0
    1.0796    0.1172   -3.6189 H   0  0  0  0  0  0  0  0  0  0  0  0
   -0.8917    0.2241   -4.3360 C   0  0  0  0  0  0  0  0  0  0  0  0
   -0.7476    0.5141   -5.3696 H   0  0  0  0  0  0  0  0  0  0  0  0
   -2.0875    0.0090   -3.7685 N   0  0  0  0  0  0  0  0  0  0  0  0
   -1.8458   -0.3347   -2.4359 C   0  0  0  0  0  0  0  0  0  0  0  0
   -2.5926   -0.5997   -1.6987 H   0  0  0  0  0  0  0  0  0  0  0  0
   -0.6600    1.1486    0.4782 C   0  0  0  0  0  0  0  0  0  0  0  0
   -1.5001    1.7648   -0.1771 O   0  0  0  0  0  0  0  0  0  0  0  0
    0.1634    1.7559    1.3418 N   0  0  0  0  0  0  0  0  0  0  0  0
    0.8618    1.1897    1.8008 H   0  0  0  0  0  0  0  0  0  0  0  0
    0.1509    3.1886    1.6256 C   0  0  0  0  0  0  0  0  0  0  0  0
   -0.8272    3.4794    2.0152 H   0  0  0  0  0  0  0  0  0  0  0  0
    0.9172    3.4314    2.3624 H   0  0  0  0  0  0  0  0  0  0  0  0
    0.3414    3.7499    0.7095 H   0  0  0  0  0  0  0  0  0  0  0  0
  5  6  2  0  0  0  0
  5  7  1  0  0  0  0
  2  3  1  0  0  0  0
  2  4  1  0  0  0  0
  2  5  1  0  0  0  0
  1  2  1  0  0  0  0
 22 23  2  0  0  0  0
 22 24  1  0  0  0  0
 20 21  1  0  0  0  0
 19 20  1  0  0  0  0
 17 18  1  0  0  0  0
 17 19  2  0  0  0  0
 15 16  1  0  0  0  0
 15 17  1  0  0  0  0
 14 15  1  0  0  0  0
 14 20  2  0  0  0  0
 11 12  1  0  0  0  0
 11 13  1  0  0  0  0
 11 14  1  0  0  0  0
  9 10  1  0  0  0  0
  9 11  1  0  0  0  0
  9 22  1  0  0  0  0
  7  8  1  0  0  0  0
  7  9  1  0  0  0  0
 26 27  1  0  0  0  0
 26 28  1  0  0  0  0
 26 29  1  0  0  0  0
 24 25  1  0  0  0  0
 24 26  1  0  0  0  0
M  END
$$$$
default_name
  -OEChem-02102213163D

 29 29  0     1  0  0  0  0  0999 V2000
   -3.6042   -3.5728    1.4576 H   0  0  0  0  0  0  0  0  0  0  0  0
   -3.5202   -2.6488    0.8866 C   0  0  0  0  0  0  0  0  0  0  0  0
   -4.2052   -1.9048    1.2896 H   0  0  0  0  0  0  0  0  0  0  0  0
   -3.7552   -2.8428   -0.1584 H   0  0  0  0  0  0  0  0  0  0  0  0
   -2.1052   -2.1358    0.9946 C   0  0  0  0  0  0  0  0  0  0  0  0
   -1.2852   -2.7288    1.6826 O   0  0  0  0  0  0  0  0  0  0  0  0
   -1.8202   -1.0288    0.3146 N   0  0  0  0  0  0  0  0  0  0  0  0
   -2.5542   -0.5788   -0.2104 H   0  0  0  0  0  0  0  0  0  0  0  0
   -0.5102   -0.3728    0.3086 C   0  0  1  0  0  0  0  0  0  0  0  0
    0.0719   -0.7468    1.1521 H   0  0  0  0  0  0  0  0  0  0  0  0
    0.2338   -0.7427   -0.9878 C   0  0  0  0  0  0  0  0  0  0  0  0
    1.2185   -0.2719   -0.9815 H   0  0  0  0  0  0  0  0  0  0  0  0
    0.3791   -1.8241   -1.0183 H   0  0  0  0  0  0  0  0  0  0  0  0
   -0.4904   -0.3223   -2.2404 C   0  0  0  0  0  0  0  0  0  0  0  0
    0.0454   -0.2539   -3.5086 N   0  0  0  0  0  0  0  0  0  0  0  0
    1.0127   -0.4022   -3.7545 H   0  0  0  0  0  0  0  0  0  0  0  0
   -0.9460    0.0510   -4.3627 C   0  0  0  0  0  0  0  0  0  0  0  0
   -0.8333    0.1798   -5.4323 H   0  0  0  0  0  0  0  0  0  0  0  0
   -2.1070    0.1715   -3.7026 N   0  0  0  0  0  0  0  0  0  0  0  0
   -1.8296   -0.0593   -2.3527 C   0  0  0  0  0  0  0  0  0  0  0  0
   -2.5495   -0.0659   -1.5445 H   0  0  0  0  0  0  0  0  0  0  0  0
   -0.6600    1.1486    0.4782 C   0  0  0  0  0  0  0  0  0  0  0  0
   -1.5001    1.7648   -0.1771 O   0  0  0  0  0  0  0  0  0  0  0  0
    0.1634    1.7559    1.3418 N   0  0  0  0  0  0  0  0  0  0  0  0
    0.8618    1.1897    1.8008 H   0  0  0  0  0  0  0  0  0  0  0  0
    0.1509    3.1886    1.6256 C   0  0  0  0  0  0  0  0  0  0  0  0
   -0.8272    3.4794    2.0152 H   0  0  0  0  0  0  0  0  0  0  0  0
    0.9172    3.4314    2.3624 H   0  0  0  0  0  0  0  0  0  0  0  0
    0.3414    3.7499    0.7095 H   0  0  0  0  0  0  0  0  0  0  0  0
  5  6  2  0  0  0  0
  5  7  1  0  0  0  0
  2  3  1  0  0  0  0
  2  4  1  0  0  0  0
  2  5  1  0  0  0  0
  1  2  1  0  0  0  0
 22 23  2  0  0  0  0
 22 24  1  0  0  0  0
 20 21  1  0  0  0  0
 19 20  1  0  0  0  0
 17 18  1  0  0  0  0
 17 19  2  0  0  0  0
 15 16  1  0  0  0  0
 15 17  1  0  0  0  0
 14 15  1  0  0  0  0
 14 20  2  0  0  0  0
 11 12  1  0  0  0  0
 11 13  1  0  0  0  0
 11 14  1  0  0  0  0
  9 10  1  0  0  0  0
  9 11  1  0  0  0  0
  9 22  1  0  0  0  0
  7  8  1  0  0  0  0
  7  9  1  0  0  0  0
 26 27  1  0  0  0  0
 26 28  1  0  0  0  0
 26 29  1  0  0  0  0
 24 25  1  0  0  0  0
 24 26  1  0  0  0  0
M  END
$$$$
default_name
  -OEChem-02102213163D

 29 29  0     1  0  0  0  0  0999 V2000
   -3.6042   -3.5728    1.4576 H   0  0  0  0  0  0  0  0  0  0  0  0
   -3.5202   -2.6488    0.8866 C   0  0  0  0  0  0  0  0  0  0  0  0
   -4.2052   -1.9048    1.2896 H   0  0  0  0  0  0  0  0  0  0  0  0
   -3.7552   -2.8428   -0.1584 H   0  0  0  0  0  0  0  0  0  0  0  0
   -2.1052   -2.1358    0.9946 C   0  0  0  0  0  0  0  0  0  0  0  0
   -1.2852   -2.7288    1.6826 O   0  0  0  0  0  0  0  0  0  0  0  0
   -1.8202   -1.0288    0.3146 N   0  0  0  0  0  0  0  0  0  0  0  0
   -2.5542   -0.5788   -0.2104 H   0  0  0  0  0  0  0  0  0  0  0  0
   -0.5102   -0.3728    0.3086 C   0  0  1  0  0  0  0  0  0  0  0  0
    0.0719   -0.7468    1.1521 H   0  0  0  0  0  0  0  0  0  0  0  0
    0.2338   -0.7427   -0.9878 C   0  0  0  0  0  0  0  0  0  0  0  0
    1.2930   -0.5062   -0.8719 H   0  0  0  0  0  0  0  0  0  0  0  0
    0.1463   -1.8180   -1.1537 H   0  0  0  0  0  0  0  0  0  0  0  0
   -0.2863   -0.0271   -2.2075 C   0  0  0  0  0  0  0  0  0  0  0  0
    0.1858   -0.1617   -3.4956 N   0  0  0  0  0  0  0  0  0  0  0  0
    0.9911   -0.6984   -3.7810 H   0  0  0  0  0  0  0  0  0  0  0  0
   -0.6119    0.5527   -4.3072 C   0  0  0  0  0  0  0  0  0  0  0  0
   -0.4911    0.6467   -5.3795 H   0  0  0  0  0  0  0  0  0  0  0  0
   -1.5908    1.1363   -3.6005 N   0  0  0  0  0  0  0  0  0  0  0  0
   -1.3921    0.7788   -2.2643 C   0  0  0  0  0  0  0  0  0  0  0  0
   -2.0200    1.0576   -1.4280 H   0  0  0  0  0  0  0  0  0  0  0  0
   -0.6600    1.1486    0.4782 C   0  0  0  0  0  0  0  0  0  0  0  0
   -1.5001    1.7648   -0.1771 O   0  0  0  0  0  0  0  0  0  0  0  0
    0.1634    1.7559    1.3418 N   0  0  0  0  0  0  0  0  0  0  0  0
    0.8618    1.1897    1.8008 H   0  0  0  0  0  0  0  0  0  0  0  0
    0.1509    3.1886    1.6256 C   0  0  0  0  0  0  0  0  0  0  0  0
   -0.8272    3.4794    2.0152 H   0  0  0  0  0  0  0  0  0  0  0  0
    0.9172    3.4314    2.3624 H   0  0  0  0  0  0  0  0  0  0  0  0
    0.3414    3.7499    0.7095 H   0  0  0  0  0  0  0  0  0  0  0  0
  5  6  2  0  0  0  0
  5  7  1  0  0  0  0
  2  3  1  0  0  0  0
  2  4  1  0  0  0  0
  2  5  1  0  0  0  0
  1  2  1  0  0  0  0
 22 23  2  0  0  0  0
 22 24  1  0  0  0  0
 20 21  1  0  0  0  0
 19 20  1  0  0  0  0
 17 18  1  0  0  0  0
 17 19  2  0  0  0  0
 15 16  1  0  0  0  0
 15 17  1  0  0  0  0
 14 15  1  0  0  0  0
 14 20  2  0  0  0  0
 11 12  1  0  0  0  0
 11 13  1  0  0  0  0
 11 14  1  0  0  0  0
  9 10  1  0  0  0  0
  9 11  1  0  0  0  0
  9 22  1  0  0  0  0
  7  8  1  0  0  0  0
  7  9  1  0  0  0  0
 26 27  1  0  0  0  0
 26 28  1  0  0  0  0
 26 29  1  0  0  0  0
 24 25  1  0  0  0  0
 24 26  1  0  0  0  0
M  END
$$$$
default_name
  -OEChem-02102213163D

 29 29  0     1  0  0  0  0  0999 V2000
   -3.6042   -3.5728    1.4576 H   0  0  0  0  0  0  0  0  0  0  0  0
   -3.5202   -2.6488    0.8866 C   0  0  0  0  0  0  0  0  0  0  0  0
   -4.2052   -1.9048    1.2896 H   0  0  0  0  0  0  0  0  0  0  0  0
   -3.7552   -2.8428   -0.1584 H   0  0  0  0  0  0  0  0  0  0  0  0
   -2.1052   -2.1358    0.9946 C   0  0  0  0  0  0  0  0  0  0  0  0
   -1.2852   -2.7288    1.6826 O   0  0  0  0  0  0  0  0  0  0  0  0
   -1.8202   -1.0288    0.3146 N   0  0  0  0  0  0  0  0  0  0  0  0
   -2.5542   -0.5788   -0.2104 H   0  0  0  0  0  0  0  0  0  0  0  0
   -0.5102   -0.3728    0.3086 C   0  0  1  0  0  0  0  0  0  0  0  0
    0.0719   -0.7468    1.1521 H   0  0  0  0  0  0  0  0  0  0  0  0
    0.2338   -0.7427   -0.9878 C   0  0  0  0  0  0  0  0  0  0  0  0
    1.2930   -0.5062   -0.8719 H   0  0  0  0  0  0  0  0  0  0  0  0
    0.1463   -1.8180   -1.1537 H   0  0  0  0  0  0  0  0  0  0  0  0
   -0.2863   -0.0271   -2.2075 C   0  0  0  0  0  0  0  0  0  0  0  0
   -0.0265   -0.3579   -3.5202 N   0  0  0  0  0  0  0  0  0  0  0  0
    0.6075   -1.0754   -3.8386 H   0  0  0  0  0  0  0  0  0  0  0  0
   -0.7620    0.4473   -4.3050 C   0  0  0  0  0  0  0  0  0  0  0  0
   -0.7676    0.4312   -5.3881 H   0  0  0  0  0  0  0  0  0  0  0  0
   -1.4989    1.2800   -3.5553 N   0  0  0  0  0  0  0  0  0  0  0  0
   -1.2021    0.9910   -2.2208 C   0  0  0  0  0  0  0  0  0  0  0  0
   -1.6435    1.4613   -1.3517 H   0  0  0  0  0  0  0  0  0  0  0  0
   -0.6600    1.1486    0.4782 C   0  0  0  0  0  0  0  0  0  0  0  0
   -1.5001    1.7648   -0.1771 O   0  0  0  0  0  0  0  0  0  0  0  0
    0.1634    1.7559    1.3418 N   0  0  0  0  0  0  0  0  0  0  0  0
    0.8618    1.1897    1.8008 H   0  0  0  0  0  0  0  0  0  0  0  0
    0.1509    3.1886    1.6256 C   0  0  0  0  0  0  0  0  0  0  0  0
   -0.8272    3.4794    2.0152 H   0  0  0  0  0  0  0  0  0  0  0  0
    0.9172    3.4314    2.3624 H   0  0  0  0  0  0  0  0  0  0  0  0
    0.3414    3.7499    0.7095 H   0  0  0  0  0  0  0  0  0  0  0  0
  5  6  2  0  0  0  0
  5  7  1  0  0  0  0
  2  3  1  0  0  0  0
  2  4  1  0  0  0  0
  2  5  1  0  0  0  0
  1  2  1  0  0  0  0
 22 23  2  0  0  0  0
 22 24  1  0  0  0  0
 20 21  1  0  0  0  0
 19 20  1  0  0  0  0
 17 18  1  0  0  0  0
 17 19  2  0  0  0  0
 15 16  1  0  0  0  0
 15 17  1  0  0  0  0
 14 15  1  0  0  0  0
 14 20  2  0  0  0  0
 11 12  1  0  0  0  0
 11 13  1  0  0  0  0
 11 14  1  0  0  0  0
  9 10  1  0  0  0  0
  9 11  1  0  0  0  0
  9 22  1  0  0  0  0
  7  8  1  0  0  0  0
  7  9  1  0  0  0  0
 26 27  1  0  0  0  0
 26 28  1  0  0  0  0
 26 29  1  0  0  0  0
 24 25  1  0  0  0  0
 24 26  1  0  0  0  0
M  END
$$$$
default_name
  -OEChem-02102213163D

 29 29  0     1  0  0  0  0  0999 V2000
   -3.6042   -3.5728    1.4576 H   0  0  0  0  0  0  0  0  0  0  0  0
   -3.5202   -2.6488    0.8866 C   0  0  0  0  0  0  0  0  0  0  0  0
   -4.2052   -1.9048    1.2896 H   0  0  0  0  0  0  0  0  0  0  0  0
   -3.7552   -2.8428   -0.1584 H   0  0  0  0  0  0  0  0  0  0  0  0
   -2.1052   -2.1358    0.9946 C   0  0  0  0  0  0  0  0  0  0  0  0
   -1.2852   -2.7288    1.6826 O   0  0  0  0  0  0  0  0  0  0  0  0
   -1.8202   -1.0288    0.3146 N   0  0  0  0  0  0  0  0  0  0  0  0
   -2.5542   -0.5788   -0.2104 H   0  0  0  0  0  0  0  0  0  0  0  0
   -0.5102   -0.3728    0.3086 C   0  0  1  0  0  0  0  0  0  0  0  0
    0.0719   -0.7468    1.1521 H   0  0  0  0  0  0  0  0  0  0  0  0
    0.2338   -0.7427   -0.9878 C   0  0  0  0  0  0  0  0  0  0  0  0
    1.2930   -0.5062   -0.8719 H   0  0  0  0  0  0  0  0  0  0  0  0
    0.1463   -1.8180   -1.1537 H   0  0  0  0  0  0  0  0  0  0  0  0
   -0.2863   -0.0271   -2.2075 C   0  0  0  0  0  0  0  0  0  0  0  0
   -0.2756   -0.5051   -3.5003 N   0  0  0  0  0  0  0  0  0  0  0  0
    0.1508   -1.3644   -3.8134 H   0  0  0  0  0  0  0  0  0  0  0  0
   -0.9288    0.3772   -4.2750 C   0  0  0  0  0  0  0  0  0  0  0  0
   -1.0810    0.2801   -5.3431 H   0  0  0  0  0  0  0  0  0  0  0  0
   -1.3745    1.4036   -3.5359 N   0  0  0  0  0  0  0  0  0  0  0  0
   -0.9687    1.1601   -2.2211 C   0  0  0  0  0  0  0  0  0  0  0  0
   -1.1859    1.7792   -1.3603 H   0  0  0  0  0  0  0  0  0  0  0  0
   -0.6600    1.1486    0.4782 C   0  0  0  0  0  0  0  0  0  0  0  0
   -1.5001    1.7648   -0.1771 O   0  0  0  0  0  0  0  0  0  0  0  0
    0.1634    1.7559    1.3418 N   0  0  0  0  0  0  0  0  0  0  0  0
    0.8618    1.1897    1.8008 H   0  0  0  0  0  0  0  0  0  0  0  0
    0.1509    3.1886    1.6256 C   0  0  0  0  0  0  0  0  0  0  0  0
   -0.8272    3.4794    2.0152 H   0  0  0  0  0  0  0  0  0  0  0  0
    0.9172    3.4314    2.3624 H   0  0  0  0  0  0  0  0  0  0  0  0
    0.3414    3.7499    0.7095 H   0  0  0  0  0  0  0  0  0  0  0  0
  5  6  2  0  0  0  0
  5  7  1  0  0  0  0
  2  3  1  0  0  0  0
  2  4  1  0  0  0  0
  2  5  1  0  0  0  0
  1  2  1  0  0  0  0
 22 23  2  0  0  0  0
 22 24  1  0  0  0  0
 20 21  1  0  0  0  0
 19 20  1  0  0  0  0
 17 18  1  0  0  0  0
 17 19  2  0  0  0  0
 15 16  1  0  0  0  0
 15 17  1  0  0  0  0
 14 15  1  0  0  0  0
 14 20  2  0  0  0  0
 11 12  1  0  0  0  0
 11 13  1  0  0  0  0
 11 14  1  0  0  0  0
  9 10  1  0  0  0  0
  9 11  1  0  0  0  0
  9 22  1  0  0  0  0
  7  8  1  0  0  0  0
  7  9  1  0  0  0  0
 26 27  1  0  0  0  0
 26 28  1  0  0  0  0
 26 29  1  0  0  0  0
 24 25  1  0  0  0  0
 24 26  1  0  0  0  0
M  END
$$$$
default_name
  -OEChem-02102213163D

 29 29  0     1  0  0  0  0  0999 V2000
   -3.6042   -3.5728    1.4576 H   0  0  0  0  0  0  0  0  0  0  0  0
   -3.5202   -2.6488    0.8866 C   0  0  0  0  0  0  0  0  0  0  0  0
   -4.2052   -1.9048    1.2896 H   0  0  0  0  0  0  0  0  0  0  0  0
   -3.7552   -2.8428   -0.1584 H   0  0  0  0  0  0  0  0  0  0  0  0
   -2.1052   -2.1358    0.9946 C   0  0  0  0  0  0  0  0  0  0  0  0
   -1.2852   -2.7288    1.6826 O   0  0  0  0  0  0  0  0  0  0  0  0
   -1.8202   -1.0288    0.3146 N   0  0  0  0  0  0  0  0  0  0  0  0
   -2.5542   -0.5788   -0.2104 H   0  0  0  0  0  0  0  0  0  0  0  0
   -0.5102   -0.3728    0.3086 C   0  0  1  0  0  0  0  0  0  0  0  0
    0.0719   -0.7468    1.1521 H   0  0  0  0  0  0  0  0  0  0  0  0
    0.2338   -0.7427   -0.9878 C   0  0  0  0  0  0  0  0  0  0  0  0
    1.2930   -0.5062   -0.8719 H   0  0  0  0  0  0  0  0  0  0  0  0
    0.1463   -1.8180   -1.1537 H   0  0  0  0  0  0  0  0  0  0  0  0
   -0.2863   -0.0271   -2.2075 C   0  0  0  0  0  0  0  0  0  0  0  0
   -0.5446   -0.5934   -3.4374 N   0  0  0  0  0  0  0  0  0  0  0  0
   -0.3477   -1.5455   -3.7071 H   0  0  0  0  0  0  0  0  0  0  0  0
   -1.1009    0.3471   -4.2193 C   0  0  0  0  0  0  0  0  0  0  0  0
   -1.4098    0.2039   -5.2476 H   0  0  0  0  0  0  0  0  0  0  0  0
   -1.2260    1.4986   -3.5434 N   0  0  0  0  0  0  0  0  0  0  0  0
   -0.7080    1.2745   -2.2652 C   0  0  0  0  0  0  0  0  0  0  0  0
   -0.6783    1.9897   -1.4533 H   0  0  0  0  0  0  0  0  0  0  0  0
   -0.6600    1.1486    0.4782 C   0  0  0  0  0  0  0  0  0  0  0  0
   -1.5001    1.7648   -0.1771 O   0  0  0  0  0  0  0  0  0  0  0  0
    0.1634    1.7559    1.3418 N   0  0  0  0  0  0  0  0  0  0  0  0
    0.8618    1.1897    1.8008 H   0  0  0  0  0  0  0  0  0  0  0  0
    0.1509    3.1886    1.6256 C   0  0  0  0  0  0  0  0  0  0  0  0
   -0.8272    3.4794    2.0152 H   0  0  0  0  0  0  0  0  0  0  0  0
    0.9172    3.4314    2.3624 H   0  0  0  0  0  0  0  0  0  0  0  0
    0.3414    3.7499    0.7095 H   0  0  0  0  0  0  0  0  0  0  0  0
  5  6  2  0  0  0  0
  5  7  1  0  0  0  0
  2  3  1  0  0  0  0
  2  4  1  0  0  0  0
  2  5  1  0  0  0  0
  1  2  1  0  0  0  0
 22 23  2  0  0  0  0
 22 24  1  0  0  0  0
 20 21  1  0  0  0  0
 19 20  1  0  0  0  0
 17 18  1  0  0  0  0
 17 19  2  0  0  0  0
 15 16  1  0  0  0  0
 15 17  1  0  0  0  0
 14 15  1  0  0  0  0
 14 20  2  0  0  0  0
 11 12  1  0  0  0  0
 11 13  1  0  0  0  0
 11 14  1  0  0  0  0
  9 10  1  0  0  0  0
  9 11  1  0  0  0  0
  9 22  1  0  0  0  0
  7  8  1  0  0  0  0
  7  9  1  0  0  0  0
 26 27  1  0  0  0  0
 26 28  1  0  0  0  0
 26 29  1  0  0  0  0
 24 25  1  0  0  0  0
 24 26  1  0  0  0  0
M  END
$$$$
default_name
  -OEChem-02102213163D

 29 29  0     1  0  0  0  0  0999 V2000
   -3.6042   -3.5728    1.4576 H   0  0  0  0  0  0  0  0  0  0  0  0
   -3.5202   -2.6488    0.8866 C   0  0  0  0  0  0  0  0  0  0  0  0
   -4.2052   -1.9048    1.2896 H   0  0  0  0  0  0  0  0  0  0  0  0
   -3.7552   -2.8428   -0.1584 H   0  0  0  0  0  0  0  0  0  0  0  0
   -2.1052   -2.1358    0.9946 C   0  0  0  0  0  0  0  0  0  0  0  0
   -1.2852   -2.7288    1.6826 O   0  0  0  0  0  0  0  0  0  0  0  0
   -1.8202   -1.0288    0.3146 N   0  0  0  0  0  0  0  0  0  0  0  0
   -2.5542   -0.5788   -0.2104 H   0  0  0  0  0  0  0  0  0  0  0  0
   -0.5102   -0.3728    0.3086 C   0  0  1  0  0  0  0  0  0  0  0  0
    0.0719   -0.7468    1.1521 H   0  0  0  0  0  0  0  0  0  0  0  0
    0.2338   -0.7427   -0.9878 C   0  0  0  0  0  0  0  0  0  0  0  0
    1.2930   -0.5062   -0.8719 H   0  0  0  0  0  0  0  0  0  0  0  0
    0.1463   -1.8180   -1.1537 H   0  0  0  0  0  0  0  0  0  0  0  0
   -0.2863   -0.0271   -2.2075 C   0  0  0  0  0  0  0  0  0  0  0  0
   -0.8152   -0.6166   -3.3356 N   0  0  0  0  0  0  0  0  0  0  0  0
   -0.8541   -1.6066   -3.5270 H   0  0  0  0  0  0  0  0  0  0  0  0
   -1.2666    0.3591   -4.1416 C   0  0  0  0  0  0  0  0  0  0  0  0
   -1.7316    0.2077   -5.1081 H   0  0  0  0  0  0  0  0  0  0  0  0
   -1.0636    1.5586   -3.5774 N   0  0  0  0  0  0  0  0  0  0  0  0
   -0.4375    1.3265   -2.3500 C   0  0  0  0  0  0  0  0  0  0  0  0
   -0.1554    2.0783   -1.6243 H   0  0  0  0  0  0  0  0  0  0  0  0
   -0.6600    1.1486    0.4782 C   0  0  0  0  0  0  0  0  0  0  0  0
   -1.5001    1.7648   -0.1771 O   0  0  0  0  0  0  0  0  0  0  0  0
    0.1634    1.7559    1.3418 N   0  0  0  0  0  0  0  0  0  0  0  0
    0.8618    1.1897    1.8008 H   0  0  0  0  0  0  0  0  0  0  0  0
    0.1509    3.1886    1.6256 C   0  0  0  0  0  0  0  0  0  0  0  0
   -0.8272    3.4794    2.0152 H   0  0  0  0  0  0  0  0  0  0  0  0
    0.9172    3.4314    2.3624 H   0  0  0  0  0  0  0  0  0  0  0  0
    0.3414    3.7499    0.7095 H   0  0  0  0  0  0  0  0  0  0  0  0
  5  6  2  0  0  0  0
  5  7  1  0  0  0  0
  2  3  1  0  0  0  0
  2  4  1  0  0  0  0
  2  5  1  0  0  0  0
  1  2  1  0  0  0  0
 22 23  2  0  0  0  0
 22 24  1  0  0  0  0
 20 21  1  0  0  0  0
 19 20  1  0  0  0  0
 17 18  1  0  0  0  0
 17 19  2  0  0  0  0
 15 16  1  0  0  0  0
 15 17  1  0  0  0  0
 14 15  1  0  0  0  0
 14 20  2  0  0  0  0
 11 12  1  0  0  0  0
 11 13  1  0  0  0  0
 11 14  1  0  0  0  0
  9 10  1  0  0  0  0
  9 11  1  0  0  0  0
  9 22  1  0  0  0  0
  7  8  1  0  0  0  0
  7  9  1  0  0  0  0
 26 27  1  0  0  0  0
 26 28  1  0  0  0  0
 26 29  1  0  0  0  0
 24 25  1  0  0  0  0
 24 26  1  0  0  0  0
M  END
$$$$
default_name
  -OEChem-02102213163D

 29 29  0     1  0  0  0  0  0999 V2000
   -3.6042   -3.5728    1.4576 H   0  0  0  0  0  0  0  0  0  0  0  0
   -3.5202   -2.6488    0.8866 C   0  0  0  0  0  0  0  0  0  0  0  0
   -4.2052   -1.9048    1.2896 H   0  0  0  0  0  0  0  0  0  0  0  0
   -3.7552   -2.8428   -0.1584 H   0  0  0  0  0  0  0  0  0  0  0  0
   -2.1052   -2.1358    0.9946 C   0  0  0  0  0  0  0  0  0  0  0  0
   -1.2852   -2.7288    1.6826 O   0  0  0  0  0  0  0  0  0  0  0  0
   -1.8202   -1.0288    0.3146 N   0  0  0  0  0  0  0  0  0  0  0  0
   -2.5542   -0.5788   -0.2104 H   0  0  0  0  0  0  0  0  0  0  0  0
   -0.5102   -0.3728    0.3086 C   0  0  1  0  0  0  0  0  0  0  0  0
    0.0719   -0.7468    1.1521 H   0  0  0  0  0  0  0  0  0  0  0  0
    0.2338   -0.7427   -0.9878 C   0  0  0  0  0  0  0  0  0  0  0  0
    1.2930   -0.5062   -0.8719 H   0  0  0  0  0  0  0  0  0  0  0  0
    0.1463   -1.8180   -1.1537 H   0  0  0  0  0  0  0  0  0  0  0  0
   -0.2863   -0.0271   -2.2075 C   0  0  0  0  0  0  0  0  0  0  0  0
   -1.0690   -0.5733   -3.2020 N   0  0  0  0  0  0  0  0  0  0  0  0
   -1.3340   -1.5434   -3.2853 H   0  0  0  0  0  0  0  0  0  0  0  0
   -1.4146    0.4123   -4.0473 C   0  0  0  0  0  0  0  0  0  0  0  0
   -2.0246    0.2913   -4.9342 H   0  0  0  0  0  0  0  0  0  0  0  0
   -0.8984    1.5795   -3.6356 N   0  0  0  0  0  0  0  0  0  0  0  0
   -0.1758    1.3124   -2.4698 C   0  0  0  0  0  0  0  0  0  0  0  0
    0.3473    2.0390   -1.8617 H   0  0  0  0  0  0  0  0  0  0  0  0
   -0.6600    1.1486    0.4782 C   0  0  0  0  0  0  0  0  0  0  0  0
   -1.5001    1.7648   -0.1771 O   0  0  0  0  0  0  0  0  0  0  0  0
    0.1634    1.7559    1.3418 N   0  0  0  0  0  0  0  0  0  0  0  0
    0.8618    1.1897    1.8008 H   0  0  0  0  0  0  0  0  0  0  0  0
    0.1509    3.1886    1.6256 C   0  0  0  0  0  0  0  0  0  0  0  0
   -0.8272    3.4794    2.0152 H   0  0  0  0  0  0  0  0  0  0  0  0
    0.9172    3.4314    2.3624 H   0  0  0  0  0  0  0  0  0  0  0  0
    0.3414    3.7499    0.7095 H   0  0  0  0  0  0  0  0  0  0  0  0
  5  6  2  0  0  0  0
  5  7  1  0  0  0  0
  2  3  1  0  0  0  0
  2  4  1  0  0  0  0
  2  5  1  0  0  0  0
  1  2  1  0  0  0  0
 22 23  2  0  0  0  0
 22 24  1  0  0  0  0
 20 21  1  0  0  0  0
 19 20  1  0  0  0  0
 17 18  1  0  0  0  0
 17 19  2  0  0  0  0
 15 16  1  0  0  0  0
 15 17  1  0  0  0  0
 14 15  1  0  0  0  0
 14 20  2  0  0  0  0
 11 12  1  0  0  0  0
 11 13  1  0  0  0  0
 11 14  1  0  0  0  0
  9 10  1  0  0  0  0
  9 11  1  0  0  0  0
  9 22  1  0  0  0  0
  7  8  1  0  0  0  0
  7  9  1  0  0  0  0
 26 27  1  0  0  0  0
 26 28  1  0  0  0  0
 26 29  1  0  0  0  0
 24 25  1  0  0  0  0
 24 26  1  0  0  0  0
M  END
$$$$
default_name
  -OEChem-02102213163D

 29 29  0     1  0  0  0  0  0999 V2000
   -3.6042   -3.5728    1.4576 H   0  0  0  0  0  0  0  0  0  0  0  0
   -3.5202   -2.6488    0.8866 C   0  0  0  0  0  0  0  0  0  0  0  0
   -4.2052   -1.9048    1.2896 H   0  0  0  0  0  0  0  0  0  0  0  0
   -3.7552   -2.8428   -0.1584 H   0  0  0  0  0  0  0  0  0  0  0  0
   -2.1052   -2.1358    0.9946 C   0  0  0  0  0  0  0  0  0  0  0  0
   -1.2852   -2.7288    1.6826 O   0  0  0  0  0  0  0  0  0  0  0  0
   -1.8202   -1.0288    0.3146 N   0  0  0  0  0  0  0  0  0  0  0  0
   -2.5542   -0.5788   -0.2104 H   0  0  0  0  0  0  0  0  0  0  0  0
   -0.5102   -0.3728    0.3086 C   0  0  1  0  0  0  0  0  0  0  0  0
    0.0719   -0.7468    1.1521 H   0  0  0  0  0  0  0  0  0  0  0  0
    0.2338   -0.7427   -0.9878 C   0  0  0  0  0  0  0  0  0  0  0  0
    1.2930   -0.5062   -0.8719 H   0  0  0  0  0  0  0  0  0  0  0  0
    0.1463   -1.8180   -1.1537 H   0  0  0  0  0  0  0  0  0  0  0  0
   -0.2863   -0.0271   -2.2075 C   0  0  0  0  0  0  0  0  0  0  0  0
   -1.2886   -0.4663   -3.0456 N   0  0  0  0  0  0  0  0  0  0  0  0
   -1.7545   -1.3602   -2.9985 H   0  0  0  0  0  0  0  0  0  0  0  0
   -1.5348    0.5032   -3.9427 C   0  0  0  0  0  0  0  0  0  0  0  0
   -2.2686    0.4489   -4.7376 H   0  0  0  0  0  0  0  0  0  0  0  0
   -0.7415    1.5599   -3.7140 N   0  0  0  0  0  0  0  0  0  0  0  0
    0.0593    1.2333   -2.6165 C   0  0  0  0  0  0  0  0  0  0  0  0
    0.7954    1.8746   -2.1492 H   0  0  0  0  0  0  0  0  0  0  0  0
   -0.6600    1.1486    0.4782 C   0  0  0  0  0  0  0  0  0  0  0  0
   -1.5001    1.7648   -0.1771 O   0  0  0  0  0  0  0  0  0  0  0  0
    0.1634    1.7559    1.3418 N   0  0  0  0  0  0  0  0  0  0  0  0
    0.8618    1.1897    1.8008 H   0  0  0  0  0  0  0  0  0  0  0  0
    0.1509    3.1886    1.6256 C   0  0  0  0  0  0  0  0  0  0  0  0
   -0.8272    3.4794    2.0152 H   0  0  0  0  0  0  0  0  0  0  0  0
    0.9172    3.4314    2.3624 H   0  0  0  0  0  0  0  0  0  0  0  0
    0.3414    3.7499    0.7095 H   0  0  0  0  0  0  0  0  0  0  0  0
  5  6  2  0  0  0  0
  5  7  1  0  0  0  0
  2  3  1  0  0  0  0
  2  4  1  0  0  0  0
  2  5  1  0  0  0  0
  1  2  1  0  0  0  0
 22 23  2  0  0  0  0
 22 24  1  0  0  0  0
 20 21  1  0  0  0  0
 19 20  1  0  0  0  0
 17 18  1  0  0  0  0
 17 19  2  0  0  0  0
 15 16  1  0  0  0  0
 15 17  1  0  0  0  0
 14 15  1  0  0  0  0
 14 20  2  0  0  0  0
 11 12  1  0  0  0  0
 11 13  1  0  0  0  0
 11 14  1  0  0  0  0
  9 10  1  0  0  0  0
  9 11  1  0  0  0  0
  9 22  1  0  0  0  0
  7  8  1  0  0  0  0
  7  9  1  0  0  0  0
 26 27  1  0  0  0  0
 26 28  1  0  0  0  0
 26 29  1  0  0  0  0
 24 25  1  0  0  0  0
 24 26  1  0  0  0  0
M  END
$$$$
default_name
  -OEChem-02102213163D

 29 29  0     1  0  0  0  0  0999 V2000
   -3.6042   -3.5728    1.4576 H   0  0  0  0  0  0  0  0  0  0  0  0
   -3.5202   -2.6488    0.8866 C   0  0  0  0  0  0  0  0  0  0  0  0
   -4.2052   -1.9048    1.2896 H   0  0  0  0  0  0  0  0  0  0  0  0
   -3.7552   -2.8428   -0.1584 H   0  0  0  0  0  0  0  0  0  0  0  0
   -2.1052   -2.1358    0.9946 C   0  0  0  0  0  0  0  0  0  0  0  0
   -1.2852   -2.7288    1.6826 O   0  0  0  0  0  0  0  0  0  0  0  0
   -1.8202   -1.0288    0.3146 N   0  0  0  0  0  0  0  0  0  0  0  0
   -2.5542   -0.5788   -0.2104 H   0  0  0  0  0  0  0  0  0  0  0  0
   -0.5102   -0.3728    0.3086 C   0  0  1  0  0  0  0  0  0  0  0  0
    0.0719   -0.7468    1.1521 H   0  0  0  0  0  0  0  0  0  0  0  0
    0.2338   -0.7427   -0.9878 C   0  0  0  0  0  0  0  0  0  0  0  0
    1.2930   -0.5062   -0.8719 H   0  0  0  0  0  0  0  0  0  0  0  0
    0.1463   -1.8180   -1.1537 H   0  0  0  0  0  0  0  0  0  0  0  0
   -0.2863   -0.0271   -2.2075 C   0  0  0  0  0  0  0  0  0  0  0  0
   -1.4591   -0.3030   -2.8771 N   0  0  0  0  0  0  0  0  0  0  0  0
   -2.0870   -1.0695   -2.6861 H   0  0  0  0  0  0  0  0  0  0  0  0
   -1.6191    0.6254   -3.8351 C   0  0  0  0  0  0  0  0  0  0  0  0
   -2.4472    0.6698   -4.5318 H   0  0  0  0  0  0  0  0  0  0  0  0
   -0.6038    1.5011   -3.8073 N   0  0  0  0  0  0  0  0  0  0  0  0
    0.2518    1.0946   -2.7800 C   0  0  0  0  0  0  0  0  0  0  0  0
    1.1584    1.5962   -2.4674 H   0  0  0  0  0  0  0  0  0  0  0  0
   -0.6600    1.1486    0.4782 C   0  0  0  0  0  0  0  0  0  0  0  0
   -1.5001    1.7648   -0.1771 O   0  0  0  0  0  0  0  0  0  0  0  0
    0.1634    1.7559    1.3418 N   0  0  0  0  0  0  0  0  0  0  0  0
    0.8618    1.1897    1.8008 H   0  0  0  0  0  0  0  0  0  0  0  0
    0.1509    3.1886    1.6256 C   0  0  0  0  0  0  0  0  0  0  0  0
   -0.8272    3.4794    2.0152 H   0  0  0  0  0  0  0  0  0  0  0  0
    0.9172    3.4314    2.3624 H   0  0  0  0  0  0  0  0  0  0  0  0
    0.3414    3.7499    0.7095 H   0  0  0  0  0  0  0  0  0  0  0  0
  5  6  2  0  0  0  0
  5  7  1  0  0  0  0
  2  3  1  0  0  0  0
  2  4  1  0  0  0  0
  2  5  1  0  0  0  0
  1  2  1  0  0  0  0
 22 23  2  0  0  0  0
 22 24  1  0  0  0  0
 20 21  1  0  0  0  0
 19 20  1  0  0  0  0
 17 18  1  0  0  0  0
 17 19  2  0  0  0  0
 15 16  1  0  0  0  0
 15 17  1  0  0  0  0
 14 15  1  0  0  0  0
 14 20  2  0  0  0  0
 11 12  1  0  0  0  0
 11 13  1  0  0  0  0
 11 14  1  0  0  0  0
  9 10  1  0  0  0  0
  9 11  1  0  0  0  0
  9 22  1  0  0  0  0
  7  8  1  0  0  0  0
  7  9  1  0  0  0  0
 26 27  1  0  0  0  0
 26 28  1  0  0  0  0
 26 29  1  0  0  0  0
 24 25  1  0  0  0  0
 24 26  1  0  0  0  0
M  END
$$$$
default_name
  -OEChem-02102213163D

 29 29  0     1  0  0  0  0  0999 V2000
   -3.6042   -3.5728    1.4576 H   0  0  0  0  0  0  0  0  0  0  0  0
   -3.5202   -2.6488    0.8866 C   0  0  0  0  0  0  0  0  0  0  0  0
   -4.2052   -1.9048    1.2896 H   0  0  0  0  0  0  0  0  0  0  0  0
   -3.7552   -2.8428   -0.1584 H   0  0  0  0  0  0  0  0  0  0  0  0
   -2.1052   -2.1358    0.9946 C   0  0  0  0  0  0  0  0  0  0  0  0
   -1.2852   -2.7288    1.6826 O   0  0  0  0  0  0  0  0  0  0  0  0
   -1.8202   -1.0288    0.3146 N   0  0  0  0  0  0  0  0  0  0  0  0
   -2.5542   -0.5788   -0.2104 H   0  0  0  0  0  0  0  0  0  0  0  0
   -0.5102   -0.3728    0.3086 C   0  0  1  0  0  0  0  0  0  0  0  0
    0.0719   -0.7468    1.1521 H   0  0  0  0  0  0  0  0  0  0  0  0
    0.2338   -0.7427   -0.9878 C   0  0  0  0  0  0  0  0  0  0  0  0
    1.2930   -0.5062   -0.8719 H   0  0  0  0  0  0  0  0  0  0  0  0
    0.1463   -1.8180   -1.1537 H   0  0  0  0  0  0  0  0  0  0  0  0
   -0.2863   -0.0271   -2.2075 C   0  0  0  0  0  0  0  0  0  0  0  0
   -1.5689   -0.0945   -2.7079 N   0  0  0  0  0  0  0  0  0  0  0  0
   -2.3089   -0.6911   -2.3695 H   0  0  0  0  0  0  0  0  0  0  0  0
   -1.6616    0.7708   -3.7316 C   0  0  0  0  0  0  0  0  0  0  0  0
   -2.5481    0.9390   -4.3309 H   0  0  0  0  0  0  0  0  0  0  0  0
   -0.4945    1.4071   -3.9090 N   0  0  0  0  0  0  0  0  0  0  0  0
    0.3885    0.9056   -2.9492 C   0  0  0  0  0  0  0  0  0  0  0  0
    1.4117    1.2228   -2.7945 H   0  0  0  0  0  0  0  0  0  0  0  0
   -0.6600    1.1486    0.4782 C   0  0  0  0  0  0  0  0  0  0  0  0
   -1.5001    1.7648   -0.1771 O   0  0  0  0  0  0  0  0  0  0  0  0
    0.1634    1.7559    1.3418 N   0  0  0  0  0  0  0  0  0  0  0  0
    0.8618    1.1897    1.8008 H   0  0  0  0  0  0  0  0  0  0  0  0
    0.1509    3.1886    1.6256 C   0  0  0  0  0  0  0  0  0  0  0  0
   -0.8272    3.4794    2.0152 H   0  0  0  0  0  0  0  0  0  0  0  0
    0.9172    3.4314    2.3624 H   0  0  0  0  0  0  0  0  0  0  0  0
    0.3414    3.7499    0.7095 H   0  0  0  0  0  0  0  0  0  0  0  0
  5  6  2  0  0  0  0
  5  7  1  0  0  0  0
  2  3  1  0  0  0  0
  2  4  1  0  0  0  0
  2  5  1  0  0  0  0
  1  2  1  0  0  0  0
 22 23  2  0  0  0  0
 22 24  1  0  0  0  0
 20 21  1  0  0  0  0
 19 20  1  0  0  0  0
 17 18  1  0  0  0  0
 17 19  2  0  0  0  0
 15 16  1  0  0  0  0
 15 17  1  0  0  0  0
 14 15  1  0  0  0  0
 14 20  2  0  0  0  0
 11 12  1  0  0  0  0
 11 13  1  0  0  0  0
 11 14  1  0  0  0  0
  9 10  1  0  0  0  0
  9 11  1  0  0  0  0
  9 22  1  0  0  0  0
  7  8  1  0  0  0  0
  7  9  1  0  0  0  0
 26 27  1  0  0  0  0
 26 28  1  0  0  0  0
 26 29  1  0  0  0  0
 24 25  1  0  0  0  0
 24 26  1  0  0  0  0
M  END
$$$$
default_name
  -OEChem-02102213163D

 29 29  0     1  0  0  0  0  0999 V2000
   -3.6042   -3.5728    1.4576 H   0  0  0  0  0  0  0  0  0  0  0  0
   -3.5202   -2.6488    0.8866 C   0  0  0  0  0  0  0  0  0  0  0  0
   -4.2052   -1.9048    1.2896 H   0  0  0  0  0  0  0  0  0  0  0  0
   -3.7552   -2.8428   -0.1584 H   0  0  0  0  0  0  0  0  0  0  0  0
   -2.1052   -2.1358    0.9946 C   0  0  0  0  0  0  0  0  0  0  0  0
   -1.2852   -2.7288    1.6826 O   0  0  0  0  0  0  0  0  0  0  0  0
   -1.8202   -1.0288    0.3146 N   0  0  0  0  0  0  0  0  0  0  0  0
   -2.5542   -0.5788   -0.2104 H   0  0  0  0  0  0  0  0  0  0  0  0
   -0.5102   -0.3728    0.3086 C   0  0  1  0  0  0  0  0  0  0  0  0
    0.0719   -0.7468    1.1521 H   0  0  0  0  0  0  0  0  0  0  0  0
    0.2338   -0.7427   -0.9878 C   0  0  0  0  0  0  0  0  0  0  0  0
    1.2930   -0.5062   -0.8719 H   0  0  0  0  0  0  0  0  0  0  0  0
    0.1463   -1.8180   -1.1537 H   0  0  0  0  0  0  0  0  0  0  0  0
   -0.2863   -0.0271   -2.2075 C   0  0  0  0  0  0  0  0  0  0  0  0
   -1.6104    0.1450   -2.5497 N   0  0  0  0  0  0  0  0  0  0  0  0
   -2.4051   -0.2509   -2.0702 H   0  0  0  0  0  0  0  0  0  0  0  0
   -1.6595    0.9294   -3.6395 C   0  0  0  0  0  0  0  0  0  0  0  0
   -2.5644    1.2381   -4.1484 H   0  0  0  0  0  0  0  0  0  0  0  0
   -0.4212    1.2843   -4.0123 N   0  0  0  0  0  0  0  0  0  0  0  0
    0.4602    0.6793   -3.1126 C   0  0  0  0  0  0  0  0  0  0  0  0
    1.5378    0.7799   -3.1082 H   0  0  0  0  0  0  0  0  0  0  0  0
   -0.6600    1.1486    0.4782 C   0  0  0  0  0  0  0  0  0  0  0  0
   -1.5001    1.7648   -0.1771 O   0  0  0  0  0  0  0  0  0  0  0  0
    0.1634    1.7559    1.3418 N   0  0  0  0  0  0  0  0  0  0  0  0
    0.8618    1.1897    1.8008 H   0  0  0  0  0  0  0  0  0  0  0  0
    0.1509    3.1886    1.6256 C   0  0  0  0  0  0  0  0  0  0  0  0
   -0.8272    3.4794    2.0152 H   0  0  0  0  0  0  0  0  0  0  0  0
    0.9172    3.4314    2.3624 H   0  0  0  0  0  0  0  0  0  0  0  0
    0.3414    3.7499    0.7095 H   0  0  0  0  0  0  0  0  0  0  0  0
  5  6  2  0  0  0  0
  5  7  1  0  0  0  0
  2  3  1  0  0  0  0
  2  4  1  0  0  0  0
  2  5  1  0  0  0  0
  1  2  1  0  0  0  0
 22 23  2  0  0  0  0
 22 24  1  0  0  0  0
 20 21  1  0  0  0  0
 19 20  1  0  0  0  0
 17 18  1  0  0  0  0
 17 19  2  0  0  0  0
 15 16  1  0  0  0  0
 15 17  1  0  0  0  0
 14 15  1  0  0  0  0
 14 20  2  0  0  0  0
 11 12  1  0  0  0  0
 11 13  1  0  0  0  0
 11 14  1  0  0  0  0
  9 10  1  0  0  0  0
  9 11  1  0  0  0  0
  9 22  1  0  0  0  0
  7  8  1  0  0  0  0
  7  9  1  0  0  0  0
 26 27  1  0  0  0  0
 26 28  1  0  0  0  0
 26 29  1  0  0  0  0
 24 25  1  0  0  0  0
 24 26  1  0  0  0  0
M  END
$$$$
default_name
  -OEChem-02102213163D

 29 29  0     1  0  0  0  0  0999 V2000
   -3.6042   -3.5728    1.4576 H   0  0  0  0  0  0  0  0  0  0  0  0
   -3.5202   -2.6488    0.8866 C   0  0  0  0  0  0  0  0  0  0  0  0
   -4.2052   -1.9048    1.2896 H   0  0  0  0  0  0  0  0  0  0  0  0
   -3.7552   -2.8428   -0.1584 H   0  0  0  0  0  0  0  0  0  0  0  0
   -2.1052   -2.1358    0.9946 C   0  0  0  0  0  0  0  0  0  0  0  0
   -1.2852   -2.7288    1.6826 O   0  0  0  0  0  0  0  0  0  0  0  0
   -1.8202   -1.0288    0.3146 N   0  0  0  0  0  0  0  0  0  0  0  0
   -2.5542   -0.5788   -0.2104 H   0  0  0  0  0  0  0  0  0  0  0  0
   -0.5102   -0.3728    0.3086 C   0  0  1  0  0  0  0  0  0  0  0  0
    0.0719   -0.7468    1.1521 H   0  0  0  0  0  0  0  0  0  0  0  0
    0.2338   -0.7427   -0.9878 C   0  0  0  0  0  0  0  0  0  0  0  0
    1.2930   -0.5062   -0.8719 H   0  0  0  0  0  0  0  0  0  0  0  0
    0.1463   -1.8180   -1.1537 H   0  0  0  0  0  0  0  0  0  0  0  0
   -0.2863   -0.0271   -2.2075 C   0  0  0  0  0  0  0  0  0  0  0  0
   -1.5809    0.3992   -2.4131 N   0  0  0  0  0  0  0  0  0  0  0  0
   -2.3690    0.2212   -1.8086 H   0  0  0  0  0  0  0  0  0  0  0  0
   -1.6129    1.0903   -3.5649 C   0  0  0  0  0  0  0  0  0  0  0  0
   -2.4951    1.5468   -3.9968 H   0  0  0  0  0  0  0  0  0  0  0  0
   -0.3887    1.1411   -4.1102 N   0  0  0  0  0  0  0  0  0  0  0  0
    0.4620    0.4311   -3.2590 C   0  0  0  0  0  0  0  0  0  0  0  0
    1.5284    0.2975   -3.3871 H   0  0  0  0  0  0  0  0  0  0  0  0
   -0.6600    1.1486    0.4782 C   0  0  0  0  0  0  0  0  0  0  0  0
   -1.5001    1.7648   -0.1771 O   0  0  0  0  0  0  0  0  0  0  0  0
    0.1634    1.7559    1.3418 N   0  0  0  0  0  0  0  0  0  0  0  0
    0.8618    1.1897    1.8008 H   0  0  0  0  0  0  0  0  0  0  0  0
    0.1509    3.1886    1.6256 C   0  0  0  0  0  0  0  0  0  0  0  0
   -0.8272    3.4794    2.0152 H   0  0  0  0  0  0  0  0  0  0  0  0
    0.9172    3.4314    2.3624 H   0  0  0  0  0  0  0  0  0  0  0  0
    0.3414    3.7499    0.7095 H   0  0  0  0  0  0  0  0  0  0  0  0
  5  6  2  0  0  0  0
  5  7  1  0  0  0  0
  2  3  1  0  0  0  0
  2  4  1  0  0  0  0
  2  5  1  0  0  0  0
  1  2  1  0  0  0  0
 22 23  2  0  0  0  0
 22 24  1  0  0  0  0
 20 21  1  0  0  0  0
 19 20  1  0  0  0  0
 17 18  1  0  0  0  0
 17 19  2  0  0  0  0
 15 16  1  0  0  0  0
 15 17  1  0  0  0  0
 14 15  1  0  0  0  0
 14 20  2  0  0  0  0
 11 12  1  0  0  0  0
 11 13  1  0  0  0  0
 11 14  1  0  0  0  0
  9 10  1  0  0  0  0
  9 11  1  0  0  0  0
  9 22  1  0  0  0  0
  7  8  1  0  0  0  0
  7  9  1  0  0  0  0
 26 27  1  0  0  0  0
 26 28  1  0  0  0  0
 26 29  1  0  0  0  0
 24 25  1  0  0  0  0
 24 26  1  0  0  0  0
M  END
$$$$
default_name
  -OEChem-02102213163D

 29 29  0     1  0  0  0  0  0999 V2000
   -3.6042   -3.5728    1.4576 H   0  0  0  0  0  0  0  0  0  0  0  0
   -3.5202   -2.6488    0.8866 C   0  0  0  0  0  0  0  0  0  0  0  0
   -4.2052   -1.9048    1.2896 H   0  0  0  0  0  0  0  0  0  0  0  0
   -3.7552   -2.8428   -0.1584 H   0  0  0  0  0  0  0  0  0  0  0  0
   -2.1052   -2.1358    0.9946 C   0  0  0  0  0  0  0  0  0  0  0  0
   -1.2852   -2.7288    1.6826 O   0  0  0  0  0  0  0  0  0  0  0  0
   -1.8202   -1.0288    0.3146 N   0  0  0  0  0  0  0  0  0  0  0  0
   -2.5542   -0.5788   -0.2104 H   0  0  0  0  0  0  0  0  0  0  0  0
   -0.5102   -0.3728    0.3086 C   0  0  1  0  0  0  0  0  0  0  0  0
    0.0719   -0.7468    1.1521 H   0  0  0  0  0  0  0  0  0  0  0  0
    0.2338   -0.7427   -0.9878 C   0  0  0  0  0  0  0  0  0  0  0  0
    1.2930   -0.5062   -0.8719 H   0  0  0  0  0  0  0  0  0  0  0  0
    0.1463   -1.8180   -1.1537 H   0  0  0  0  0  0  0  0  0  0  0  0
   -0.2863   -0.0271   -2.2075 C   0  0  0  0  0  0  0  0  0  0  0  0
   -1.4824    0.6507   -2.3076 N   0  0  0  0  0  0  0  0  0  0  0  0
   -2.2030    0.6931   -1.6025 H   0  0  0  0  0  0  0  0  0  0  0  0
   -1.5250    1.2427   -3.5130 C   0  0  0  0  0  0  0  0  0  0  0  0
   -2.3448    1.8439   -3.8866 H   0  0  0  0  0  0  0  0  0  0  0  0
   -0.3995    0.9873   -4.1959 N   0  0  0  0  0  0  0  0  0  0  0  0
    0.3937    0.1779   -3.3784 C   0  0  0  0  0  0  0  0  0  0  0  0
    1.3838   -0.1913   -3.6123 H   0  0  0  0  0  0  0  0  0  0  0  0
   -0.6600    1.1486    0.4782 C   0  0  0  0  0  0  0  0  0  0  0  0
   -1.5001    1.7648   -0.1771 O   0  0  0  0  0  0  0  0  0  0  0  0
    0.1634    1.7559    1.3418 N   0  0  0  0  0  0  0  0  0  0  0  0
    0.8618    1.1897    1.8008 H   0  0  0  0  0  0  0  0  0  0  0  0
    0.1509    3.1886    1.6256 C   0  0  0  0  0  0  0  0  0  0  0  0
   -0.8272    3.4794    2.0152 H   0  0  0  0  0  0  0  0  0  0  0  0
    0.9172    3.4314    2.3624 H   0  0  0  0  0  0  0  0  0  0  0  0
    0.3414    3.7499    0.7095 H   0  0  0  0  0  0  0  0  0  0  0  0
  5  6  2  0  0  0  0
  5  7  1  0  0  0  0
  2  3  1  0  0  0  0
  2  4  1  0  0  0  0
  2  5  1  0  0  0  0
  1  2  1  0  0  0  0
 22 23  2  0  0  0  0
 22 24  1  0  0  0  0
 20 21  1  0  0  0  0
 19 20  1  0  0  0  0
 17 18  1  0  0  0  0
 17 19  2  0  0  0  0
 15 16  1  0  0  0  0
 15 17  1  0  0  0  0
 14 15  1  0  0  0  0
 14 20  2  0  0  0  0
 11 12  1  0  0  0  0
 11 13  1  0  0  0  0
 11 14  1  0  0  0  0
  9 10  1  0  0  0  0
  9 11  1  0  0  0  0
  9 22  1  0  0  0  0
  7  8  1  0  0  0  0
  7  9  1  0  0  0  0
 26 27  1  0  0  0  0
 26 28  1  0  0  0  0
 26 29  1  0  0  0  0
 24 25  1  0  0  0  0
 24 26  1  0  0  0  0
M  END
$$$$
default_name
  -OEChem-02102213163D

 29 29  0     1  0  0  0  0  0999 V2000
   -3.6042   -3.5728    1.4576 H   0  0  0  0  0  0  0  0  0  0  0  0
   -3.5202   -2.6488    0.8866 C   0  0  0  0  0  0  0  0  0  0  0  0
   -4.2052   -1.9048    1.2896 H   0  0  0  0  0  0  0  0  0  0  0  0
   -3.7552   -2.8428   -0.1584 H   0  0  0  0  0  0  0  0  0  0  0  0
   -2.1052   -2.1358    0.9946 C   0  0  0  0  0  0  0  0  0  0  0  0
   -1.2852   -2.7288    1.6826 O   0  0  0  0  0  0  0  0  0  0  0  0
   -1.8202   -1.0288    0.3146 N   0  0  0  0  0  0  0  0  0  0  0  0
   -2.5542   -0.5788   -0.2104 H   0  0  0  0  0  0  0  0  0  0  0  0
   -0.5102   -0.3728    0.3086 C   0  0  1  0  0  0  0  0  0  0  0  0
    0.0719   -0.7468    1.1521 H   0  0  0  0  0  0  0  0  0  0  0  0
    0.2338   -0.7427   -0.9878 C   0  0  0  0  0  0  0  0  0  0  0  0
    1.2930   -0.5062   -0.8719 H   0  0  0  0  0  0  0  0  0  0  0  0
    0.1463   -1.8180   -1.1537 H   0  0  0  0  0  0  0  0  0  0  0  0
   -0.2863   -0.0271   -2.2075 C   0  0  0  0  0  0  0  0  0  0  0  0
   -1.3215    0.8825   -2.2402 N   0  0  0  0  0  0  0  0  0  0  0  0
   -1.9185    1.1324   -1.4660 H   0  0  0  0  0  0  0  0  0  0  0  0
   -1.4018    1.3761   -3.4873 C   0  0  0  0  0  0  0  0  0  0  0  0
   -2.1239    2.1094   -3.8250 H   0  0  0  0  0  0  0  0  0  0  0  0
   -0.4526    0.8333   -4.2636 N   0  0  0  0  0  0  0  0  0  0  0  0
    0.2600   -0.0631   -3.4627 C   0  0  0  0  0  0  0  0  0  0  0  0
    1.1142   -0.6533   -3.7684 H   0  0  0  0  0  0  0  0  0  0  0  0
   -0.6600    1.1486    0.4782 C   0  0  0  0  0  0  0  0  0  0  0  0
   -1.5001    1.7648   -0.1771 O   0  0  0  0  0  0  0  0  0  0  0  0
    0.1634    1.7559    1.3418 N   0  0  0  0  0  0  0  0  0  0  0  0
    0.8618    1.1897    1.8008 H   0  0  0  0  0  0  0  0  0  0  0  0
    0.1509    3.1886    1.6256 C   0  0  0  0  0  0  0  0  0  0  0  0
   -0.8272    3.4794    2.0152 H   0  0  0  0  0  0  0  0  0  0  0  0
    0.9172    3.4314    2.3624 H   0  0  0  0  0  0  0  0  0  0  0  0
    0.3414    3.7499    0.7095 H   0  0  0  0  0  0  0  0  0  0  0  0
  5  6  2  0  0  0  0
  5  7  1  0  0  0  0
  2  3  1  0  0  0  0
  2  4  1  0  0  0  0
  2  5  1  0  0  0  0
  1  2  1  0  0  0  0
 22 23  2  0  0  0  0
 22 24  1  0  0  0  0
 20 21  1  0  0  0  0
 19 20  1  0  0  0  0
 17 18  1  0  0  0  0
 17 19  2  0  0  0  0
 15 16  1  0  0  0  0
 15 17  1  0  0  0  0
 14 15  1  0  0  0  0
 14 20  2  0  0  0  0
 11 12  1  0  0  0  0
 11 13  1  0  0  0  0
 11 14  1  0  0  0  0
  9 10  1  0  0  0  0
  9 11  1  0  0  0  0
  9 22  1  0  0  0  0
  7  8  1  0  0  0  0
  7  9  1  0  0  0  0
 26 27  1  0  0  0  0
 26 28  1  0  0  0  0
 26 29  1  0  0  0  0
 24 25  1  0  0  0  0
 24 26  1  0  0  0  0
M  END
$$$$
default_name
  -OEChem-02102213163D

 29 29  0     1  0  0  0  0  0999 V2000
   -3.6042   -3.5728    1.4576 H   0  0  0  0  0  0  0  0  0  0  0  0
   -3.5202   -2.6488    0.8866 C   0  0  0  0  0  0  0  0  0  0  0  0
   -4.2052   -1.9048    1.2896 H   0  0  0  0  0  0  0  0  0  0  0  0
   -3.7552   -2.8428   -0.1584 H   0  0  0  0  0  0  0  0  0  0  0  0
   -2.1052   -2.1358    0.9946 C   0  0  0  0  0  0  0  0  0  0  0  0
   -1.2852   -2.7288    1.6826 O   0  0  0  0  0  0  0  0  0  0  0  0
   -1.8202   -1.0288    0.3146 N   0  0  0  0  0  0  0  0  0  0  0  0
   -2.5542   -0.5788   -0.2104 H   0  0  0  0  0  0  0  0  0  0  0  0
   -0.5102   -0.3728    0.3086 C   0  0  1  0  0  0  0  0  0  0  0  0
    0.0719   -0.7468    1.1521 H   0  0  0  0  0  0  0  0  0  0  0  0
    0.2338   -0.7427   -0.9878 C   0  0  0  0  0  0  0  0  0  0  0  0
    1.2930   -0.5062   -0.8719 H   0  0  0  0  0  0  0  0  0  0  0  0
    0.1463   -1.8180   -1.1537 H   0  0  0  0  0  0  0  0  0  0  0  0
   -0.2863   -0.0271   -2.2075 C   0  0  0  0  0  0  0  0  0  0  0  0
   -1.1093    1.0786   -2.2156 N   0  0  0  0  0  0  0  0  0  0  0  0
   -1.5348    1.5095   -1.4084 H   0  0  0  0  0  0  0  0  0  0  0  0
   -1.2517    1.4814   -3.4895 C   0  0  0  0  0  0  0  0  0  0  0  0
   -1.8473    2.3249   -3.8165 H   0  0  0  0  0  0  0  0  0  0  0  0
   -0.5445    0.6896   -4.3087 N   0  0  0  0  0  0  0  0  0  0  0  0
    0.0700   -0.2753   -3.5063 C   0  0  0  0  0  0  0  0  0  0  0  0
    0.7377   -1.0570   -3.8447 H   0  0  0  0  0  0  0  0  0  0  0  0
   -0.6600    1.1486    0.4782 C   0  0  0  0  0  0  0  0  0  0  0  0
   -1.5001    1.7648   -0.1771 O   0  0  0  0  0  0  0  0  0  0  0  0
    0.1634    1.7559    1.3418 N   0  0  0  0  0  0  0  0  0  0  0  0
    0.8618    1.1897    1.8008 H   0  0  0  0  0  0  0  0  0  0  0  0
    0.1509    3.1886    1.6256 C   0  0  0  0  0  0  0  0  0  0  0  0
   -0.8272    3.4794    2.0152 H   0  0  0  0  0  0  0  0  0  0  0  0
    0.9172    3.4314    2.3624 H   0  0  0  0  0  0  0  0  0  0  0  0
    0.3414    3.7499    0.7095 H   0  0  0  0  0  0  0  0  0  0  0  0
  5  6  2  0  0  0  0
  5  7  1  0  0  0  0
  2  3  1  0  0  0  0
  2  4  1  0  0  0  0
  2  5  1  0  0  0  0
  1  2  1  0  0  0  0
 22 23  2  0  0  0  0
 22 24  1  0  0  0  0
 20 21  1  0  0  0  0
 19 20  1  0  0  0  0
 17 18  1  0  0  0  0
 17 19  2  0  0  0  0
 15 16  1  0  0  0  0
 15 17  1  0  0  0  0
 14 15  1  0  0  0  0
 14 20  2  0  0  0  0
 11 12  1  0  0  0  0
 11 13  1  0  0  0  0
 11 14  1  0  0  0  0
  9 10  1  0  0  0  0
  9 11  1  0  0  0  0
  9 22  1  0  0  0  0
  7  8  1  0  0  0  0
  7  9  1  0  0  0  0
 26 27  1  0  0  0  0
 26 28  1  0  0  0  0
 26 29  1  0  0  0  0
 24 25  1  0  0  0  0
 24 26  1  0  0  0  0
M  END
$$$$
default_name
  -OEChem-02102213163D

 29 29  0     1  0  0  0  0  0999 V2000
   -3.6042   -3.5728    1.4576 H   0  0  0  0  0  0  0  0  0  0  0  0
   -3.5202   -2.6488    0.8866 C   0  0  0  0  0  0  0  0  0  0  0  0
   -4.2052   -1.9048    1.2896 H   0  0  0  0  0  0  0  0  0  0  0  0
   -3.7552   -2.8428   -0.1584 H   0  0  0  0  0  0  0  0  0  0  0  0
   -2.1052   -2.1358    0.9946 C   0  0  0  0  0  0  0  0  0  0  0  0
   -1.2852   -2.7288    1.6826 O   0  0  0  0  0  0  0  0  0  0  0  0
   -1.8202   -1.0288    0.3146 N   0  0  0  0  0  0  0  0  0  0  0  0
   -2.5542   -0.5788   -0.2104 H   0  0  0  0  0  0  0  0  0  0  0  0
   -0.5102   -0.3728    0.3086 C   0  0  1  0  0  0  0  0  0  0  0  0
    0.0719   -0.7468    1.1521 H   0  0  0  0  0  0  0  0  0  0  0  0
    0.2338   -0.7427   -0.9878 C   0  0  0  0  0  0  0  0  0  0  0  0
    1.2930   -0.5062   -0.8719 H   0  0  0  0  0  0  0  0  0  0  0  0
    0.1463   -1.8180   -1.1537 H   0  0  0  0  0  0  0  0  0  0  0  0
   -0.2863   -0.0271   -2.2075 C   0  0  0  0  0  0  0  0  0  0  0  0
   -0.8602    1.2259   -2.2354 N   0  0  0  0  0  0  0  0  0  0  0  0
   -1.0782    1.7984   -1.4336 H   0  0  0  0  0  0  0  0  0  0  0  0
   -1.0849    1.5515   -3.5195 C   0  0  0  0  0  0  0  0  0  0  0  0
   -1.5339    2.4760   -3.8615 H   0  0  0  0  0  0  0  0  0  0  0  0
   -0.6689    0.5660   -4.3282 N   0  0  0  0  0  0  0  0  0  0  0  0
   -0.1633   -0.4444   -3.5060 C   0  0  0  0  0  0  0  0  0  0  0  0
    0.2801   -1.3749   -3.8361 H   0  0  0  0  0  0  0  0  0  0  0  0
   -0.6600    1.1486    0.4782 C   0  0  0  0  0  0  0  0  0  0  0  0
   -1.5001    1.7648   -0.1771 O   0  0  0  0  0  0  0  0  0  0  0  0
    0.1634    1.7559    1.3418 N   0  0  0  0  0  0  0  0  0  0  0  0
    0.8618    1.1897    1.8008 H   0  0  0  0  0  0  0  0  0  0  0  0
    0.1509    3.1886    1.6256 C   0  0  0  0  0  0  0  0  0  0  0  0
   -0.8272    3.4794    2.0152 H   0  0  0  0  0  0  0  0  0  0  0  0
    0.9172    3.4314    2.3624 H   0  0  0  0  0  0  0  0  0  0  0  0
    0.3414    3.7499    0.7095 H   0  0  0  0  0  0  0  0  0  0  0  0
  5  6  2  0  0  0  0
  5  7  1  0  0  0  0
  2  3  1  0  0  0  0
  2  4  1  0  0  0  0
  2  5  1  0  0  0  0
  1  2  1  0  0  0  0
 22 23  2  0  0  0  0
 22 24  1  0  0  0  0
 20 21  1  0  0  0  0
 19 20  1  0  0  0  0
 17 18  1  0  0  0  0
 17 19  2  0  0  0  0
 15 16  1  0  0  0  0
 15 17  1  0  0  0  0
 14 15  1  0  0  0  0
 14 20  2  0  0  0  0
 11 12  1  0  0  0  0
 11 13  1  0  0  0  0
 11 14  1  0  0  0  0
  9 10  1  0  0  0  0
  9 11  1  0  0  0  0
  9 22  1  0  0  0  0
  7  8  1  0  0  0  0
  7  9  1  0  0  0  0
 26 27  1  0  0  0  0
 26 28  1  0  0  0  0
 26 29  1  0  0  0  0
 24 25  1  0  0  0  0
 24 26  1  0  0  0  0
M  END
$$$$
default_name
  -OEChem-02102213163D

 29 29  0     1  0  0  0  0  0999 V2000
   -3.6042   -3.5728    1.4576 H   0  0  0  0  0  0  0  0  0  0  0  0
   -3.5202   -2.6488    0.8866 C   0  0  0  0  0  0  0  0  0  0  0  0
   -4.2052   -1.9048    1.2896 H   0  0  0  0  0  0  0  0  0  0  0  0
   -3.7552   -2.8428   -0.1584 H   0  0  0  0  0  0  0  0  0  0  0  0
   -2.1052   -2.1358    0.9946 C   0  0  0  0  0  0  0  0  0  0  0  0
   -1.2852   -2.7288    1.6826 O   0  0  0  0  0  0  0  0  0  0  0  0
   -1.8202   -1.0288    0.3146 N   0  0  0  0  0  0  0  0  0  0  0  0
   -2.5542   -0.5788   -0.2104 H   0  0  0  0  0  0  0  0  0  0  0  0
   -0.5102   -0.3728    0.3086 C   0  0  1  0  0  0  0  0  0  0  0  0
    0.0719   -0.7468    1.1521 H   0  0  0  0  0  0  0  0  0  0  0  0
    0.2338   -0.7427   -0.9878 C   0  0  0  0  0  0  0  0  0  0  0  0
    1.2930   -0.5062   -0.8719 H   0  0  0  0  0  0  0  0  0  0  0  0
    0.1463   -1.8180   -1.1537 H   0  0  0  0  0  0  0  0  0  0  0  0
   -0.2863   -0.0271   -2.2075 C   0  0  0  0  0  0  0  0  0  0  0  0
   -0.5911    1.3141   -2.2983 N   0  0  0  0  0  0  0  0  0  0  0  0
   -0.5796    1.9796   -1.5399 H   0  0  0  0  0  0  0  0  0  0  0  0
   -0.9127    1.5816   -3.5752 C   0  0  0  0  0  0  0  0  0  0  0  0
   -1.2051    2.5522   -3.9570 H   0  0  0  0  0  0  0  0  0  0  0  0
   -0.8173    0.4710   -4.3206 N   0  0  0  0  0  0  0  0  0  0  0  0
   -0.4241   -0.5588   -3.4619 C   0  0  0  0  0  0  0  0  0  0  0  0
   -0.2275   -1.5853   -3.7431 H   0  0  0  0  0  0  0  0  0  0  0  0
   -0.6600    1.1486    0.4782 C   0  0  0  0  0  0  0  0  0  0  0  0
   -1.5001    1.7648   -0.1771 O   0  0  0  0  0  0  0  0  0  0  0  0
    0.1634    1.7559    1.3418 N   0  0  0  0  0  0  0  0  0  0  0  0
    0.8618    1.1897    1.8008 H   0  0  0  0  0  0  0  0  0  0  0  0
    0.1509    3.1886    1.6256 C   0  0  0  0  0  0  0  0  0  0  0  0
   -0.8272    3.4794    2.0152 H   0  0  0  0  0  0  0  0  0  0  0  0
    0.9172    3.4314    2.3624 H   0  0  0  0  0  0  0  0  0  0  0  0
    0.3414    3.7499    0.7095 H   0  0  0  0  0  0  0  0  0  0  0  0
  5  6  2  0  0  0  0
  5  7  1  0  0  0  0
  2  3  1  0  0  0  0
  2  4  1  0  0  0  0
  2  5  1  0  0  0  0
  1  2  1  0  0  0  0
 22 23  2  0  0  0  0
 22 24  1  0  0  0  0
 20 21  1  0  0  0  0
 19 20  1  0  0  0  0
 17 18  1  0  0  0  0
 17 19  2  0  0  0  0
 15 16  1  0  0  0  0
 15 17  1  0  0  0  0
 14 15  1  0  0  0  0
 14 20  2  0  0  0  0
 11 12  1  0  0  0  0
 11 13  1  0  0  0  0
 11 14  1  0  0  0  0
  9 10  1  0  0  0  0
  9 11  1  0  0  0  0
  9 22  1  0  0  0  0
  7  8  1  0  0  0  0
  7  9  1  0  0  0  0
 26 27  1  0  0  0  0
 26 28  1  0  0  0  0
 26 29  1  0  0  0  0
 24 25  1  0  0  0  0
 24 26  1  0  0  0  0
M  END
$$$$
default_name
  -OEChem-02102213163D

 29 29  0     1  0  0  0  0  0999 V2000
   -3.6042   -3.5728    1.4576 H   0  0  0  0  0  0  0  0  0  0  0  0
   -3.5202   -2.6488    0.8866 C   0  0  0  0  0  0  0  0  0  0  0  0
   -4.2052   -1.9048    1.2896 H   0  0  0  0  0  0  0  0  0  0  0  0
   -3.7552   -2.8428   -0.1584 H   0  0  0  0  0  0  0  0  0  0  0  0
   -2.1052   -2.1358    0.9946 C   0  0  0  0  0  0  0  0  0  0  0  0
   -1.2852   -2.7288    1.6826 O   0  0  0  0  0  0  0  0  0  0  0  0
   -1.8202   -1.0288    0.3146 N   0  0  0  0  0  0  0  0  0  0  0  0
   -2.5542   -0.5788   -0.2104 H   0  0  0  0  0  0  0  0  0  0  0  0
   -0.5102   -0.3728    0.3086 C   0  0  1  0  0  0  0  0  0  0  0  0
    0.0719   -0.7468    1.1521 H   0  0  0  0  0  0  0  0  0  0  0  0
    0.2338   -0.7427   -0.9878 C   0  0  0  0  0  0  0  0  0  0  0  0
    1.2930   -0.5062   -0.8719 H   0  0  0  0  0  0  0  0  0  0  0  0
    0.1463   -1.8180   -1.1537 H   0  0  0  0  0  0  0  0  0  0  0  0
   -0.2863   -0.0271   -2.2075 C   0  0  0  0  0  0  0  0  0  0  0  0
   -0.3205    1.3374   -2.4001 N   0  0  0  0  0  0  0  0  0  0  0  0
   -0.0732    2.0406   -1.7200 H   0  0  0  0  0  0  0  0  0  0  0  0
   -0.7470    1.5696   -3.6529 C   0  0  0  0  0  0  0  0  0  0  0  0
   -0.8833    2.5484   -4.0965 H   0  0  0  0  0  0  0  0  0  0  0  0
   -0.9797    0.4109   -4.2866 N   0  0  0  0  0  0  0  0  0  0  0  0
   -0.6946   -0.6108   -3.3771 C   0  0  0  0  0  0  0  0  0  0  0  0
   -0.7504   -1.6739   -3.5721 H   0  0  0  0  0  0  0  0  0  0  0  0
   -0.6600    1.1486    0.4782 C   0  0  0  0  0  0  0  0  0  0  0  0
   -1.5001    1.7648   -0.1771 O   0  0  0  0  0  0  0  0  0  0  0  0
    0.1634    1.7559    1.3418 N   0  0  0  0  0  0  0  0  0  0  0  0
    0.8618    1.1897    1.8008 H   0  0  0  0  0  0  0  0  0  0  0  0
    0.1509    3.1886    1.6256 C   0  0  0  0  0  0  0  0  0  0  0  0
   -0.8272    3.4794    2.0152 H   0  0  0  0  0  0  0  0  0  0  0  0
    0.9172    3.4314    2.3624 H   0  0  0  0  0  0  0  0  0  0  0  0
    0.3414    3.7499    0.7095 H   0  0  0  0  0  0  0  0  0  0  0  0
  5  6  2  0  0  0  0
  5  7  1  0  0  0  0
  2  3  1  0  0  0  0
  2  4  1  0  0  0  0
  2  5  1  0  0  0  0
  1  2  1  0  0  0  0
 22 23  2  0  0  0  0
 22 24  1  0  0  0  0
 20 21  1  0  0  0  0
 19 20  1  0  0  0  0
 17 18  1  0  0  0  0
 17 19  2  0  0  0  0
 15 16  1  0  0  0  0
 15 17  1  0  0  0  0
 14 15  1  0  0  0  0
 14 20  2  0  0  0  0
 11 12  1  0  0  0  0
 11 13  1  0  0  0  0
 11 14  1  0  0  0  0
  9 10  1  0  0  0  0
  9 11  1  0  0  0  0
  9 22  1  0  0  0  0
  7  8  1  0  0  0  0
  7  9  1  0  0  0  0
 26 27  1  0  0  0  0
 26 28  1  0  0  0  0
 26 29  1  0  0  0  0
 24 25  1  0  0  0  0
 24 26  1  0  0  0  0
M  END
$$$$
default_name
  -OEChem-02102213163D

 29 29  0     1  0  0  0  0  0999 V2000
   -3.6042   -3.5728    1.4576 H   0  0  0  0  0  0  0  0  0  0  0  0
   -3.5202   -2.6488    0.8866 C   0  0  0  0  0  0  0  0  0  0  0  0
   -4.2052   -1.9048    1.2896 H   0  0  0  0  0  0  0  0  0  0  0  0
   -3.7552   -2.8428   -0.1584 H   0  0  0  0  0  0  0  0  0  0  0  0
   -2.1052   -2.1358    0.9946 C   0  0  0  0  0  0  0  0  0  0  0  0
   -1.2852   -2.7288    1.6826 O   0  0  0  0  0  0  0  0  0  0  0  0
   -1.8202   -1.0288    0.3146 N   0  0  0  0  0  0  0  0  0  0  0  0
   -2.5542   -0.5788   -0.2104 H   0  0  0  0  0  0  0  0  0  0  0  0
   -0.5102   -0.3728    0.3086 C   0  0  1  0  0  0  0  0  0  0  0  0
    0.0719   -0.7468    1.1521 H   0  0  0  0  0  0  0  0  0  0  0  0
    0.2338   -0.7427   -0.9878 C   0  0  0  0  0  0  0  0  0  0  0  0
    1.2930   -0.5062   -0.8719 H   0  0  0  0  0  0  0  0  0  0  0  0
    0.1463   -1.8180   -1.1537 H   0  0  0  0  0  0  0  0  0  0  0  0
   -0.2863   -0.0271   -2.2075 C   0  0  0  0  0  0  0  0  0  0  0  0
   -0.0668    1.2941   -2.5337 N   0  0  0  0  0  0  0  0  0  0  0  0
    0.4066    1.9774   -1.9617 H   0  0  0  0  0  0  0  0  0  0  0  0
   -0.5990    1.5164   -3.7472 C   0  0  0  0  0  0  0  0  0  0  0  0
   -0.5904    2.4648   -4.2704 H   0  0  0  0  0  0  0  0  0  0  0  0
   -1.1450    0.3900   -4.2284 N   0  0  0  0  0  0  0  0  0  0  0  0
   -0.9563   -0.5967   -3.2572 C   0  0  0  0  0  0  0  0  0  0  0  0
   -1.2530   -1.6347   -3.3348 H   0  0  0  0  0  0  0  0  0  0  0  0
   -0.6600    1.1486    0.4782 C   0  0  0  0  0  0  0  0  0  0  0  0
   -1.5001    1.7648   -0.1771 O   0  0  0  0  0  0  0  0  0  0  0  0
    0.1634    1.7559    1.3418 N   0  0  0  0  0  0  0  0  0  0  0  0
    0.8618    1.1897    1.8008 H   0  0  0  0  0  0  0  0  0  0  0  0
    0.1509    3.1886    1.6256 C   0  0  0  0  0  0  0  0  0  0  0  0
   -0.8272    3.4794    2.0152 H   0  0  0  0  0  0  0  0  0  0  0  0
    0.9172    3.4314    2.3624 H   0  0  0  0  0  0  0  0  0  0  0  0
    0.3414    3.7499    0.7095 H   0  0  0  0  0  0  0  0  0  0  0  0
  5  6  2  0  0  0  0
  5  7  1  0  0  0  0
  2  3  1  0  0  0  0
  2  4  1  0  0  0  0
  2  5  1  0  0  0  0
  1  2  1  0  0  0  0
 22 23  2  0  0  0  0
 22 24  1  0  0  0  0
 20 21  1  0  0  0  0
 19 20  1  0  0  0  0
 17 18  1  0  0  0  0
 17 19  2  0  0  0  0
 15 16  1  0  0  0  0
 15 17  1  0  0  0  0
 14 15  1  0  0  0  0
 14 20  2  0  0  0  0
 11 12  1  0  0  0  0
 11 13  1  0  0  0  0
 11 14  1  0  0  0  0
  9 10  1  0  0  0  0
  9 11  1  0  0  0  0
  9 22  1  0  0  0  0
  7  8  1  0  0  0  0
  7  9  1  0  0  0  0
 26 27  1  0  0  0  0
 26 28  1  0  0  0  0
 26 29  1  0  0  0  0
 24 25  1  0  0  0  0
 24 26  1  0  0  0  0
M  END
$$$$
default_name
  -OEChem-02102213163D

 29 29  0     1  0  0  0  0  0999 V2000
   -3.6042   -3.5728    1.4576 H   0  0  0  0  0  0  0  0  0  0  0  0
   -3.5202   -2.6488    0.8866 C   0  0  0  0  0  0  0  0  0  0  0  0
   -4.2052   -1.9048    1.2896 H   0  0  0  0  0  0  0  0  0  0  0  0
   -3.7552   -2.8428   -0.1584 H   0  0  0  0  0  0  0  0  0  0  0  0
   -2.1052   -2.1358    0.9946 C   0  0  0  0  0  0  0  0  0  0  0  0
   -1.2852   -2.7288    1.6826 O   0  0  0  0  0  0  0  0  0  0  0  0
   -1.8202   -1.0288    0.3146 N   0  0  0  0  0  0  0  0  0  0  0  0
   -2.5542   -0.5788   -0.2104 H   0  0  0  0  0  0  0  0  0  0  0  0
   -0.5102   -0.3728    0.3086 C   0  0  1  0  0  0  0  0  0  0  0  0
    0.0719   -0.7468    1.1521 H   0  0  0  0  0  0  0  0  0  0  0  0
    0.2338   -0.7427   -0.9878 C   0  0  0  0  0  0  0  0  0  0  0  0
    1.2930   -0.5062   -0.8719 H   0  0  0  0  0  0  0  0  0  0  0  0
    0.1463   -1.8180   -1.1537 H   0  0  0  0  0  0  0  0  0  0  0  0
   -0.2863   -0.0271   -2.2075 C   0  0  0  0  0  0  0  0  0  0  0  0
    0.1529    1.1871   -2.6901 N   0  0  0  0  0  0  0  0  0  0  0  0
    0.8271    1.7942   -2.2485 H   0  0  0  0  0  0  0  0  0  0  0  0
   -0.4788    1.4256   -3.8518 C   0  0  0  0  0  0  0  0  0  0  0  0
   -0.3463    2.3072   -4.4670 H   0  0  0  0  0  0  0  0  0  0  0  0
   -1.3018    0.4096   -4.1500 N   0  0  0  0  0  0  0  0  0  0  0  0
   -1.1914   -0.5176   -3.1106 C   0  0  0  0  0  0  0  0  0  0  0  0
   -1.7012   -1.4703   -3.0472 H   0  0  0  0  0  0  0  0  0  0  0  0
   -0.6600    1.1486    0.4782 C   0  0  0  0  0  0  0  0  0  0  0  0
   -1.5001    1.7648   -0.1771 O   0  0  0  0  0  0  0  0  0  0  0  0
    0.1634    1.7559    1.3418 N   0  0  0  0  0  0  0  0  0  0  0  0
    0.8618    1.1897    1.8008 H   0  0  0  0  0  0  0  0  0  0  0  0
    0.1509    3.1886    1.6256 C   0  0  0  0  0  0  0  0  0  0  0  0
   -0.8272    3.4794    2.0152 H   0  0  0  0  0  0  0  0  0  0  0  0
    0.9172    3.4314    2.3624 H   0  0  0  0  0  0  0  0  0  0  0  0
    0.3414    3.7499    0.7095 H   0  0  0  0  0  0  0  0  0  0  0  0
  5  6  2  0  0  0  0
  5  7  1  0  0  0  0
  2  3  1  0  0  0  0
  2  4  1  0  0  0  0
  2  5  1  0  0  0  0
  1  2  1  0  0  0  0
 22 23  2  0  0  0  0
 22 24  1  0  0  0  0
 20 21  1  0  0  0  0
 19 20  1  0  0  0  0
 17 18  1  0  0  0  0
 17 19  2  0  0  0  0
 15 16  1  0  0  0  0
 15 17  1  0  0  0  0
 14 15  1  0  0  0  0
 14 20  2  0  0  0  0
 11 12  1  0  0  0  0
 11 13  1  0  0  0  0
 11 14  1  0  0  0  0
  9 10  1  0  0  0  0
  9 11  1  0  0  0  0
  9 22  1  0  0  0  0
  7  8  1  0  0  0  0
  7  9  1  0  0  0  0
 26 27  1  0  0  0  0
 26 28  1  0  0  0  0
 26 29  1  0  0  0  0
 24 25  1  0  0  0  0
 24 26  1  0  0  0  0
M  END
$$$$
default_name
  -OEChem-02102213163D

 29 29  0     1  0  0  0  0  0999 V2000
   -3.6042   -3.5728    1.4576 H   0  0  0  0  0  0  0  0  0  0  0  0
   -3.5202   -2.6488    0.8866 C   0  0  0  0  0  0  0  0  0  0  0  0
   -4.2052   -1.9048    1.2896 H   0  0  0  0  0  0  0  0  0  0  0  0
   -3.7552   -2.8428   -0.1584 H   0  0  0  0  0  0  0  0  0  0  0  0
   -2.1052   -2.1358    0.9946 C   0  0  0  0  0  0  0  0  0  0  0  0
   -1.2852   -2.7288    1.6826 O   0  0  0  0  0  0  0  0  0  0  0  0
   -1.8202   -1.0288    0.3146 N   0  0  0  0  0  0  0  0  0  0  0  0
   -2.5542   -0.5788   -0.2104 H   0  0  0  0  0  0  0  0  0  0  0  0
   -0.5102   -0.3728    0.3086 C   0  0  1  0  0  0  0  0  0  0  0  0
    0.0719   -0.7468    1.1521 H   0  0  0  0  0  0  0  0  0  0  0  0
    0.2338   -0.7427   -0.9878 C   0  0  0  0  0  0  0  0  0  0  0  0
    1.2930   -0.5062   -0.8719 H   0  0  0  0  0  0  0  0  0  0  0  0
    0.1463   -1.8180   -1.1537 H   0  0  0  0  0  0  0  0  0  0  0  0
   -0.2863   -0.0271   -2.2075 C   0  0  0  0  0  0  0  0  0  0  0  0
    0.3234    1.0238   -2.8587 N   0  0  0  0  0  0  0  0  0  0  0  0
    1.1597    1.5035   -2.5609 H   0  0  0  0  0  0  0  0  0  0  0  0
   -0.3946    1.3033   -3.9595 C   0  0  0  0  0  0  0  0  0  0  0  0
   -0.1678    2.0863   -4.6727 H   0  0  0  0  0  0  0  0  0  0  0  0
   -1.4395    0.4685   -4.0568 N   0  0  0  0  0  0  0  0  0  0  0  0
   -1.3838   -0.3789   -2.9471 C   0  0  0  0  0  0  0  0  0  0  0  0
   -2.0642   -1.1919   -2.7291 H   0  0  0  0  0  0  0  0  0  0  0  0
   -0.6600    1.1486    0.4782 C   0  0  0  0  0  0  0  0  0  0  0  0
   -1.5001    1.7648   -0.1771 O   0  0  0  0  0  0  0  0  0  0  0  0
    0.1634    1.7559    1.3418 N   0  0  0  0  0  0  0  0  0  0  0  0
    0.8618    1.1897    1.8008 H   0  0  0  0  0  0  0  0  0  0  0  0
    0.1509    3.1886    1.6256 C   0  0  0  0  0  0  0  0  0  0  0  0
   -0.8272    3.4794    2.0152 H   0  0  0  0  0  0  0  0  0  0  0  0
    0.9172    3.4314    2.3624 H   0  0  0  0  0  0  0  0  0  0  0  0
    0.3414    3.7499    0.7095 H   0  0  0  0  0  0  0  0  0  0  0  0
  5  6  2  0  0  0  0
  5  7  1  0  0  0  0
  2  3  1  0  0  0  0
  2  4  1  0  0  0  0
  2  5  1  0  0  0  0
  1  2  1  0  0  0  0
 22 23  2  0  0  0  0
 22 24  1  0  0  0  0
 20 21  1  0  0  0  0
 19 20  1  0  0  0  0
 17 18  1  0  0  0  0
 17 19  2  0  0  0  0
 15 16  1  0  0  0  0
 15 17  1  0  0  0  0
 14 15  1  0  0  0  0
 14 20  2  0  0  0  0
 11 12  1  0  0  0  0
 11 13  1  0  0  0  0
 11 14  1  0  0  0  0
  9 10  1  0  0  0  0
  9 11  1  0  0  0  0
  9 22  1  0  0  0  0
  7  8  1  0  0  0  0
  7  9  1  0  0  0  0
 26 27  1  0  0  0  0
 26 28  1  0  0  0  0
 26 29  1  0  0  0  0
 24 25  1  0  0  0  0
 24 26  1  0  0  0  0
M  END
$$$$
default_name
  -OEChem-02102213163D

 29 29  0     1  0  0  0  0  0999 V2000
   -3.6042   -3.5728    1.4576 H   0  0  0  0  0  0  0  0  0  0  0  0
   -3.5202   -2.6488    0.8866 C   0  0  0  0  0  0  0  0  0  0  0  0
   -4.2052   -1.9048    1.2896 H   0  0  0  0  0  0  0  0  0  0  0  0
   -3.7552   -2.8428   -0.1584 H   0  0  0  0  0  0  0  0  0  0  0  0
   -2.1052   -2.1358    0.9946 C   0  0  0  0  0  0  0  0  0  0  0  0
   -1.2852   -2.7288    1.6826 O   0  0  0  0  0  0  0  0  0  0  0  0
   -1.8202   -1.0288    0.3146 N   0  0  0  0  0  0  0  0  0  0  0  0
   -2.5542   -0.5788   -0.2104 H   0  0  0  0  0  0  0  0  0  0  0  0
   -0.5102   -0.3728    0.3086 C   0  0  1  0  0  0  0  0  0  0  0  0
    0.0719   -0.7468    1.1521 H   0  0  0  0  0  0  0  0  0  0  0  0
    0.2338   -0.7427   -0.9878 C   0  0  0  0  0  0  0  0  0  0  0  0
    1.2930   -0.5062   -0.8719 H   0  0  0  0  0  0  0  0  0  0  0  0
    0.1463   -1.8180   -1.1537 H   0  0  0  0  0  0  0  0  0  0  0  0
   -0.2863   -0.0271   -2.2075 C   0  0  0  0  0  0  0  0  0  0  0  0
    0.4331    0.8153   -3.0278 N   0  0  0  0  0  0  0  0  0  0  0  0
    1.3816    1.1252   -2.8775 H   0  0  0  0  0  0  0  0  0  0  0  0
   -0.3521    1.1579   -4.0629 C   0  0  0  0  0  0  0  0  0  0  0  0
   -0.0669    1.8171   -4.8737 H   0  0  0  0  0  0  0  0  0  0  0  0
   -1.5488    0.5625   -3.9550 N   0  0  0  0  0  0  0  0  0  0  0  0
   -1.5206   -0.1899   -2.7779 C   0  0  0  0  0  0  0  0  0  0  0  0
   -2.3175   -0.8185   -2.4020 H   0  0  0  0  0  0  0  0  0  0  0  0
   -0.6600    1.1486    0.4782 C   0  0  0  0  0  0  0  0  0  0  0  0
   -1.5001    1.7648   -0.1771 O   0  0  0  0  0  0  0  0  0  0  0  0
    0.1634    1.7559    1.3418 N   0  0  0  0  0  0  0  0  0  0  0  0
    0.8618    1.1897    1.8008 H   0  0  0  0  0  0  0  0  0  0  0  0
    0.1509    3.1886    1.6256 C   0  0  0  0  0  0  0  0  0  0  0  0
   -0.8272    3.4794    2.0152 H   0  0  0  0  0  0  0  0  0  0  0  0
    0.9172    3.4314    2.3624 H   0  0  0  0  0  0  0  0  0  0  0  0
    0.3414    3.7499    0.7095 H   0  0  0  0  0  0  0  0  0  0  0  0
  5  6  2  0  0  0  0
  5  7  1  0  0  0  0
  2  3  1  0  0  0  0
  2  4  1  0  0  0  0
  2  5  1  0  0  0  0
  1  2  1  0  0  0  0
 22 23  2  0  0  0  0
 22 24  1  0  0  0  0
 20 21  1  0  0  0  0
 19 20  1  0  0  0  0
 17 18  1  0  0  0  0
 17 19  2  0  0  0  0
 15 16  1  0  0  0  0
 15 17  1  0  0  0  0
 14 15  1  0  0  0  0
 14 20  2  0  0  0  0
 11 12  1  0  0  0  0
 11 13  1  0  0  0  0
 11 14  1  0  0  0  0
  9 10  1  0  0  0  0
  9 11  1  0  0  0  0
  9 22  1  0  0  0  0
  7  8  1  0  0  0  0
  7  9  1  0  0  0  0
 26 27  1  0  0  0  0
 26 28  1  0  0  0  0
 26 29  1  0  0  0  0
 24 25  1  0  0  0  0
 24 26  1  0  0  0  0
M  END
$$$$
default_name
  -OEChem-02102213163D

 29 29  0     1  0  0  0  0  0999 V2000
   -3.6042   -3.5728    1.4576 H   0  0  0  0  0  0  0  0  0  0  0  0
   -3.5202   -2.6488    0.8866 C   0  0  0  0  0  0  0  0  0  0  0  0
   -4.2052   -1.9048    1.2896 H   0  0  0  0  0  0  0  0  0  0  0  0
   -3.7552   -2.8428   -0.1584 H   0  0  0  0  0  0  0  0  0  0  0  0
   -2.1052   -2.1358    0.9946 C   0  0  0  0  0  0  0  0  0  0  0  0
   -1.2852   -2.7288    1.6826 O   0  0  0  0  0  0  0  0  0  0  0  0
   -1.8202   -1.0288    0.3146 N   0  0  0  0  0  0  0  0  0  0  0  0
   -2.5542   -0.5788   -0.2104 H   0  0  0  0  0  0  0  0  0  0  0  0
   -0.5102   -0.3728    0.3086 C   0  0  1  0  0  0  0  0  0  0  0  0
    0.0719   -0.7468    1.1521 H   0  0  0  0  0  0  0  0  0  0  0  0
    0.2338   -0.7427   -0.9878 C   0  0  0  0  0  0  0  0  0  0  0  0
    1.2930   -0.5062   -0.8719 H   0  0  0  0  0  0  0  0  0  0  0  0
    0.1463   -1.8180   -1.1537 H   0  0  0  0  0  0  0  0  0  0  0  0
   -0.2863   -0.0271   -2.2075 C   0  0  0  0  0  0  0  0  0  0  0  0
    0.4747    0.5758   -3.1860 N   0  0  0  0  0  0  0  0  0  0  0  0
    1.4777    0.6849   -3.1768 H   0  0  0  0  0  0  0  0  0  0  0  0
   -0.3542    0.9994   -4.1550 C   0  0  0  0  0  0  0  0  0  0  0  0
   -0.0506    1.5179   -5.0562 H   0  0  0  0  0  0  0  0  0  0  0  0
   -1.6222    0.6852   -3.8517 N   0  0  0  0  0  0  0  0  0  0  0  0
   -1.5923    0.0364   -2.6145 C   0  0  0  0  0  0  0  0  0  0  0  0
   -2.4436   -0.3755   -2.0883 H   0  0  0  0  0  0  0  0  0  0  0  0
   -0.6600    1.1486    0.4782 C   0  0  0  0  0  0  0  0  0  0  0  0
   -1.5001    1.7648   -0.1771 O   0  0  0  0  0  0  0  0  0  0  0  0
    0.1634    1.7559    1.3418 N   0  0  0  0  0  0  0  0  0  0  0  0
    0.8618    1.1897    1.8008 H   0  0  0  0  0  0  0  0  0  0  0  0
    0.1509    3.1886    1.6256 C   0  0  0  0  0  0  0  0  0  0  0  0
   -0.8272    3.4794    2.0152 H   0  0  0  0  0  0  0  0  0  0  0  0
    0.9172    3.4314    2.3624 H   0  0  0  0  0  0  0  0  0  0  0  0
    0.3414    3.7499    0.7095 H   0  0  0  0  0  0  0  0  0  0  0  0
  5  6  2  0  0  0  0
  5  7  1  0  0  0  0
  2  3  1  0  0  0  0
  2  4  1  0  0  0  0
  2  5  1  0  0  0  0
  1  2  1  0  0  0  0
 22 23  2  0  0  0  0
 22 24  1  0  0  0  0
 20 21  1  0  0  0  0
 19 20  1  0  0  0  0
 17 18  1  0  0  0  0
 17 19  2  0  0  0  0
 15 16  1  0  0  0  0
 15 17  1  0  0  0  0
 14 15  1  0  0  0  0
 14 20  2  0  0  0  0
 11 12  1  0  0  0  0
 11 13  1  0  0  0  0
 11 14  1  0  0  0  0
  9 10  1  0  0  0  0
  9 11  1  0  0  0  0
  9 22  1  0  0  0  0
  7  8  1  0  0  0  0
  7  9  1  0  0  0  0
 26 27  1  0  0  0  0
 26 28  1  0  0  0  0
 26 29  1  0  0  0  0
 24 25  1  0  0  0  0
 24 26  1  0  0  0  0
M  END
$$$$
default_name
  -OEChem-02102213163D

 29 29  0     1  0  0  0  0  0999 V2000
   -3.6042   -3.5728    1.4576 H   0  0  0  0  0  0  0  0  0  0  0  0
   -3.5202   -2.6488    0.8866 C   0  0  0  0  0  0  0  0  0  0  0  0
   -4.2052   -1.9048    1.2896 H   0  0  0  0  0  0  0  0  0  0  0  0
   -3.7552   -2.8428   -0.1584 H   0  0  0  0  0  0  0  0  0  0  0  0
   -2.1052   -2.1358    0.9946 C   0  0  0  0  0  0  0  0  0  0  0  0
   -1.2852   -2.7288    1.6826 O   0  0  0  0  0  0  0  0  0  0  0  0
   -1.8202   -1.0288    0.3146 N   0  0  0  0  0  0  0  0  0  0  0  0
   -2.5542   -0.5788   -0.2104 H   0  0  0  0  0  0  0  0  0  0  0  0
   -0.5102   -0.3728    0.3086 C   0  0  1  0  0  0  0  0  0  0  0  0
    0.0719   -0.7468    1.1521 H   0  0  0  0  0  0  0  0  0  0  0  0
    0.2338   -0.7427   -0.9878 C   0  0  0  0  0  0  0  0  0  0  0  0
    1.2930   -0.5062   -0.8719 H   0  0  0  0  0  0  0  0  0  0  0  0
    0.1463   -1.8180   -1.1537 H   0  0  0  0  0  0  0  0  0  0  0  0
   -0.2863   -0.0271   -2.2075 C   0  0  0  0  0  0  0  0  0  0  0  0
    0.4452    0.3216   -3.3226 N   0  0  0  0  0  0  0  0  0  0  0  0
    1.4416    0.2128   -3.4384 H   0  0  0  0  0  0  0  0  0  0  0  0
   -0.4008    0.8384   -4.2296 C   0  0  0  0  0  0  0  0  0  0  0  0
   -0.1199    1.2093   -5.2077 H   0  0  0  0  0  0  0  0  0  0  0  0
   -1.6546    0.8284   -3.7539 N   0  0  0  0  0  0  0  0  0  0  0  0
   -1.5940    0.2846   -2.4681 C   0  0  0  0  0  0  0  0  0  0  0  0
   -2.4341    0.1068   -1.8093 H   0  0  0  0  0  0  0  0  0  0  0  0
   -0.6600    1.1486    0.4782 C   0  0  0  0  0  0  0  0  0  0  0  0
   -1.5001    1.7648   -0.1771 O   0  0  0  0  0  0  0  0  0  0  0  0
    0.1634    1.7559    1.3418 N   0  0  0  0  0  0  0  0  0  0  0  0
    0.8618    1.1897    1.8008 H   0  0  0  0  0  0  0  0  0  0  0  0
    0.1509    3.1886    1.6256 C   0  0  0  0  0  0  0  0  0  0  0  0
   -0.8272    3.4794    2.0152 H   0  0  0  0  0  0  0  0  0  0  0  0
    0.9172    3.4314    2.3624 H   0  0  0  0  0  0  0  0  0  0  0  0
    0.3414    3.7499    0.7095 H   0  0  0  0  0  0  0  0  0  0  0  0
  5  6  2  0  0  0  0
  5  7  1  0  0  0  0
  2  3  1  0  0  0  0
  2  4  1  0  0  0  0
  2  5  1  0  0  0  0
  1  2  1  0  0  0  0
 22 23  2  0  0  0  0
 22 24  1  0  0  0  0
 20 21  1  0  0  0  0
 19 20  1  0  0  0  0
 17 18  1  0  0  0  0
 17 19  2  0  0  0  0
 15 16  1  0  0  0  0
 15 17  1  0  0  0  0
 14 15  1  0  0  0  0
 14 20  2  0  0  0  0
 11 12  1  0  0  0  0
 11 13  1  0  0  0  0
 11 14  1  0  0  0  0
  9 10  1  0  0  0  0
  9 11  1  0  0  0  0
  9 22  1  0  0  0  0
  7  8  1  0  0  0  0
  7  9  1  0  0  0  0
 26 27  1  0  0  0  0
 26 28  1  0  0  0  0
 26 29  1  0  0  0  0
 24 25  1  0  0  0  0
 24 26  1  0  0  0  0
M  END
$$$$
default_name
  -OEChem-02102213163D

 29 29  0     1  0  0  0  0  0999 V2000
   -3.6042   -3.5728    1.4576 H   0  0  0  0  0  0  0  0  0  0  0  0
   -3.5202   -2.6488    0.8866 C   0  0  0  0  0  0  0  0  0  0  0  0
   -4.2052   -1.9048    1.2896 H   0  0  0  0  0  0  0  0  0  0  0  0
   -3.7552   -2.8428   -0.1584 H   0  0  0  0  0  0  0  0  0  0  0  0
   -2.1052   -2.1358    0.9946 C   0  0  0  0  0  0  0  0  0  0  0  0
   -1.2852   -2.7288    1.6826 O   0  0  0  0  0  0  0  0  0  0  0  0
   -1.8202   -1.0288    0.3146 N   0  0  0  0  0  0  0  0  0  0  0  0
   -2.5542   -0.5788   -0.2104 H   0  0  0  0  0  0  0  0  0  0  0  0
   -0.5102   -0.3728    0.3086 C   0  0  1  0  0  0  0  0  0  0  0  0
    0.0719   -0.7468    1.1521 H   0  0  0  0  0  0  0  0  0  0  0  0
    0.2338   -0.7427   -0.9878 C   0  0  0  0  0  0  0  0  0  0  0  0
    1.2930   -0.5062   -0.8719 H   0  0  0  0  0  0  0  0  0  0  0  0
    0.1463   -1.8180   -1.1537 H   0  0  0  0  0  0  0  0  0  0  0  0
   -0.2863   -0.0271   -2.2075 C   0  0  0  0  0  0  0  0  0  0  0  0
    0.3466    0.0701   -3.4282 N   0  0  0  0  0  0  0  0  0  0  0  0
    1.2756   -0.2590   -3.6445 H   0  0  0  0  0  0  0  0  0  0  0  0
   -0.4887    0.6861   -4.2815 C   0  0  0  0  0  0  0  0  0  0  0  0
   -0.2701    0.9121   -5.3180 H   0  0  0  0  0  0  0  0  0  0  0  0
   -1.6439    0.9823   -3.6682 N   0  0  0  0  0  0  0  0  0  0  0  0
   -1.5258    0.5378   -2.3487 C   0  0  0  0  0  0  0  0  0  0  0  0
   -2.2896    0.5956   -1.5841 H   0  0  0  0  0  0  0  0  0  0  0  0
   -0.6600    1.1486    0.4782 C   0  0  0  0  0  0  0  0  0  0  0  0
   -1.5001    1.7648   -0.1771 O   0  0  0  0  0  0  0  0  0  0  0  0
    0.1634    1.7559    1.3418 N   0  0  0  0  0  0  0  0  0  0  0  0
    0.8618    1.1897    1.8008 H   0  0  0  0  0  0  0  0  0  0  0  0
    0.1509    3.1886    1.6256 C   0  0  0  0  0  0  0  0  0  0  0  0
   -0.8272    3.4794    2.0152 H   0  0  0  0  0  0  0  0  0  0  0  0
    0.9172    3.4314    2.3624 H   0  0  0  0  0  0  0  0  0  0  0  0
    0.3414    3.7499    0.7095 H   0  0  0  0  0  0  0  0  0  0  0  0
  5  6  2  0  0  0  0
  5  7  1  0  0  0  0
  2  3  1  0  0  0  0
  2  4  1  0  0  0  0
  2  5  1  0  0  0  0
  1  2  1  0  0  0  0
 22 23  2  0  0  0  0
 22 24  1  0  0  0  0
 20 21  1  0  0  0  0
 19 20  1  0  0  0  0
 17 18  1  0  0  0  0
 17 19  2  0  0  0  0
 15 16  1  0  0  0  0
 15 17  1  0  0  0  0
 14 15  1  0  0  0  0
 14 20  2  0  0  0  0
 11 12  1  0  0  0  0
 11 13  1  0  0  0  0
 11 14  1  0  0  0  0
  9 10  1  0  0  0  0
  9 11  1  0  0  0  0
  9 22  1  0  0  0  0
  7  8  1  0  0  0  0
  7  9  1  0  0  0  0
 26 27  1  0  0  0  0
 26 28  1  0  0  0  0
 26 29  1  0  0  0  0
 24 25  1  0  0  0  0
 24 26  1  0  0  0  0
M  END
$$$$
default_name
  -OEChem-02102213163D

 29 29  0     1  0  0  0  0  0999 V2000
   -3.6042   -3.5728    1.4576 H   0  0  0  0  0  0  0  0  0  0  0  0
   -3.5202   -2.6488    0.8866 C   0  0  0  0  0  0  0  0  0  0  0  0
   -4.2052   -1.9048    1.2896 H   0  0  0  0  0  0  0  0  0  0  0  0
   -3.7552   -2.8428   -0.1584 H   0  0  0  0  0  0  0  0  0  0  0  0
   -2.1052   -2.1358    0.9946 C   0  0  0  0  0  0  0  0  0  0  0  0
   -1.2852   -2.7288    1.6826 O   0  0  0  0  0  0  0  0  0  0  0  0
   -1.8202   -1.0288    0.3146 N   0  0  0  0  0  0  0  0  0  0  0  0
   -2.5542   -0.5788   -0.2104 H   0  0  0  0  0  0  0  0  0  0  0  0
   -0.5102   -0.3728    0.3086 C   0  0  1  0  0  0  0  0  0  0  0  0
    0.0719   -0.7468    1.1521 H   0  0  0  0  0  0  0  0  0  0  0  0
    0.2338   -0.7427   -0.9878 C   0  0  0  0  0  0  0  0  0  0  0  0
    1.3071   -0.7625   -0.7906 H   0  0  0  0  0  0  0  0  0  0  0  0
   -0.0689   -1.7445   -1.2982 H   0  0  0  0  0  0  0  0  0  0  0  0
   -0.0268    0.2095   -2.1261 C   0  0  0  0  0  0  0  0  0  0  0  0
    0.5020    0.1266   -3.3963 N   0  0  0  0  0  0  0  0  0  0  0  0
    1.1932   -0.5378   -3.7109 H   0  0  0  0  0  0  0  0  0  0  0  0
   -0.0603    1.0909   -4.1442 C   0  0  0  0  0  0  0  0  0  0  0  0
    0.1591    1.2819   -5.1876 H   0  0  0  0  0  0  0  0  0  0  0  0
   -0.9424    1.7895   -3.4148 N   0  0  0  0  0  0  0  0  0  0  0  0
   -0.9270    1.2415   -2.1295 C   0  0  0  0  0  0  0  0  0  0  0  0
   -1.5424    1.5519   -1.2950 H   0  0  0  0  0  0  0  0  0  0  0  0
   -0.6600    1.1486    0.4782 C   0  0  0  0  0  0  0  0  0  0  0  0
   -1.5001    1.7648   -0.1771 O   0  0  0  0  0  0  0  0  0  0  0  0
    0.1634    1.7559    1.3418 N   0  0  0  0  0  0  0  0  0  0  0  0
    0.8618    1.1897    1.8008 H   0  0  0  0  0  0  0  0  0  0  0  0
    0.1509    3.1886    1.6256 C   0  0  0  0  0  0  0  0  0  0  0  0
   -0.8272    3.4794    2.0152 H   0  0  0  0  0  0  0  0  0  0  0  0
    0.9172    3.4314    2.3624 H   0  0  0  0  0  0  0  0  0  0  0  0
    0.3414    3.7499    0.7095 H   0  0  0  0  0  0  0  0  0  0  0  0
  5  6  2  0  0  0  0
  5  7  1  0  0  0  0
  2  3  1  0  0  0  0
  2  4  1  0  0  0  0
  2  5  1  0  0  0  0
  1  2  1  0  0  0  0
 22 23  2  0  0  0  0
 22 24  1  0  0  0  0
 20 21  1  0  0  0  0
 19 20  1  0  0  0  0
 17 18  1  0  0  0  0
 17 19  2  0  0  0  0
 15 16  1  0  0  0  0
 15 17  1  0  0  0  0
 14 15  1  0  0  0  0
 14 20  2  0  0  0  0
 11 12  1  0  0  0  0
 11 13  1  0  0  0  0
 11 14  1  0  0  0  0
  9 10  1  0  0  0  0
  9 11  1  0  0  0  0
  9 22  1  0  0  0  0
  7  8  1  0  0  0  0
  7  9  1  0  0  0  0
 26 27  1  0  0  0  0
 26 28  1  0  0  0  0
 26 29  1  0  0  0  0
 24 25  1  0  0  0  0
 24 26  1  0  0  0  0
M  END
$$$$
default_name
  -OEChem-02102213163D

 29 29  0     1  0  0  0  0  0999 V2000
   -3.6042   -3.5728    1.4576 H   0  0  0  0  0  0  0  0  0  0  0  0
   -3.5202   -2.6488    0.8866 C   0  0  0  0  0  0  0  0  0  0  0  0
   -4.2052   -1.9048    1.2896 H   0  0  0  0  0  0  0  0  0  0  0  0
   -3.7552   -2.8428   -0.1584 H   0  0  0  0  0  0  0  0  0  0  0  0
   -2.1052   -2.1358    0.9946 C   0  0  0  0  0  0  0  0  0  0  0  0
   -1.2852   -2.7288    1.6826 O   0  0  0  0  0  0  0  0  0  0  0  0
   -1.8202   -1.0288    0.3146 N   0  0  0  0  0  0  0  0  0  0  0  0
   -2.5542   -0.5788   -0.2104 H   0  0  0  0  0  0  0  0  0  0  0  0
   -0.5102   -0.3728    0.3086 C   0  0  1  0  0  0  0  0  0  0  0  0
    0.0719   -0.7468    1.1521 H   0  0  0  0  0  0  0  0  0  0  0  0
    0.2338   -0.7427   -0.9878 C   0  0  0  0  0  0  0  0  0  0  0  0
    1.3071   -0.7625   -0.7906 H   0  0  0  0  0  0  0  0  0  0  0  0
   -0.0689   -1.7445   -1.2982 H   0  0  0  0  0  0  0  0  0  0  0  0
   -0.0268    0.2095   -2.1261 C   0  0  0  0  0  0  0  0  0  0  0  0
    0.2552   -0.0132   -3.4569 N   0  0  0  0  0  0  0  0  0  0  0  0
    0.7433   -0.8108   -3.8362 H   0  0  0  0  0  0  0  0  0  0  0  0
   -0.2292    1.0220   -4.1632 C   0  0  0  0  0  0  0  0  0  0  0  0
   -0.1557    1.1356   -5.2379 H   0  0  0  0  0  0  0  0  0  0  0  0
   -0.8256    1.9028   -3.3467 N   0  0  0  0  0  0  0  0  0  0  0  0
   -0.6999    1.3996   -2.0492 C   0  0  0  0  0  0  0  0  0  0  0  0
   -1.0952    1.8501   -1.1480 H   0  0  0  0  0  0  0  0  0  0  0  0
   -0.6600    1.1486    0.4782 C   0  0  0  0  0  0  0  0  0  0  0  0
   -1.5001    1.7648   -0.1771 O   0  0  0  0  0  0  0  0  0  0  0  0
    0.1634    1.7559    1.3418 N   0  0  0  0  0  0  0  0  0  0  0  0
    0.8618    1.1897    1.8008 H   0  0  0  0  0  0  0  0  0  0  0  0
    0.1509    3.1886    1.6256 C   0  0  0  0  0  0  0  0  0  0  0  0
   -0.8272    3.4794    2.0152 H   0  0  0  0  0  0  0  0  0  0  0  0
    0.9172    3.4314    2.3624 H   0  0  0  0  0  0  0  0  0  0  0  0
    0.3414    3.7499    0.7095 H   0  0  0  0  0  0  0  0  0  0  0  0
  5  6  2  0  0  0  0
  5  7  1  0  0  0  0
  2  3  1  0  0  0  0
  2  4  1  0  0  0  0
  2  5  1  0  0  0  0
  1  2  1  0  0  0  0
 22 23  2  0  0  0  0
 22 24  1  0  0  0  0
 20 21  1  0  0  0  0
 19 20  1  0  0  0  0
 17 18  1  0  0  0  0
 17 19  2  0  0  0  0
 15 16  1  0  0  0  0
 15 17  1  0  0  0  0
 14 15  1  0  0  0  0
 14 20  2  0  0  0  0
 11 12  1  0  0  0  0
 11 13  1  0  0  0  0
 11 14  1  0  0  0  0
  9 10  1  0  0  0  0
  9 11  1  0  0  0  0
  9 22  1  0  0  0  0
  7  8  1  0  0  0  0
  7  9  1  0  0  0  0
 26 27  1  0  0  0  0
 26 28  1  0  0  0  0
 26 29  1  0  0  0  0
 24 25  1  0  0  0  0
 24 26  1  0  0  0  0
M  END
$$$$
default_name
  -OEChem-02102213163D

 29 29  0     1  0  0  0  0  0999 V2000
   -3.6042   -3.5728    1.4576 H   0  0  0  0  0  0  0  0  0  0  0  0
   -3.5202   -2.6488    0.8866 C   0  0  0  0  0  0  0  0  0  0  0  0
   -4.2052   -1.9048    1.2896 H   0  0  0  0  0  0  0  0  0  0  0  0
   -3.7552   -2.8428   -0.1584 H   0  0  0  0  0  0  0  0  0  0  0  0
   -2.1052   -2.1358    0.9946 C   0  0  0  0  0  0  0  0  0  0  0  0
   -1.2852   -2.7288    1.6826 O   0  0  0  0  0  0  0  0  0  0  0  0
   -1.8202   -1.0288    0.3146 N   0  0  0  0  0  0  0  0  0  0  0  0
   -2.5542   -0.5788   -0.2104 H   0  0  0  0  0  0  0  0  0  0  0  0
   -0.5102   -0.3728    0.3086 C   0  0  1  0  0  0  0  0  0  0  0  0
    0.0719   -0.7468    1.1521 H   0  0  0  0  0  0  0  0  0  0  0  0
    0.2338   -0.7427   -0.9878 C   0  0  0  0  0  0  0  0  0  0  0  0
    1.3071   -0.7625   -0.7906 H   0  0  0  0  0  0  0  0  0  0  0  0
   -0.0689   -1.7445   -1.2982 H   0  0  0  0  0  0  0  0  0  0  0  0
   -0.0268    0.2095   -2.1261 C   0  0  0  0  0  0  0  0  0  0  0  0
   -0.0204   -0.1028   -3.4687 N   0  0  0  0  0  0  0  0  0  0  0  0
    0.2348   -0.9921   -3.8714 H   0  0  0  0  0  0  0  0  0  0  0  0
   -0.4089    0.9876   -4.1508 C   0  0  0  0  0  0  0  0  0  0  0  0
   -0.4966    1.0536   -5.2284 H   0  0  0  0  0  0  0  0  0  0  0  0
   -0.6795    1.9925   -3.3051 N   0  0  0  0  0  0  0  0  0  0  0  0
   -0.4364    1.5115   -2.0159 C   0  0  0  0  0  0  0  0  0  0  0  0
   -0.5809    2.0572   -1.0924 H   0  0  0  0  0  0  0  0  0  0  0  0
   -0.6600    1.1486    0.4782 C   0  0  0  0  0  0  0  0  0  0  0  0
   -1.5001    1.7648   -0.1771 O   0  0  0  0  0  0  0  0  0  0  0  0
    0.1634    1.7559    1.3418 N   0  0  0  0  0  0  0  0  0  0  0  0
    0.8618    1.1897    1.8008 H   0  0  0  0  0  0  0  0  0  0  0  0
    0.1509    3.1886    1.6256 C   0  0  0  0  0  0  0  0  0  0  0  0
   -0.8272    3.4794    2.0152 H   0  0  0  0  0  0  0  0  0  0  0  0
    0.9172    3.4314    2.3624 H   0  0  0  0  0  0  0  0  0  0  0  0
    0.3414    3.7499    0.7095 H   0  0  0  0  0  0  0  0  0  0  0  0
  5  6  2  0  0  0  0
  5  7  1  0  0  0  0
  2  3  1  0  0  0  0
  2  4  1  0  0  0  0
  2  5  1  0  0  0  0
  1  2  1  0  0  0  0
 22 23  2  0  0  0  0
 22 24  1  0  0  0  0
 20 21  1  0  0  0  0
 19 20  1  0  0  0  0
 17 18  1  0  0  0  0
 17 19  2  0  0  0  0
 15 16  1  0  0  0  0
 15 17  1  0  0  0  0
 14 15  1  0  0  0  0
 14 20  2  0  0  0  0
 11 12  1  0  0  0  0
 11 13  1  0  0  0  0
 11 14  1  0  0  0  0
  9 10  1  0  0  0  0
  9 11  1  0  0  0  0
  9 22  1  0  0  0  0
  7  8  1  0  0  0  0
  7  9  1  0  0  0  0
 26 27  1  0  0  0  0
 26 28  1  0  0  0  0
 26 29  1  0  0  0  0
 24 25  1  0  0  0  0
 24 26  1  0  0  0  0
M  END
$$$$
default_name
  -OEChem-02102213163D

 29 29  0     1  0  0  0  0  0999 V2000
   -3.6042   -3.5728    1.4576 H   0  0  0  0  0  0  0  0  0  0  0  0
   -3.5202   -2.6488    0.8866 C   0  0  0  0  0  0  0  0  0  0  0  0
   -4.2052   -1.9048    1.2896 H   0  0  0  0  0  0  0  0  0  0  0  0
   -3.7552   -2.8428   -0.1584 H   0  0  0  0  0  0  0  0  0  0  0  0
   -2.1052   -2.1358    0.9946 C   0  0  0  0  0  0  0  0  0  0  0  0
   -1.2852   -2.7288    1.6826 O   0  0  0  0  0  0  0  0  0  0  0  0
   -1.8202   -1.0288    0.3146 N   0  0  0  0  0  0  0  0  0  0  0  0
   -2.5542   -0.5788   -0.2104 H   0  0  0  0  0  0  0  0  0  0  0  0
   -0.5102   -0.3728    0.3086 C   0  0  1  0  0  0  0  0  0  0  0  0
    0.0719   -0.7468    1.1521 H   0  0  0  0  0  0  0  0  0  0  0  0
    0.2338   -0.7427   -0.9878 C   0  0  0  0  0  0  0  0  0  0  0  0
    1.3071   -0.7625   -0.7906 H   0  0  0  0  0  0  0  0  0  0  0  0
   -0.0689   -1.7445   -1.2982 H   0  0  0  0  0  0  0  0  0  0  0  0
   -0.0268    0.2095   -2.1261 C   0  0  0  0  0  0  0  0  0  0  0  0
   -0.3061   -0.1360   -3.4310 N   0  0  0  0  0  0  0  0  0  0  0  0
   -0.2975   -1.0694   -3.8142 H   0  0  0  0  0  0  0  0  0  0  0  0
   -0.5872    0.9901   -4.1079 C   0  0  0  0  0  0  0  0  0  0  0  0
   -0.8404    1.0415   -5.1598 H   0  0  0  0  0  0  0  0  0  0  0  0
   -0.5140    2.0525   -3.2929 N   0  0  0  0  0  0  0  0  0  0  0  0
   -0.1546    1.5696   -2.0318 C   0  0  0  0  0  0  0  0  0  0  0  0
   -0.0345    2.1593   -1.1322 H   0  0  0  0  0  0  0  0  0  0  0  0
   -0.6600    1.1486    0.4782 C   0  0  0  0  0  0  0  0  0  0  0  0
   -1.5001    1.7648   -0.1771 O   0  0  0  0  0  0  0  0  0  0  0  0
    0.1634    1.7559    1.3418 N   0  0  0  0  0  0  0  0  0  0  0  0
    0.8618    1.1897    1.8008 H   0  0  0  0  0  0  0  0  0  0  0  0
    0.1509    3.1886    1.6256 C   0  0  0  0  0  0  0  0  0  0  0  0
   -0.8272    3.4794    2.0152 H   0  0  0  0  0  0  0  0  0  0  0  0
    0.9172    3.4314    2.3624 H   0  0  0  0  0  0  0  0  0  0  0  0
    0.3414    3.7499    0.7095 H   0  0  0  0  0  0  0  0  0  0  0  0
  5  6  2  0  0  0  0
  5  7  1  0  0  0  0
  2  3  1  0  0  0  0
  2  4  1  0  0  0  0
  2  5  1  0  0  0  0
  1  2  1  0  0  0  0
 22 23  2  0  0  0  0
 22 24  1  0  0  0  0
 20 21  1  0  0  0  0
 19 20  1  0  0  0  0
 17 18  1  0  0  0  0
 17 19  2  0  0  0  0
 15 16  1  0  0  0  0
 15 17  1  0  0  0  0
 14 15  1  0  0  0  0
 14 20  2  0  0  0  0
 11 12  1  0  0  0  0
 11 13  1  0  0  0  0
 11 14  1  0  0  0  0
  9 10  1  0  0  0  0
  9 11  1  0  0  0  0
  9 22  1  0  0  0  0
  7  8  1  0  0  0  0
  7  9  1  0  0  0  0
 26 27  1  0  0  0  0
 26 28  1  0  0  0  0
 26 29  1  0  0  0  0
 24 25  1  0  0  0  0
 24 26  1  0  0  0  0
M  END
$$$$
default_name
  -OEChem-02102213163D

 29 29  0     1  0  0  0  0  0999 V2000
   -3.6042   -3.5728    1.4576 H   0  0  0  0  0  0  0  0  0  0  0  0
   -3.5202   -2.6488    0.8866 C   0  0  0  0  0  0  0  0  0  0  0  0
   -4.2052   -1.9048    1.2896 H   0  0  0  0  0  0  0  0  0  0  0  0
   -3.7552   -2.8428   -0.1584 H   0  0  0  0  0  0  0  0  0  0  0  0
   -2.1052   -2.1358    0.9946 C   0  0  0  0  0  0  0  0  0  0  0  0
   -1.2852   -2.7288    1.6826 O   0  0  0  0  0  0  0  0  0  0  0  0
   -1.8202   -1.0288    0.3146 N   0  0  0  0  0  0  0  0  0  0  0  0
   -2.5542   -0.5788   -0.2104 H   0  0  0  0  0  0  0  0  0  0  0  0
   -0.5102   -0.3728    0.3086 C   0  0  1  0  0  0  0  0  0  0  0  0
    0.0719   -0.7468    1.1521 H   0  0  0  0  0  0  0  0  0  0  0  0
    0.2338   -0.7427   -0.9878 C   0  0  0  0  0  0  0  0  0  0  0  0
    1.3071   -0.7625   -0.7906 H   0  0  0  0  0  0  0  0  0  0  0  0
   -0.0689   -1.7445   -1.2982 H   0  0  0  0  0  0  0  0  0  0  0  0
   -0.0268    0.2095   -2.1261 C   0  0  0  0  0  0  0  0  0  0  0  0
   -0.5823   -0.1105   -3.3464 N   0  0  0  0  0  0  0  0  0  0  0  0
   -0.8175   -1.0374   -3.6684 H   0  0  0  0  0  0  0  0  0  0  0  0
   -0.7519    1.0293   -4.0374 C   0  0  0  0  0  0  0  0  0  0  0  0
   -1.1636    1.1001   -5.0368 H   0  0  0  0  0  0  0  0  0  0  0  0
   -0.3404    2.0786   -3.3108 N   0  0  0  0  0  0  0  0  0  0  0  0
    0.1263    1.5700   -2.0959 C   0  0  0  0  0  0  0  0  0  0  0  0
    0.5067    2.1492   -1.2645 H   0  0  0  0  0  0  0  0  0  0  0  0
   -0.6600    1.1486    0.4782 C   0  0  0  0  0  0  0  0  0  0  0  0
   -1.5001    1.7648   -0.1771 O   0  0  0  0  0  0  0  0  0  0  0  0
    0.1634    1.7559    1.3418 N   0  0  0  0  0  0  0  0  0  0  0  0
    0.8618    1.1897    1.8008 H   0  0  0  0  0  0  0  0  0  0  0  0
    0.1509    3.1886    1.6256 C   0  0  0  0  0  0  0  0  0  0  0  0
   -0.8272    3.4794    2.0152 H   0  0  0  0  0  0  0  0  0  0  0  0
    0.9172    3.4314    2.3624 H   0  0  0  0  0  0  0  0  0  0  0  0
    0.3414    3.7499    0.7095 H   0  0  0  0  0  0  0  0  0  0  0  0
  5  6  2  0  0  0  0
  5  7  1  0  0  0  0
  2  3  1  0  0  0  0
  2  4  1  0  0  0  0
  2  5  1  0  0  0  0
  1  2  1  0  0  0  0
 22 23  2  0  0  0  0
 22 24  1  0  0  0  0
 20 21  1  0  0  0  0
 19 20  1  0  0  0  0
 17 18  1  0  0  0  0
 17 19  2  0  0  0  0
 15 16  1  0  0  0  0
 15 17  1  0  0  0  0
 14 15  1  0  0  0  0
 14 20  2  0  0  0  0
 11 12  1  0  0  0  0
 11 13  1  0  0  0  0
 11 14  1  0  0  0  0
  9 10  1  0  0  0  0
  9 11  1  0  0  0  0
  9 22  1  0  0  0  0
  7  8  1  0  0  0  0
  7  9  1  0  0  0  0
 26 27  1  0  0  0  0
 26 28  1  0  0  0  0
 26 29  1  0  0  0  0
 24 25  1  0  0  0  0
 24 26  1  0  0  0  0
M  END
$$$$
default_name
  -OEChem-02102213163D

 29 29  0     1  0  0  0  0  0999 V2000
   -3.6042   -3.5728    1.4576 H   0  0  0  0  0  0  0  0  0  0  0  0
   -3.5202   -2.6488    0.8866 C   0  0  0  0  0  0  0  0  0  0  0  0
   -4.2052   -1.9048    1.2896 H   0  0  0  0  0  0  0  0  0  0  0  0
   -3.7552   -2.8428   -0.1584 H   0  0  0  0  0  0  0  0  0  0  0  0
   -2.1052   -2.1358    0.9946 C   0  0  0  0  0  0  0  0  0  0  0  0
   -1.2852   -2.7288    1.6826 O   0  0  0  0  0  0  0  0  0  0  0  0
   -1.8202   -1.0288    0.3146 N   0  0  0  0  0  0  0  0  0  0  0  0
   -2.5542   -0.5788   -0.2104 H   0  0  0  0  0  0  0  0  0  0  0  0
   -0.5102   -0.3728    0.3086 C   0  0  1  0  0  0  0  0  0  0  0  0
    0.0719   -0.7468    1.1521 H   0  0  0  0  0  0  0  0  0  0  0  0
    0.2338   -0.7427   -0.9878 C   0  0  0  0  0  0  0  0  0  0  0  0
    1.3071   -0.7625   -0.7906 H   0  0  0  0  0  0  0  0  0  0  0  0
   -0.0689   -1.7445   -1.2982 H   0  0  0  0  0  0  0  0  0  0  0  0
   -0.0268    0.2095   -2.1261 C   0  0  0  0  0  0  0  0  0  0  0  0
   -0.8304   -0.0281   -3.2206 N   0  0  0  0  0  0  0  0  0  0  0  0
   -1.2896   -0.8983   -3.4439 H   0  0  0  0  0  0  0  0  0  0  0  0
   -0.8918    1.1025   -3.9442 C   0  0  0  0  0  0  0  0  0  0  0  0
   -1.4443    1.2254   -4.8677 H   0  0  0  0  0  0  0  0  0  0  0  0
   -0.1706    2.0690   -3.3577 N   0  0  0  0  0  0  0  0  0  0  0  0
    0.3873    1.5125   -2.2038 C   0  0  0  0  0  0  0  0  0  0  0  0
    1.0059    2.0278   -1.4804 H   0  0  0  0  0  0  0  0  0  0  0  0
   -0.6600    1.1486    0.4782 C   0  0  0  0  0  0  0  0  0  0  0  0
   -1.5001    1.7648   -0.1771 O   0  0  0  0  0  0  0  0  0  0  0  0
    0.1634    1.7559    1.3418 N   0  0  0  0  0  0  0  0  0  0  0  0
    0.8618    1.1897    1.8008 H   0  0  0  0  0  0  0  0  0  0  0  0
    0.1509    3.1886    1.6256 C   0  0  0  0  0  0  0  0  0  0  0  0
   -0.8272    3.4794    2.0152 H   0  0  0  0  0  0  0  0  0  0  0  0
    0.9172    3.4314    2.3624 H   0  0  0  0  0  0  0  0  0  0  0  0
    0.3414    3.7499    0.7095 H   0  0  0  0  0  0  0  0  0  0  0  0
  5  6  2  0  0  0  0
  5  7  1  0  0  0  0
  2  3  1  0  0  0  0
  2  4  1  0  0  0  0
  2  5  1  0  0  0  0
  1  2  1  0  0  0  0
 22 23  2  0  0  0  0
 22 24  1  0  0  0  0
 20 21  1  0  0  0  0
 19 20  1  0  0  0  0
 17 18  1  0  0  0  0
 17 19  2  0  0  0  0
 15 16  1  0  0  0  0
 15 17  1  0  0  0  0
 14 15  1  0  0  0  0
 14 20  2  0  0  0  0
 11 12  1  0  0  0  0
 11 13  1  0  0  0  0
 11 14  1  0  0  0  0
  9 10  1  0  0  0  0
  9 11  1  0  0  0  0
  9 22  1  0  0  0  0
  7  8  1  0  0  0  0
  7  9  1  0  0  0  0
 26 27  1  0  0  0  0
 26 28  1  0  0  0  0
 26 29  1  0  0  0  0
 24 25  1  0  0  0  0
 24 26  1  0  0  0  0
M  END
$$$$
default_name
  -OEChem-02102213163D

 29 29  0     1  0  0  0  0  0999 V2000
   -3.6042   -3.5728    1.4576 H   0  0  0  0  0  0  0  0  0  0  0  0
   -3.5202   -2.6488    0.8866 C   0  0  0  0  0  0  0  0  0  0  0  0
   -4.2052   -1.9048    1.2896 H   0  0  0  0  0  0  0  0  0  0  0  0
   -3.7552   -2.8428   -0.1584 H   0  0  0  0  0  0  0  0  0  0  0  0
   -2.1052   -2.1358    0.9946 C   0  0  0  0  0  0  0  0  0  0  0  0
   -1.2852   -2.7288    1.6826 O   0  0  0  0  0  0  0  0  0  0  0  0
   -1.8202   -1.0288    0.3146 N   0  0  0  0  0  0  0  0  0  0  0  0
   -2.5542   -0.5788   -0.2104 H   0  0  0  0  0  0  0  0  0  0  0  0
   -0.5102   -0.3728    0.3086 C   0  0  1  0  0  0  0  0  0  0  0  0
    0.0719   -0.7468    1.1521 H   0  0  0  0  0  0  0  0  0  0  0  0
    0.2338   -0.7427   -0.9878 C   0  0  0  0  0  0  0  0  0  0  0  0
    1.3071   -0.7625   -0.7906 H   0  0  0  0  0  0  0  0  0  0  0  0
   -0.0689   -1.7445   -1.2982 H   0  0  0  0  0  0  0  0  0  0  0  0
   -0.0268    0.2095   -2.1261 C   0  0  0  0  0  0  0  0  0  0  0  0
   -1.0333    0.1057   -3.0623 N   0  0  0  0  0  0  0  0  0  0  0  0
   -1.6817   -0.6616   -3.1561 H   0  0  0  0  0  0  0  0  0  0  0  0
   -0.9974    1.2047   -3.8345 C   0  0  0  0  0  0  0  0  0  0  0  0
   -1.6632    1.4089   -4.6641 H   0  0  0  0  0  0  0  0  0  0  0  0
   -0.0161    2.0245   -3.4303 N   0  0  0  0  0  0  0  0  0  0  0  0
    0.6105    1.4011   -2.3480 C   0  0  0  0  0  0  0  0  0  0  0  0
    1.4290    1.8032   -1.7652 H   0  0  0  0  0  0  0  0  0  0  0  0
   -0.6600    1.1486    0.4782 C   0  0  0  0  0  0  0  0  0  0  0  0
   -1.5001    1.7648   -0.1771 O   0  0  0  0  0  0  0  0  0  0  0  0
    0.1634    1.7559    1.3418 N   0  0  0  0  0  0  0  0  0  0  0  0
    0.8618    1.1897    1.8008 H   0  0  0  0  0  0  0  0  0  0  0  0
    0.1509    3.1886    1.6256 C   0  0  0  0  0  0  0  0  0  0  0  0
   -0.8272    3.4794    2.0152 H   0  0  0  0  0  0  0  0  0  0  0  0
    0.9172    3.4314    2.3624 H   0  0  0  0  0  0  0  0  0  0  0  0
    0.3414    3.7499    0.7095 H   0  0  0  0  0  0  0  0  0  0  0  0
  5  6  2  0  0  0  0
  5  7  1  0  0  0  0
  2  3  1  0  0  0  0
  2  4  1  0  0  0  0
  2  5  1  0  0  0  0
  1  2  1  0  0  0  0
 22 23  2  0  0  0  0
 22 24  1  0  0  0  0
 20 21  1  0  0  0  0
 19 20  1  0  0  0  0
 17 18  1  0  0  0  0
 17 19  2  0  0  0  0
 15 16  1  0  0  0  0
 15 17  1  0  0  0  0
 14 15  1  0  0  0  0
 14 20  2  0  0  0  0
 11 12  1  0  0  0  0
 11 13  1  0  0  0  0
 11 14  1  0  0  0  0
  9 10  1  0  0  0  0
  9 11  1  0  0  0  0
  9 22  1  0  0  0  0
  7  8  1  0  0  0  0
  7  9  1  0  0  0  0
 26 27  1  0  0  0  0
 26 28  1  0  0  0  0
 26 29  1  0  0  0  0
 24 25  1  0  0  0  0
 24 26  1  0  0  0  0
M  END
$$$$
default_name
  -OEChem-02102213163D

 29 29  0     1  0  0  0  0  0999 V2000
   -3.6042   -3.5728    1.4576 H   0  0  0  0  0  0  0  0  0  0  0  0
   -3.5202   -2.6488    0.8866 C   0  0  0  0  0  0  0  0  0  0  0  0
   -4.2052   -1.9048    1.2896 H   0  0  0  0  0  0  0  0  0  0  0  0
   -3.7552   -2.8428   -0.1584 H   0  0  0  0  0  0  0  0  0  0  0  0
   -2.1052   -2.1358    0.9946 C   0  0  0  0  0  0  0  0  0  0  0  0
   -1.2852   -2.7288    1.6826 O   0  0  0  0  0  0  0  0  0  0  0  0
   -1.8202   -1.0288    0.3146 N   0  0  0  0  0  0  0  0  0  0  0  0
   -2.5542   -0.5788   -0.2104 H   0  0  0  0  0  0  0  0  0  0  0  0
   -0.5102   -0.3728    0.3086 C   0  0  1  0  0  0  0  0  0  0  0  0
    0.0719   -0.7468    1.1521 H   0  0  0  0  0  0  0  0  0  0  0  0
    0.2338   -0.7427   -0.9878 C   0  0  0  0  0  0  0  0  0  0  0  0
    1.3071   -0.7625   -0.7906 H   0  0  0  0  0  0  0  0  0  0  0  0
   -0.0689   -1.7445   -1.2982 H   0  0  0  0  0  0  0  0  0  0  0  0
   -0.0268    0.2095   -2.1261 C   0  0  0  0  0  0  0  0  0  0  0  0
   -1.1772    0.2817   -2.8821 N   0  0  0  0  0  0  0  0  0  0  0  0
   -1.9672   -0.3434   -2.8245 H   0  0  0  0  0  0  0  0  0  0  0  0
   -1.0614    1.3290   -3.7158 C   0  0  0  0  0  0  0  0  0  0  0  0
   -1.8054    1.6380   -4.4398 H   0  0  0  0  0  0  0  0  0  0  0  0
    0.1125    1.9480   -3.5237 N   0  0  0  0  0  0  0  0  0  0  0  0
    0.7806    1.2434   -2.5189 C   0  0  0  0  0  0  0  0  0  0  0  0
    1.7472    1.4908   -2.0994 H   0  0  0  0  0  0  0  0  0  0  0  0
   -0.6600    1.1486    0.4782 C   0  0  0  0  0  0  0  0  0  0  0  0
   -1.5001    1.7648   -0.1771 O   0  0  0  0  0  0  0  0  0  0  0  0
    0.1634    1.7559    1.3418 N   0  0  0  0  0  0  0  0  0  0  0  0
    0.8618    1.1897    1.8008 H   0  0  0  0  0  0  0  0  0  0  0  0
    0.1509    3.1886    1.6256 C   0  0  0  0  0  0  0  0  0  0  0  0
   -0.8272    3.4794    2.0152 H   0  0  0  0  0  0  0  0  0  0  0  0
    0.9172    3.4314    2.3624 H   0  0  0  0  0  0  0  0  0  0  0  0
    0.3414    3.7499    0.7095 H   0  0  0  0  0  0  0  0  0  0  0  0
  5  6  2  0  0  0  0
  5  7  1  0  0  0  0
  2  3  1  0  0  0  0
  2  4  1  0  0  0  0
  2  5  1  0  0  0  0
  1  2  1  0  0  0  0
 22 23  2  0  0  0  0
 22 24  1  0  0  0  0
 20 21  1  0  0  0  0
 19 20  1  0  0  0  0
 17 18  1  0  0  0  0
 17 19  2  0  0  0  0
 15 16  1  0  0  0  0
 15 17  1  0  0  0  0
 14 15  1  0  0  0  0
 14 20  2  0  0  0  0
 11 12  1  0  0  0  0
 11 13  1  0  0  0  0
 11 14  1  0  0  0  0
  9 10  1  0  0  0  0
  9 11  1  0  0  0  0
  9 22  1  0  0  0  0
  7  8  1  0  0  0  0
  7  9  1  0  0  0  0
 26 27  1  0  0  0  0
 26 28  1  0  0  0  0
 26 29  1  0  0  0  0
 24 25  1  0  0  0  0
 24 26  1  0  0  0  0
M  END
$$$$
default_name
  -OEChem-02102213163D

 29 29  0     1  0  0  0  0  0999 V2000
   -3.6042   -3.5728    1.4576 H   0  0  0  0  0  0  0  0  0  0  0  0
   -3.5202   -2.6488    0.8866 C   0  0  0  0  0  0  0  0  0  0  0  0
   -4.2052   -1.9048    1.2896 H   0  0  0  0  0  0  0  0  0  0  0  0
   -3.7552   -2.8428   -0.1584 H   0  0  0  0  0  0  0  0  0  0  0  0
   -2.1052   -2.1358    0.9946 C   0  0  0  0  0  0  0  0  0  0  0  0
   -1.2852   -2.7288    1.6826 O   0  0  0  0  0  0  0  0  0  0  0  0
   -1.8202   -1.0288    0.3146 N   0  0  0  0  0  0  0  0  0  0  0  0
   -2.5542   -0.5788   -0.2104 H   0  0  0  0  0  0  0  0  0  0  0  0
   -0.5102   -0.3728    0.3086 C   0  0  1  0  0  0  0  0  0  0  0  0
    0.0719   -0.7468    1.1521 H   0  0  0  0  0  0  0  0  0  0  0  0
    0.2338   -0.7427   -0.9878 C   0  0  0  0  0  0  0  0  0  0  0  0
    1.3071   -0.7625   -0.7906 H   0  0  0  0  0  0  0  0  0  0  0  0
   -0.0689   -1.7445   -1.2982 H   0  0  0  0  0  0  0  0  0  0  0  0
   -0.0268    0.2095   -2.1261 C   0  0  0  0  0  0  0  0  0  0  0  0
   -1.2523    0.4878   -2.6925 N   0  0  0  0  0  0  0  0  0  0  0  0
   -2.1264    0.0346   -2.4719 H   0  0  0  0  0  0  0  0  0  0  0  0
   -1.0796    1.4670   -3.5963 C   0  0  0  0  0  0  0  0  0  0  0  0
   -1.8614    1.8972   -4.2102 H   0  0  0  0  0  0  0  0  0  0  0  0
    0.2066    1.8448   -3.6316 N   0  0  0  0  0  0  0  0  0  0  0  0
    0.8863    1.0501   -2.7048 C   0  0  0  0  0  0  0  0  0  0  0  0
    1.9388    1.1119   -2.4603 H   0  0  0  0  0  0  0  0  0  0  0  0
   -0.6600    1.1486    0.4782 C   0  0  0  0  0  0  0  0  0  0  0  0
   -1.5001    1.7648   -0.1771 O   0  0  0  0  0  0  0  0  0  0  0  0
    0.1634    1.7559    1.3418 N   0  0  0  0  0  0  0  0  0  0  0  0
    0.8618    1.1897    1.8008 H   0  0  0  0  0  0  0  0  0  0  0  0
    0.1509    3.1886    1.6256 C   0  0  0  0  0  0  0  0  0  0  0  0
   -0.8272    3.4794    2.0152 H   0  0  0  0  0  0  0  0  0  0  0  0
    0.9172    3.4314    2.3624 H   0  0  0  0  0  0  0  0  0  0  0  0
    0.3414    3.7499    0.7095 H   0  0  0  0  0  0  0  0  0  0  0  0
  5  6  2  0  0  0  0
  5  7  1  0  0  0  0
  2  3  1  0  0  0  0
  2  4  1  0  0  0  0
  2  5  1  0  0  0  0
  1  2  1  0  0  0  0
 22 23  2  0  0  0  0
 22 24  1  0  0  0  0
 20 21  1  0  0  0  0
 19 20  1  0  0  0  0
 17 18  1  0  0  0  0
 17 19  2  0  0  0  0
 15 16  1  0  0  0  0
 15 17  1  0  0  0  0
 14 15  1  0  0  0  0
 14 20  2  0  0  0  0
 11 12  1  0  0  0  0
 11 13  1  0  0  0  0
 11 14  1  0  0  0  0
  9 10  1  0  0  0  0
  9 11  1  0  0  0  0
  9 22  1  0  0  0  0
  7  8  1  0  0  0  0
  7  9  1  0  0  0  0
 26 27  1  0  0  0  0
 26 28  1  0  0  0  0
 26 29  1  0  0  0  0
 24 25  1  0  0  0  0
 24 26  1  0  0  0  0
M  END
$$$$
default_name
  -OEChem-02102213163D

 29 29  0     1  0  0  0  0  0999 V2000
   -3.6042   -3.5728    1.4576 H   0  0  0  0  0  0  0  0  0  0  0  0
   -3.5202   -2.6488    0.8866 C   0  0  0  0  0  0  0  0  0  0  0  0
   -4.2052   -1.9048    1.2896 H   0  0  0  0  0  0  0  0  0  0  0  0
   -3.7552   -2.8428   -0.1584 H   0  0  0  0  0  0  0  0  0  0  0  0
   -2.1052   -2.1358    0.9946 C   0  0  0  0  0  0  0  0  0  0  0  0
   -1.2852   -2.7288    1.6826 O   0  0  0  0  0  0  0  0  0  0  0  0
   -1.8202   -1.0288    0.3146 N   0  0  0  0  0  0  0  0  0  0  0  0
   -2.5542   -0.5788   -0.2104 H   0  0  0  0  0  0  0  0  0  0  0  0
   -0.5102   -0.3728    0.3086 C   0  0  1  0  0  0  0  0  0  0  0  0
    0.0719   -0.7468    1.1521 H   0  0  0  0  0  0  0  0  0  0  0  0
    0.2338   -0.7427   -0.9878 C   0  0  0  0  0  0  0  0  0  0  0  0
    1.3071   -0.7625   -0.7906 H   0  0  0  0  0  0  0  0  0  0  0  0
   -0.0689   -1.7445   -1.2982 H   0  0  0  0  0  0  0  0  0  0  0  0
   -0.0268    0.2095   -2.1261 C   0  0  0  0  0  0  0  0  0  0  0  0
   -1.2536    0.7102   -2.5062 N   0  0  0  0  0  0  0  0  0  0  0  0
   -2.1486    0.4467   -2.1221 H   0  0  0  0  0  0  0  0  0  0  0  0
   -1.0506    1.6091   -3.4840 C   0  0  0  0  0  0  0  0  0  0  0  0
   -1.8272    2.1688   -3.9909 H   0  0  0  0  0  0  0  0  0  0  0  0
    0.2596    1.7219   -3.7465 N   0  0  0  0  0  0  0  0  0  0  0  0
    0.9201    0.8345   -2.8929 C   0  0  0  0  0  0  0  0  0  0  0  0
    1.9908    0.6922   -2.8232 H   0  0  0  0  0  0  0  0  0  0  0  0
   -0.6600    1.1486    0.4782 C   0  0  0  0  0  0  0  0  0  0  0  0
   -1.5001    1.7648   -0.1771 O   0  0  0  0  0  0  0  0  0  0  0  0
    0.1634    1.7559    1.3418 N   0  0  0  0  0  0  0  0  0  0  0  0
    0.8618    1.1897    1.8008 H   0  0  0  0  0  0  0  0  0  0  0  0
    0.1509    3.1886    1.6256 C   0  0  0  0  0  0  0  0  0  0  0  0
   -0.8272    3.4794    2.0152 H   0  0  0  0  0  0  0  0  0  0  0  0
    0.9172    3.4314    2.3624 H   0  0  0  0  0  0  0  0  0  0  0  0
    0.3414    3.7499    0.7095 H   0  0  0  0  0  0  0  0  0  0  0  0
  5  6  2  0  0  0  0
  5  7  1  0  0  0  0
  2  3  1  0  0  0  0
  2  4  1  0  0  0  0
  2  5  1  0  0  0  0
  1  2  1  0  0  0  0
 22 23  2  0  0  0  0
 22 24  1  0  0  0  0
 20 21  1  0  0  0  0
 19 20  1  0  0  0  0
 17 18  1  0  0  0  0
 17 19  2  0  0  0  0
 15 16  1  0  0  0  0
 15 17  1  0  0  0  0
 14 15  1  0  0  0  0
 14 20  2  0  0  0  0
 11 12  1  0  0  0  0
 11 13  1  0  0  0  0
 11 14  1  0  0  0  0
  9 10  1  0  0  0  0
  9 11  1  0  0  0  0
  9 22  1  0  0  0  0
  7  8  1  0  0  0  0
  7  9  1  0  0  0  0
 26 27  1  0  0  0  0
 26 28  1  0  0  0  0
 26 29  1  0  0  0  0
 24 25  1  0  0  0  0
 24 26  1  0  0  0  0
M  END
$$$$
default_name
  -OEChem-02102213163D

 29 29  0     1  0  0  0  0  0999 V2000
   -3.6042   -3.5728    1.4576 H   0  0  0  0  0  0  0  0  0  0  0  0
   -3.5202   -2.6488    0.8866 C   0  0  0  0  0  0  0  0  0  0  0  0
   -4.2052   -1.9048    1.2896 H   0  0  0  0  0  0  0  0  0  0  0  0
   -3.7552   -2.8428   -0.1584 H   0  0  0  0  0  0  0  0  0  0  0  0
   -2.1052   -2.1358    0.9946 C   0  0  0  0  0  0  0  0  0  0  0  0
   -1.2852   -2.7288    1.6826 O   0  0  0  0  0  0  0  0  0  0  0  0
   -1.8202   -1.0288    0.3146 N   0  0  0  0  0  0  0  0  0  0  0  0
   -2.5542   -0.5788   -0.2104 H   0  0  0  0  0  0  0  0  0  0  0  0
   -0.5102   -0.3728    0.3086 C   0  0  1  0  0  0  0  0  0  0  0  0
    0.0719   -0.7468    1.1521 H   0  0  0  0  0  0  0  0  0  0  0  0
    0.2338   -0.7427   -0.9878 C   0  0  0  0  0  0  0  0  0  0  0  0
    1.3071   -0.7625   -0.7906 H   0  0  0  0  0  0  0  0  0  0  0  0
   -0.0689   -1.7445   -1.2982 H   0  0  0  0  0  0  0  0  0  0  0  0
   -0.0268    0.2095   -2.1261 C   0  0  0  0  0  0  0  0  0  0  0  0
   -1.1808    0.9335   -2.3360 N   0  0  0  0  0  0  0  0  0  0  0  0
   -2.0323    0.8647   -1.7990 H   0  0  0  0  0  0  0  0  0  0  0  0
   -0.9765    1.7457   -3.3867 C   0  0  0  0  0  0  0  0  0  0  0  0
   -1.7052    2.4343   -3.7967 H   0  0  0  0  0  0  0  0  0  0  0  0
    0.2680    1.5877   -3.8607 N   0  0  0  0  0  0  0  0  0  0  0  0
    0.8798    0.6111   -3.0705 C   0  0  0  0  0  0  0  0  0  0  0  0
    1.8995    0.2604   -3.1635 H   0  0  0  0  0  0  0  0  0  0  0  0
   -0.6600    1.1486    0.4782 C   0  0  0  0  0  0  0  0  0  0  0  0
   -1.5001    1.7648   -0.1771 O   0  0  0  0  0  0  0  0  0  0  0  0
    0.1634    1.7559    1.3418 N   0  0  0  0  0  0  0  0  0  0  0  0
    0.8618    1.1897    1.8008 H   0  0  0  0  0  0  0  0  0  0  0  0
    0.1509    3.1886    1.6256 C   0  0  0  0  0  0  0  0  0  0  0  0
   -0.8272    3.4794    2.0152 H   0  0  0  0  0  0  0  0  0  0  0  0
    0.9172    3.4314    2.3624 H   0  0  0  0  0  0  0  0  0  0  0  0
    0.3414    3.7499    0.7095 H   0  0  0  0  0  0  0  0  0  0  0  0
  5  6  2  0  0  0  0
  5  7  1  0  0  0  0
  2  3  1  0  0  0  0
  2  4  1  0  0  0  0
  2  5  1  0  0  0  0
  1  2  1  0  0  0  0
 22 23  2  0  0  0  0
 22 24  1  0  0  0  0
 20 21  1  0  0  0  0
 19 20  1  0  0  0  0
 17 18  1  0  0  0  0
 17 19  2  0  0  0  0
 15 16  1  0  0  0  0
 15 17  1  0  0  0  0
 14 15  1  0  0  0  0
 14 20  2  0  0  0  0
 11 12  1  0  0  0  0
 11 13  1  0  0  0  0
 11 14  1  0  0  0  0
  9 10  1  0  0  0  0
  9 11  1  0  0  0  0
  9 22  1  0  0  0  0
  7  8  1  0  0  0  0
  7  9  1  0  0  0  0
 26 27  1  0  0  0  0
 26 28  1  0  0  0  0
 26 29  1  0  0  0  0
 24 25  1  0  0  0  0
 24 26  1  0  0  0  0
M  END
$$$$
default_name
  -OEChem-02102213163D

 29 29  0     1  0  0  0  0  0999 V2000
   -3.6042   -3.5728    1.4576 H   0  0  0  0  0  0  0  0  0  0  0  0
   -3.5202   -2.6488    0.8866 C   0  0  0  0  0  0  0  0  0  0  0  0
   -4.2052   -1.9048    1.2896 H   0  0  0  0  0  0  0  0  0  0  0  0
   -3.7552   -2.8428   -0.1584 H   0  0  0  0  0  0  0  0  0  0  0  0
   -2.1052   -2.1358    0.9946 C   0  0  0  0  0  0  0  0  0  0  0  0
   -1.2852   -2.7288    1.6826 O   0  0  0  0  0  0  0  0  0  0  0  0
   -1.8202   -1.0288    0.3146 N   0  0  0  0  0  0  0  0  0  0  0  0
   -2.5542   -0.5788   -0.2104 H   0  0  0  0  0  0  0  0  0  0  0  0
   -0.5102   -0.3728    0.3086 C   0  0  1  0  0  0  0  0  0  0  0  0
    0.0719   -0.7468    1.1521 H   0  0  0  0  0  0  0  0  0  0  0  0
    0.2338   -0.7427   -0.9878 C   0  0  0  0  0  0  0  0  0  0  0  0
    1.3071   -0.7625   -0.7906 H   0  0  0  0  0  0  0  0  0  0  0  0
   -0.0689   -1.7445   -1.2982 H   0  0  0  0  0  0  0  0  0  0  0  0
   -0.0268    0.2095   -2.1261 C   0  0  0  0  0  0  0  0  0  0  0  0
   -1.0391    1.1427   -2.1935 N   0  0  0  0  0  0  0  0  0  0  0  0
   -1.7854    1.2602   -1.5247 H   0  0  0  0  0  0  0  0  0  0  0  0
   -0.8622    1.8675   -3.3110 C   0  0  0  0  0  0  0  0  0  0  0  0
   -1.5037    2.6755   -3.6411 H   0  0  0  0  0  0  0  0  0  0  0  0
    0.2312    1.4513   -3.9664 N   0  0  0  0  0  0  0  0  0  0  0  0
    0.7682    0.3953   -3.2255 C   0  0  0  0  0  0  0  0  0  0  0  0
    1.6714   -0.1540   -3.4579 H   0  0  0  0  0  0  0  0  0  0  0  0
   -0.6600    1.1486    0.4782 C   0  0  0  0  0  0  0  0  0  0  0  0
   -1.5001    1.7648   -0.1771 O   0  0  0  0  0  0  0  0  0  0  0  0
    0.1634    1.7559    1.3418 N   0  0  0  0  0  0  0  0  0  0  0  0
    0.8618    1.1897    1.8008 H   0  0  0  0  0  0  0  0  0  0  0  0
    0.1509    3.1886    1.6256 C   0  0  0  0  0  0  0  0  0  0  0  0
   -0.8272    3.4794    2.0152 H   0  0  0  0  0  0  0  0  0  0  0  0
    0.9172    3.4314    2.3624 H   0  0  0  0  0  0  0  0  0  0  0  0
    0.3414    3.7499    0.7095 H   0  0  0  0  0  0  0  0  0  0  0  0
  5  6  2  0  0  0  0
  5  7  1  0  0  0  0
  2  3  1  0  0  0  0
  2  4  1  0  0  0  0
  2  5  1  0  0  0  0
  1  2  1  0  0  0  0
 22 23  2  0  0  0  0
 22 24  1  0  0  0  0
 20 21  1  0  0  0  0
 19 20  1  0  0  0  0
 17 18  1  0  0  0  0
 17 19  2  0  0  0  0
 15 16  1  0  0  0  0
 15 17  1  0  0  0  0
 14 15  1  0  0  0  0
 14 20  2  0  0  0  0
 11 12  1  0  0  0  0
 11 13  1  0  0  0  0
 11 14  1  0  0  0  0
  9 10  1  0  0  0  0
  9 11  1  0  0  0  0
  9 22  1  0  0  0  0
  7  8  1  0  0  0  0
  7  9  1  0  0  0  0
 26 27  1  0  0  0  0
 26 28  1  0  0  0  0
 26 29  1  0  0  0  0
 24 25  1  0  0  0  0
 24 26  1  0  0  0  0
M  END
$$$$
default_name
  -OEChem-02102213163D

 29 29  0     1  0  0  0  0  0999 V2000
   -3.6042   -3.5728    1.4576 H   0  0  0  0  0  0  0  0  0  0  0  0
   -3.5202   -2.6488    0.8866 C   0  0  0  0  0  0  0  0  0  0  0  0
   -4.2052   -1.9048    1.2896 H   0  0  0  0  0  0  0  0  0  0  0  0
   -3.7552   -2.8428   -0.1584 H   0  0  0  0  0  0  0  0  0  0  0  0
   -2.1052   -2.1358    0.9946 C   0  0  0  0  0  0  0  0  0  0  0  0
   -1.2852   -2.7288    1.6826 O   0  0  0  0  0  0  0  0  0  0  0  0
   -1.8202   -1.0288    0.3146 N   0  0  0  0  0  0  0  0  0  0  0  0
   -2.5542   -0.5788   -0.2104 H   0  0  0  0  0  0  0  0  0  0  0  0
   -0.5102   -0.3728    0.3086 C   0  0  1  0  0  0  0  0  0  0  0  0
    0.0719   -0.7468    1.1521 H   0  0  0  0  0  0  0  0  0  0  0  0
    0.2338   -0.7427   -0.9878 C   0  0  0  0  0  0  0  0  0  0  0  0
    1.3071   -0.7625   -0.7906 H   0  0  0  0  0  0  0  0  0  0  0  0
   -0.0689   -1.7445   -1.2982 H   0  0  0  0  0  0  0  0  0  0  0  0
   -0.0268    0.2095   -2.1261 C   0  0  0  0  0  0  0  0  0  0  0  0
   -0.8380    1.3233   -2.0885 N   0  0  0  0  0  0  0  0  0  0  0  0
   -1.4247    1.6062   -1.3179 H   0  0  0  0  0  0  0  0  0  0  0  0
   -0.7157    1.9663   -3.2619 C   0  0  0  0  0  0  0  0  0  0  0  0
   -1.2364    2.8761   -3.5345 H   0  0  0  0  0  0  0  0  0  0  0  0
    0.1516    1.3220   -4.0563 N   0  0  0  0  0  0  0  0  0  0  0  0
    0.5929    0.2018   -3.3472 C   0  0  0  0  0  0  0  0  0  0  0  0
    1.3217   -0.5229   -3.6865 H   0  0  0  0  0  0  0  0  0  0  0  0
   -0.6600    1.1486    0.4782 C   0  0  0  0  0  0  0  0  0  0  0  0
   -1.5001    1.7648   -0.1771 O   0  0  0  0  0  0  0  0  0  0  0  0
    0.1634    1.7559    1.3418 N   0  0  0  0  0  0  0  0  0  0  0  0
    0.8618    1.1897    1.8008 H   0  0  0  0  0  0  0  0  0  0  0  0
    0.1509    3.1886    1.6256 C   0  0  0  0  0  0  0  0  0  0  0  0
   -0.8272    3.4794    2.0152 H   0  0  0  0  0  0  0  0  0  0  0  0
    0.9172    3.4314    2.3624 H   0  0  0  0  0  0  0  0  0  0  0  0
    0.3414    3.7499    0.7095 H   0  0  0  0  0  0  0  0  0  0  0  0
  5  6  2  0  0  0  0
  5  7  1  0  0  0  0
  2  3  1  0  0  0  0
  2  4  1  0  0  0  0
  2  5  1  0  0  0  0
  1  2  1  0  0  0  0
 22 23  2  0  0  0  0
 22 24  1  0  0  0  0
 20 21  1  0  0  0  0
 19 20  1  0  0  0  0
 17 18  1  0  0  0  0
 17 19  2  0  0  0  0
 15 16  1  0  0  0  0
 15 17  1  0  0  0  0
 14 15  1  0  0  0  0
 14 20  2  0  0  0  0
 11 12  1  0  0  0  0
 11 13  1  0  0  0  0
 11 14  1  0  0  0  0
  9 10  1  0  0  0  0
  9 11  1  0  0  0  0
  9 22  1  0  0  0  0
  7  8  1  0  0  0  0
  7  9  1  0  0  0  0
 26 27  1  0  0  0  0
 26 28  1  0  0  0  0
 26 29  1  0  0  0  0
 24 25  1  0  0  0  0
 24 26  1  0  0  0  0
M  END
$$$$
default_name
  -OEChem-02102213163D

 29 29  0     1  0  0  0  0  0999 V2000
   -3.6042   -3.5728    1.4576 H   0  0  0  0  0  0  0  0  0  0  0  0
   -3.5202   -2.6488    0.8866 C   0  0  0  0  0  0  0  0  0  0  0  0
   -4.2052   -1.9048    1.2896 H   0  0  0  0  0  0  0  0  0  0  0  0
   -3.7552   -2.8428   -0.1584 H   0  0  0  0  0  0  0  0  0  0  0  0
   -2.1052   -2.1358    0.9946 C   0  0  0  0  0  0  0  0  0  0  0  0
   -1.2852   -2.7288    1.6826 O   0  0  0  0  0  0  0  0  0  0  0  0
   -1.8202   -1.0288    0.3146 N   0  0  0  0  0  0  0  0  0  0  0  0
   -2.5542   -0.5788   -0.2104 H   0  0  0  0  0  0  0  0  0  0  0  0
   -0.5102   -0.3728    0.3086 C   0  0  1  0  0  0  0  0  0  0  0  0
    0.0719   -0.7468    1.1521 H   0  0  0  0  0  0  0  0  0  0  0  0
    0.2338   -0.7427   -0.9878 C   0  0  0  0  0  0  0  0  0  0  0  0
    1.3071   -0.7625   -0.7906 H   0  0  0  0  0  0  0  0  0  0  0  0
   -0.0689   -1.7445   -1.2982 H   0  0  0  0  0  0  0  0  0  0  0  0
   -0.0268    0.2095   -2.1261 C   0  0  0  0  0  0  0  0  0  0  0  0
   -0.5912    1.4632   -2.0279 N   0  0  0  0  0  0  0  0  0  0  0  0
   -0.9748    1.8792   -1.1925 H   0  0  0  0  0  0  0  0  0  0  0  0
   -0.5468    2.0352   -3.2430 C   0  0  0  0  0  0  0  0  0  0  0  0
   -0.9216    3.0224   -3.4842 H   0  0  0  0  0  0  0  0  0  0  0  0
    0.0348    1.2087   -4.1244 N   0  0  0  0  0  0  0  0  0  0  0  0
    0.3658    0.0436   -3.4275 C   0  0  0  0  0  0  0  0  0  0  0  0
    0.8745   -0.8211   -3.8335 H   0  0  0  0  0  0  0  0  0  0  0  0
   -0.6600    1.1486    0.4782 C   0  0  0  0  0  0  0  0  0  0  0  0
   -1.5001    1.7648   -0.1771 O   0  0  0  0  0  0  0  0  0  0  0  0
    0.1634    1.7559    1.3418 N   0  0  0  0  0  0  0  0  0  0  0  0
    0.8618    1.1897    1.8008 H   0  0  0  0  0  0  0  0  0  0  0  0
    0.1509    3.1886    1.6256 C   0  0  0  0  0  0  0  0  0  0  0  0
   -0.8272    3.4794    2.0152 H   0  0  0  0  0  0  0  0  0  0  0  0
    0.9172    3.4314    2.3624 H   0  0  0  0  0  0  0  0  0  0  0  0
    0.3414    3.7499    0.7095 H   0  0  0  0  0  0  0  0  0  0  0  0
  5  6  2  0  0  0  0
  5  7  1  0  0  0  0
  2  3  1  0  0  0  0
  2  4  1  0  0  0  0
  2  5  1  0  0  0  0
  1  2  1  0  0  0  0
 22 23  2  0  0  0  0
 22 24  1  0  0  0  0
 20 21  1  0  0  0  0
 19 20  1  0  0  0  0
 17 18  1  0  0  0  0
 17 19  2  0  0  0  0
 15 16  1  0  0  0  0
 15 17  1  0  0  0  0
 14 15  1  0  0  0  0
 14 20  2  0  0  0  0
 11 12  1  0  0  0  0
 11 13  1  0  0  0  0
 11 14  1  0  0  0  0
  9 10  1  0  0  0  0
  9 11  1  0  0  0  0
  9 22  1  0  0  0  0
  7  8  1  0  0  0  0
  7  9  1  0  0  0  0
 26 27  1  0  0  0  0
 26 28  1  0  0  0  0
 26 29  1  0  0  0  0
 24 25  1  0  0  0  0
 24 26  1  0  0  0  0
M  END
$$$$
default_name
  -OEChem-02102213163D

 29 29  0     1  0  0  0  0  0999 V2000
   -3.6042   -3.5728    1.4576 H   0  0  0  0  0  0  0  0  0  0  0  0
   -3.5202   -2.6488    0.8866 C   0  0  0  0  0  0  0  0  0  0  0  0
   -4.2052   -1.9048    1.2896 H   0  0  0  0  0  0  0  0  0  0  0  0
   -3.7552   -2.8428   -0.1584 H   0  0  0  0  0  0  0  0  0  0  0  0
   -2.1052   -2.1358    0.9946 C   0  0  0  0  0  0  0  0  0  0  0  0
   -1.2852   -2.7288    1.6826 O   0  0  0  0  0  0  0  0  0  0  0  0
   -1.8202   -1.0288    0.3146 N   0  0  0  0  0  0  0  0  0  0  0  0
   -2.5542   -0.5788   -0.2104 H   0  0  0  0  0  0  0  0  0  0  0  0
   -0.5102   -0.3728    0.3086 C   0  0  1  0  0  0  0  0  0  0  0  0
    0.0719   -0.7468    1.1521 H   0  0  0  0  0  0  0  0  0  0  0  0
    0.2338   -0.7427   -0.9878 C   0  0  0  0  0  0  0  0  0  0  0  0
    1.3071   -0.7625   -0.7906 H   0  0  0  0  0  0  0  0  0  0  0  0
   -0.0689   -1.7445   -1.2982 H   0  0  0  0  0  0  0  0  0  0  0  0
   -0.0268    0.2095   -2.1261 C   0  0  0  0  0  0  0  0  0  0  0  0
   -0.3156    1.5528   -2.0161 N   0  0  0  0  0  0  0  0  0  0  0  0
   -0.4663    2.0605   -1.1573 H   0  0  0  0  0  0  0  0  0  0  0  0
   -0.3671    2.0696   -3.2553 C   0  0  0  0  0  0  0  0  0  0  0  0
   -0.5806    3.1044   -3.4937 H   0  0  0  0  0  0  0  0  0  0  0  0
   -0.1113    1.1190   -4.1660 N   0  0  0  0  0  0  0  0  0  0  0  0
    0.1023   -0.0683   -3.4608 C   0  0  0  0  0  0  0  0  0  0  0  0
    0.3602   -1.0283   -3.8890 H   0  0  0  0  0  0  0  0  0  0  0  0
   -0.6600    1.1486    0.4782 C   0  0  0  0  0  0  0  0  0  0  0  0
   -1.5001    1.7648   -0.1771 O   0  0  0  0  0  0  0  0  0  0  0  0
    0.1634    1.7559    1.3418 N   0  0  0  0  0  0  0  0  0  0  0  0
    0.8618    1.1897    1.8008 H   0  0  0  0  0  0  0  0  0  0  0  0
    0.1509    3.1886    1.6256 C   0  0  0  0  0  0  0  0  0  0  0  0
   -0.8272    3.4794    2.0152 H   0  0  0  0  0  0  0  0  0  0  0  0
    0.9172    3.4314    2.3624 H   0  0  0  0  0  0  0  0  0  0  0  0
    0.3414    3.7499    0.7095 H   0  0  0  0  0  0  0  0  0  0  0  0
  5  6  2  0  0  0  0
  5  7  1  0  0  0  0
  2  3  1  0  0  0  0
  2  4  1  0  0  0  0
  2  5  1  0  0  0  0
  1  2  1  0  0  0  0
 22 23  2  0  0  0  0
 22 24  1  0  0  0  0
 20 21  1  0  0  0  0
 19 20  1  0  0  0  0
 17 18  1  0  0  0  0
 17 19  2  0  0  0  0
 15 16  1  0  0  0  0
 15 17  1  0  0  0  0
 14 15  1  0  0  0  0
 14 20  2  0  0  0  0
 11 12  1  0  0  0  0
 11 13  1  0  0  0  0
 11 14  1  0  0  0  0
  9 10  1  0  0  0  0
  9 11  1  0  0  0  0
  9 22  1  0  0  0  0
  7  8  1  0  0  0  0
  7  9  1  0  0  0  0
 26 27  1  0  0  0  0
 26 28  1  0  0  0  0
 26 29  1  0  0  0  0
 24 25  1  0  0  0  0
 24 26  1  0  0  0  0
M  END
$$$$
default_name
  -OEChem-02102213163D

 29 29  0     1  0  0  0  0  0999 V2000
   -3.6042   -3.5728    1.4576 H   0  0  0  0  0  0  0  0  0  0  0  0
   -3.5202   -2.6488    0.8866 C   0  0  0  0  0  0  0  0  0  0  0  0
   -4.2052   -1.9048    1.2896 H   0  0  0  0  0  0  0  0  0  0  0  0
   -3.7552   -2.8428   -0.1584 H   0  0  0  0  0  0  0  0  0  0  0  0
   -2.1052   -2.1358    0.9946 C   0  0  0  0  0  0  0  0  0  0  0  0
   -1.2852   -2.7288    1.6826 O   0  0  0  0  0  0  0  0  0  0  0  0
   -1.8202   -1.0288    0.3146 N   0  0  0  0  0  0  0  0  0  0  0  0
   -2.5542   -0.5788   -0.2104 H   0  0  0  0  0  0  0  0  0  0  0  0
   -0.5102   -0.3728    0.3086 C   0  0  1  0  0  0  0  0  0  0  0  0
    0.0719   -0.7468    1.1521 H   0  0  0  0  0  0  0  0  0  0  0  0
    0.2338   -0.7427   -0.9878 C   0  0  0  0  0  0  0  0  0  0  0  0
    1.3071   -0.7625   -0.7906 H   0  0  0  0  0  0  0  0  0  0  0  0
   -0.0689   -1.7445   -1.2982 H   0  0  0  0  0  0  0  0  0  0  0  0
   -0.0268    0.2095   -2.1261 C   0  0  0  0  0  0  0  0  0  0  0  0
   -0.0299    1.5860   -2.0538 N   0  0  0  0  0  0  0  0  0  0  0  0
    0.0660    2.1379   -1.2145 H   0  0  0  0  0  0  0  0  0  0  0  0
   -0.1888    2.0671   -3.2982 C   0  0  0  0  0  0  0  0  0  0  0  0
   -0.2368    3.1165   -3.5623 H   0  0  0  0  0  0  0  0  0  0  0  0
   -0.2768    1.0590   -4.1782 N   0  0  0  0  0  0  0  0  0  0  0  0
   -0.1795   -0.1264   -3.4449 C   0  0  0  0  0  0  0  0  0  0  0  0
   -0.1862   -1.1303   -3.8493 H   0  0  0  0  0  0  0  0  0  0  0  0
   -0.6600    1.1486    0.4782 C   0  0  0  0  0  0  0  0  0  0  0  0
   -1.5001    1.7648   -0.1771 O   0  0  0  0  0  0  0  0  0  0  0  0
    0.1634    1.7559    1.3418 N   0  0  0  0  0  0  0  0  0  0  0  0
    0.8618    1.1897    1.8008 H   0  0  0  0  0  0  0  0  0  0  0  0
    0.1509    3.1886    1.6256 C   0  0  0  0  0  0  0  0  0  0  0  0
   -0.8272    3.4794    2.0152 H   0  0  0  0  0  0  0  0  0  0  0  0
    0.9172    3.4314    2.3624 H   0  0  0  0  0  0  0  0  0  0  0  0
    0.3414    3.7499    0.7095 H   0  0  0  0  0  0  0  0  0  0  0  0
  5  6  2  0  0  0  0
  5  7  1  0  0  0  0
  2  3  1  0  0  0  0
  2  4  1  0  0  0  0
  2  5  1  0  0  0  0
  1  2  1  0  0  0  0
 22 23  2  0  0  0  0
 22 24  1  0  0  0  0
 20 21  1  0  0  0  0
 19 20  1  0  0  0  0
 17 18  1  0  0  0  0
 17 19  2  0  0  0  0
 15 16  1  0  0  0  0
 15 17  1  0  0  0  0
 14 15  1  0  0  0  0
 14 20  2  0  0  0  0
 11 12  1  0  0  0  0
 11 13  1  0  0  0  0
 11 14  1  0  0  0  0
  9 10  1  0  0  0  0
  9 11  1  0  0  0  0
  9 22  1  0  0  0  0
  7  8  1  0  0  0  0
  7  9  1  0  0  0  0
 26 27  1  0  0  0  0
 26 28  1  0  0  0  0
 26 29  1  0  0  0  0
 24 25  1  0  0  0  0
 24 26  1  0  0  0  0
M  END
$$$$
default_name
  -OEChem-02102213163D

 29 29  0     1  0  0  0  0  0999 V2000
   -3.6042   -3.5728    1.4576 H   0  0  0  0  0  0  0  0  0  0  0  0
   -3.5202   -2.6488    0.8866 C   0  0  0  0  0  0  0  0  0  0  0  0
   -4.2052   -1.9048    1.2896 H   0  0  0  0  0  0  0  0  0  0  0  0
   -3.7552   -2.8428   -0.1584 H   0  0  0  0  0  0  0  0  0  0  0  0
   -2.1052   -2.1358    0.9946 C   0  0  0  0  0  0  0  0  0  0  0  0
   -1.2852   -2.7288    1.6826 O   0  0  0  0  0  0  0  0  0  0  0  0
   -1.8202   -1.0288    0.3146 N   0  0  0  0  0  0  0  0  0  0  0  0
   -2.5542   -0.5788   -0.2104 H   0  0  0  0  0  0  0  0  0  0  0  0
   -0.5102   -0.3728    0.3086 C   0  0  1  0  0  0  0  0  0  0  0  0
    0.0719   -0.7468    1.1521 H   0  0  0  0  0  0  0  0  0  0  0  0
    0.2338   -0.7427   -0.9878 C   0  0  0  0  0  0  0  0  0  0  0  0
    1.3071   -0.7625   -0.7906 H   0  0  0  0  0  0  0  0  0  0  0  0
   -0.0689   -1.7445   -1.2982 H   0  0  0  0  0  0  0  0  0  0  0  0
   -0.0268    0.2095   -2.1261 C   0  0  0  0  0  0  0  0  0  0  0  0
    0.2464    1.5605   -2.1384 N   0  0  0  0  0  0  0  0  0  0  0  0
    0.5860    2.1059   -1.3603 H   0  0  0  0  0  0  0  0  0  0  0  0
   -0.0240    2.0279   -3.3687 C   0  0  0  0  0  0  0  0  0  0  0  0
    0.0864    3.0579   -3.6853 H   0  0  0  0  0  0  0  0  0  0  0  0
   -0.4504    1.0329   -4.1603 N   0  0  0  0  0  0  0  0  0  0  0  0
   -0.4604   -0.1267   -3.3808 C   0  0  0  0  0  0  0  0  0  0  0  0
   -0.7274   -1.1203   -3.7169 H   0  0  0  0  0  0  0  0  0  0  0  0
   -0.6600    1.1486    0.4782 C   0  0  0  0  0  0  0  0  0  0  0  0
   -1.5001    1.7648   -0.1771 O   0  0  0  0  0  0  0  0  0  0  0  0
    0.1634    1.7559    1.3418 N   0  0  0  0  0  0  0  0  0  0  0  0
    0.8618    1.1897    1.8008 H   0  0  0  0  0  0  0  0  0  0  0  0
    0.1509    3.1886    1.6256 C   0  0  0  0  0  0  0  0  0  0  0  0
   -0.8272    3.4794    2.0152 H   0  0  0  0  0  0  0  0  0  0  0  0
    0.9172    3.4314    2.3624 H   0  0  0  0  0  0  0  0  0  0  0  0
    0.3414    3.7499    0.7095 H   0  0  0  0  0  0  0  0  0  0  0  0
  5  6  2  0  0  0  0
  5  7  1  0  0  0  0
  2  3  1  0  0  0  0
  2  4  1  0  0  0  0
  2  5  1  0  0  0  0
  1  2  1  0  0  0  0
 22 23  2  0  0  0  0
 22 24  1  0  0  0  0
 20 21  1  0  0  0  0
 19 20  1  0  0  0  0
 17 18  1  0  0  0  0
 17 19  2  0  0  0  0
 15 16  1  0  0  0  0
 15 17  1  0  0  0  0
 14 15  1  0  0  0  0
 14 20  2  0  0  0  0
 11 12  1  0  0  0  0
 11 13  1  0  0  0  0
 11 14  1  0  0  0  0
  9 10  1  0  0  0  0
  9 11  1  0  0  0  0
  9 22  1  0  0  0  0
  7  8  1  0  0  0  0
  7  9  1  0  0  0  0
 26 27  1  0  0  0  0
 26 28  1  0  0  0  0
 26 29  1  0  0  0  0
 24 25  1  0  0  0  0
 24 26  1  0  0  0  0
M  END
$$$$
default_name
  -OEChem-02102213163D

 29 29  0     1  0  0  0  0  0999 V2000
   -3.6042   -3.5728    1.4576 H   0  0  0  0  0  0  0  0  0  0  0  0
   -3.5202   -2.6488    0.8866 C   0  0  0  0  0  0  0  0  0  0  0  0
   -4.2052   -1.9048    1.2896 H   0  0  0  0  0  0  0  0  0  0  0  0
   -3.7552   -2.8428   -0.1584 H   0  0  0  0  0  0  0  0  0  0  0  0
   -2.1052   -2.1358    0.9946 C   0  0  0  0  0  0  0  0  0  0  0  0
   -1.2852   -2.7288    1.6826 O   0  0  0  0  0  0  0  0  0  0  0  0
   -1.8202   -1.0288    0.3146 N   0  0  0  0  0  0  0  0  0  0  0  0
   -2.5542   -0.5788   -0.2104 H   0  0  0  0  0  0  0  0  0  0  0  0
   -0.5102   -0.3728    0.3086 C   0  0  1  0  0  0  0  0  0  0  0  0
    0.0719   -0.7468    1.1521 H   0  0  0  0  0  0  0  0  0  0  0  0
    0.2338   -0.7427   -0.9878 C   0  0  0  0  0  0  0  0  0  0  0  0
    1.3071   -0.7625   -0.7906 H   0  0  0  0  0  0  0  0  0  0  0  0
   -0.0689   -1.7445   -1.2982 H   0  0  0  0  0  0  0  0  0  0  0  0
   -0.0268    0.2095   -2.1261 C   0  0  0  0  0  0  0  0  0  0  0  0
    0.4944    1.4780   -2.2642 N   0  0  0  0  0  0  0  0  0  0  0  0
    1.0581    1.9668   -1.5848 H   0  0  0  0  0  0  0  0  0  0  0  0
    0.1159    1.9547   -3.4620 C   0  0  0  0  0  0  0  0  0  0  0  0
    0.3670    2.9326   -3.8544 H   0  0  0  0  0  0  0  0  0  0  0  0
   -0.6202    1.0425   -4.1134 N   0  0  0  0  0  0  0  0  0  0  0  0
   -0.7214   -0.0692   -3.2730 C   0  0  0  0  0  0  0  0  0  0  0  0
   -1.2266   -0.9989   -3.5010 H   0  0  0  0  0  0  0  0  0  0  0  0
   -0.6600    1.1486    0.4782 C   0  0  0  0  0  0  0  0  0  0  0  0
   -1.5001    1.7648   -0.1771 O   0  0  0  0  0  0  0  0  0  0  0  0
    0.1634    1.7559    1.3418 N   0  0  0  0  0  0  0  0  0  0  0  0
    0.8618    1.1897    1.8008 H   0  0  0  0  0  0  0  0  0  0  0  0
    0.1509    3.1886    1.6256 C   0  0  0  0  0  0  0  0  0  0  0  0
   -0.8272    3.4794    2.0152 H   0  0  0  0  0  0  0  0  0  0  0  0
    0.9172    3.4314    2.3624 H   0  0  0  0  0  0  0  0  0  0  0  0
    0.3414    3.7499    0.7095 H   0  0  0  0  0  0  0  0  0  0  0  0
  5  6  2  0  0  0  0
  5  7  1  0  0  0  0
  2  3  1  0  0  0  0
  2  4  1  0  0  0  0
  2  5  1  0  0  0  0
  1  2  1  0  0  0  0
 22 23  2  0  0  0  0
 22 24  1  0  0  0  0
 20 21  1  0  0  0  0
 19 20  1  0  0  0  0
 17 18  1  0  0  0  0
 17 19  2  0  0  0  0
 15 16  1  0  0  0  0
 15 17  1  0  0  0  0
 14 15  1  0  0  0  0
 14 20  2  0  0  0  0
 11 12  1  0  0  0  0
 11 13  1  0  0  0  0
 11 14  1  0  0  0  0
  9 10  1  0  0  0  0
  9 11  1  0  0  0  0
  9 22  1  0  0  0  0
  7  8  1  0  0  0  0
  7  9  1  0  0  0  0
 26 27  1  0  0  0  0
 26 28  1  0  0  0  0
 26 29  1  0  0  0  0
 24 25  1  0  0  0  0
 24 26  1  0  0  0  0
M  END
$$$$
default_name
  -OEChem-02102213163D

 29 29  0     1  0  0  0  0  0999 V2000
   -3.6042   -3.5728    1.4576 H   0  0  0  0  0  0  0  0  0  0  0  0
   -3.5202   -2.6488    0.8866 C   0  0  0  0  0  0  0  0  0  0  0  0
   -4.2052   -1.9048    1.2896 H   0  0  0  0  0  0  0  0  0  0  0  0
   -3.7552   -2.8428   -0.1584 H   0  0  0  0  0  0  0  0  0  0  0  0
   -2.1052   -2.1358    0.9946 C   0  0  0  0  0  0  0  0  0  0  0  0
   -1.2852   -2.7288    1.6826 O   0  0  0  0  0  0  0  0  0  0  0  0
   -1.8202   -1.0288    0.3146 N   0  0  0  0  0  0  0  0  0  0  0  0
   -2.5542   -0.5788   -0.2104 H   0  0  0  0  0  0  0  0  0  0  0  0
   -0.5102   -0.3728    0.3086 C   0  0  1  0  0  0  0  0  0  0  0  0
    0.0719   -0.7468    1.1521 H   0  0  0  0  0  0  0  0  0  0  0  0
    0.2338   -0.7427   -0.9878 C   0  0  0  0  0  0  0  0  0  0  0  0
    1.3071   -0.7625   -0.7906 H   0  0  0  0  0  0  0  0  0  0  0  0
   -0.0689   -1.7445   -1.2982 H   0  0  0  0  0  0  0  0  0  0  0  0
   -0.0268    0.2095   -2.1261 C   0  0  0  0  0  0  0  0  0  0  0  0
    0.6973    1.3443   -2.4225 N   0  0  0  0  0  0  0  0  0  0  0  0
    1.4502    1.7301   -1.8726 H   0  0  0  0  0  0  0  0  0  0  0  0
    0.2215    1.8525   -3.5717 C   0  0  0  0  0  0  0  0  0  0  0  0
    0.5859    2.7491   -4.0580 H   0  0  0  0  0  0  0  0  0  0  0  0
   -0.7747    1.0870   -4.0408 N   0  0  0  0  0  0  0  0  0  0  0  0
   -0.9446    0.0422   -3.1287 C   0  0  0  0  0  0  0  0  0  0  0  0
   -1.6497   -0.7743   -3.2163 H   0  0  0  0  0  0  0  0  0  0  0  0
   -0.6600    1.1486    0.4782 C   0  0  0  0  0  0  0  0  0  0  0  0
   -1.5001    1.7648   -0.1771 O   0  0  0  0  0  0  0  0  0  0  0  0
    0.1634    1.7559    1.3418 N   0  0  0  0  0  0  0  0  0  0  0  0
    0.8618    1.1897    1.8008 H   0  0  0  0  0  0  0  0  0  0  0  0
    0.1509    3.1886    1.6256 C   0  0  0  0  0  0  0  0  0  0  0  0
   -0.8272    3.4794    2.0152 H   0  0  0  0  0  0  0  0  0  0  0  0
    0.9172    3.4314    2.3624 H   0  0  0  0  0  0  0  0  0  0  0  0
    0.3414    3.7499    0.7095 H   0  0  0  0  0  0  0  0  0  0  0  0
  5  6  2  0  0  0  0
  5  7  1  0  0  0  0
  2  3  1  0  0  0  0
  2  4  1  0  0  0  0
  2  5  1  0  0  0  0
  1  2  1  0  0  0  0
 22 23  2  0  0  0  0
 22 24  1  0  0  0  0
 20 21  1  0  0  0  0
 19 20  1  0  0  0  0
 17 18  1  0  0  0  0
 17 19  2  0  0  0  0
 15 16  1  0  0  0  0
 15 17  1  0  0  0  0
 14 15  1  0  0  0  0
 14 20  2  0  0  0  0
 11 12  1  0  0  0  0
 11 13  1  0  0  0  0
 11 14  1  0  0  0  0
  9 10  1  0  0  0  0
  9 11  1  0  0  0  0
  9 22  1  0  0  0  0
  7  8  1  0  0  0  0
  7  9  1  0  0  0  0
 26 27  1  0  0  0  0
 26 28  1  0  0  0  0
 26 29  1  0  0  0  0
 24 25  1  0  0  0  0
 24 26  1  0  0  0  0
M  END
$$$$
default_name
  -OEChem-02102213163D

 29 29  0     1  0  0  0  0  0999 V2000
   -3.6042   -3.5728    1.4576 H   0  0  0  0  0  0  0  0  0  0  0  0
   -3.5202   -2.6488    0.8866 C   0  0  0  0  0  0  0  0  0  0  0  0
   -4.2052   -1.9048    1.2896 H   0  0  0  0  0  0  0  0  0  0  0  0
   -3.7552   -2.8428   -0.1584 H   0  0  0  0  0  0  0  0  0  0  0  0
   -2.1052   -2.1358    0.9946 C   0  0  0  0  0  0  0  0  0  0  0  0
   -1.2852   -2.7288    1.6826 O   0  0  0  0  0  0  0  0  0  0  0  0
   -1.8202   -1.0288    0.3146 N   0  0  0  0  0  0  0  0  0  0  0  0
   -2.5542   -0.5788   -0.2104 H   0  0  0  0  0  0  0  0  0  0  0  0
   -0.5102   -0.3728    0.3086 C   0  0  1  0  0  0  0  0  0  0  0  0
    0.0719   -0.7468    1.1521 H   0  0  0  0  0  0  0  0  0  0  0  0
    0.2338   -0.7427   -0.9878 C   0  0  0  0  0  0  0  0  0  0  0  0
    1.3071   -0.7625   -0.7906 H   0  0  0  0  0  0  0  0  0  0  0  0
   -0.0689   -1.7445   -1.2982 H   0  0  0  0  0  0  0  0  0  0  0  0
   -0.0268    0.2095   -2.1261 C   0  0  0  0  0  0  0  0  0  0  0  0
    0.8412    1.1683   -2.6027 N   0  0  0  0  0  0  0  0  0  0  0  0
    1.7357    1.4119   -2.2042 H   0  0  0  0  0  0  0  0  0  0  0  0
    0.2855    1.7282   -3.6904 C   0  0  0  0  0  0  0  0  0  0  0  0
    0.7282    2.5200   -4.2823 H   0  0  0  0  0  0  0  0  0  0  0  0
   -0.9033    1.1635   -3.9474 N   0  0  0  0  0  0  0  0  0  0  0  0
   -1.1148    0.1999   -2.9578 C   0  0  0  0  0  0  0  0  0  0  0  0
   -1.9679   -0.4619   -2.8821 H   0  0  0  0  0  0  0  0  0  0  0  0
   -0.6600    1.1486    0.4782 C   0  0  0  0  0  0  0  0  0  0  0  0
   -1.5001    1.7648   -0.1771 O   0  0  0  0  0  0  0  0  0  0  0  0
    0.1634    1.7559    1.3418 N   0  0  0  0  0  0  0  0  0  0  0  0
    0.8618    1.1897    1.8008 H   0  0  0  0  0  0  0  0  0  0  0  0
    0.1509    3.1886    1.6256 C   0  0  0  0  0  0  0  0  0  0  0  0
   -0.8272    3.4794    2.0152 H   0  0  0  0  0  0  0  0  0  0  0  0
    0.9172    3.4314    2.3624 H   0  0  0  0  0  0  0  0  0  0  0  0
    0.3414    3.7499    0.7095 H   0  0  0  0  0  0  0  0  0  0  0  0
  5  6  2  0  0  0  0
  5  7  1  0  0  0  0
  2  3  1  0  0  0  0
  2  4  1  0  0  0  0
  2  5  1  0  0  0  0
  1  2  1  0  0  0  0
 22 23  2  0  0  0  0
 22 24  1  0  0  0  0
 20 21  1  0  0  0  0
 19 20  1  0  0  0  0
 17 18  1  0  0  0  0
 17 19  2  0  0  0  0
 15 16  1  0  0  0  0
 15 17  1  0  0  0  0
 14 15  1  0  0  0  0
 14 20  2  0  0  0  0
 11 12  1  0  0  0  0
 11 13  1  0  0  0  0
 11 14  1  0  0  0  0
  9 10  1  0  0  0  0
  9 11  1  0  0  0  0
  9 22  1  0  0  0  0
  7  8  1  0  0  0  0
  7  9  1  0  0  0  0
 26 27  1  0  0  0  0
 26 28  1  0  0  0  0
 26 29  1  0  0  0  0
 24 25  1  0  0  0  0
 24 26  1  0  0  0  0
M  END
$$$$
default_name
  -OEChem-02102213163D

 29 29  0     1  0  0  0  0  0999 V2000
   -3.6042   -3.5728    1.4576 H   0  0  0  0  0  0  0  0  0  0  0  0
   -3.5202   -2.6488    0.8866 C   0  0  0  0  0  0  0  0  0  0  0  0
   -4.2052   -1.9048    1.2896 H   0  0  0  0  0  0  0  0  0  0  0  0
   -3.7552   -2.8428   -0.1584 H   0  0  0  0  0  0  0  0  0  0  0  0
   -2.1052   -2.1358    0.9946 C   0  0  0  0  0  0  0  0  0  0  0  0
   -1.2852   -2.7288    1.6826 O   0  0  0  0  0  0  0  0  0  0  0  0
   -1.8202   -1.0288    0.3146 N   0  0  0  0  0  0  0  0  0  0  0  0
   -2.5542   -0.5788   -0.2104 H   0  0  0  0  0  0  0  0  0  0  0  0
   -0.5102   -0.3728    0.3086 C   0  0  1  0  0  0  0  0  0  0  0  0
    0.0719   -0.7468    1.1521 H   0  0  0  0  0  0  0  0  0  0  0  0
    0.2338   -0.7427   -0.9878 C   0  0  0  0  0  0  0  0  0  0  0  0
    1.3071   -0.7625   -0.7906 H   0  0  0  0  0  0  0  0  0  0  0  0
   -0.0689   -1.7445   -1.2982 H   0  0  0  0  0  0  0  0  0  0  0  0
   -0.0268    0.2095   -2.1261 C   0  0  0  0  0  0  0  0  0  0  0  0
    0.9164    0.9621   -2.7923 N   0  0  0  0  0  0  0  0  0  0  0  0
    1.8949    1.0338   -2.5568 H   0  0  0  0  0  0  0  0  0  0  0  0
    0.3037    1.5903   -3.8099 C   0  0  0  0  0  0  0  0  0  0  0  0
    0.7841    2.2608   -4.5119 H   0  0  0  0  0  0  0  0  0  0  0  0
   -0.9974    1.2667   -3.8395 N   0  0  0  0  0  0  0  0  0  0  0  0
   -1.2204    0.3931   -2.7720 C   0  0  0  0  0  0  0  0  0  0  0  0
   -2.1595   -0.0829   -2.5212 H   0  0  0  0  0  0  0  0  0  0  0  0
   -0.6600    1.1486    0.4782 C   0  0  0  0  0  0  0  0  0  0  0  0
   -1.5001    1.7648   -0.1771 O   0  0  0  0  0  0  0  0  0  0  0  0
    0.1634    1.7559    1.3418 N   0  0  0  0  0  0  0  0  0  0  0  0
    0.8618    1.1897    1.8008 H   0  0  0  0  0  0  0  0  0  0  0  0
    0.1509    3.1886    1.6256 C   0  0  0  0  0  0  0  0  0  0  0  0
   -0.8272    3.4794    2.0152 H   0  0  0  0  0  0  0  0  0  0  0  0
    0.9172    3.4314    2.3624 H   0  0  0  0  0  0  0  0  0  0  0  0
    0.3414    3.7499    0.7095 H   0  0  0  0  0  0  0  0  0  0  0  0
  5  6  2  0  0  0  0
  5  7  1  0  0  0  0
  2  3  1  0  0  0  0
  2  4  1  0  0  0  0
  2  5  1  0  0  0  0
  1  2  1  0  0  0  0
 22 23  2  0  0  0  0
 22 24  1  0  0  0  0
 20 21  1  0  0  0  0
 19 20  1  0  0  0  0
 17 18  1  0  0  0  0
 17 19  2  0  0  0  0
 15 16  1  0  0  0  0
 15 17  1  0  0  0  0
 14 15  1  0  0  0  0
 14 20  2  0  0  0  0
 11 12  1  0  0  0  0
 11 13  1  0  0  0  0
 11 14  1  0  0  0  0
  9 10  1  0  0  0  0
  9 11  1  0  0  0  0
  9 22  1  0  0  0  0
  7  8  1  0  0  0  0
  7  9  1  0  0  0  0
 26 27  1  0  0  0  0
 26 28  1  0  0  0  0
 26 29  1  0  0  0  0
 24 25  1  0  0  0  0
 24 26  1  0  0  0  0
M  END
$$$$
default_name
  -OEChem-02102213163D

 29 29  0     1  0  0  0  0  0999 V2000
   -3.6042   -3.5728    1.4576 H   0  0  0  0  0  0  0  0  0  0  0  0
   -3.5202   -2.6488    0.8866 C   0  0  0  0  0  0  0  0  0  0  0  0
   -4.2052   -1.9048    1.2896 H   0  0  0  0  0  0  0  0  0  0  0  0
   -3.7552   -2.8428   -0.1584 H   0  0  0  0  0  0  0  0  0  0  0  0
   -2.1052   -2.1358    0.9946 C   0  0  0  0  0  0  0  0  0  0  0  0
   -1.2852   -2.7288    1.6826 O   0  0  0  0  0  0  0  0  0  0  0  0
   -1.8202   -1.0288    0.3146 N   0  0  0  0  0  0  0  0  0  0  0  0
   -2.5542   -0.5788   -0.2104 H   0  0  0  0  0  0  0  0  0  0  0  0
   -0.5102   -0.3728    0.3086 C   0  0  1  0  0  0  0  0  0  0  0  0
    0.0719   -0.7468    1.1521 H   0  0  0  0  0  0  0  0  0  0  0  0
    0.2338   -0.7427   -0.9878 C   0  0  0  0  0  0  0  0  0  0  0  0
    1.3071   -0.7625   -0.7906 H   0  0  0  0  0  0  0  0  0  0  0  0
   -0.0689   -1.7445   -1.2982 H   0  0  0  0  0  0  0  0  0  0  0  0
   -0.0268    0.2095   -2.1261 C   0  0  0  0  0  0  0  0  0  0  0  0
    0.9176    0.7398   -2.9786 N   0  0  0  0  0  0  0  0  0  0  0  0
    1.9171    0.6218   -2.9066 H   0  0  0  0  0  0  0  0  0  0  0  0
    0.2747    1.4482   -3.9221 C   0  0  0  0  0  0  0  0  0  0  0  0
    0.7499    1.9892   -4.7313 H   0  0  0  0  0  0  0  0  0  0  0  0
   -1.0504    1.3896   -3.7246 N   0  0  0  0  0  0  0  0  0  0  0  0
   -1.2542    0.6088   -2.5838 C   0  0  0  0  0  0  0  0  0  0  0  0
   -2.2115    0.3367   -2.1583 H   0  0  0  0  0  0  0  0  0  0  0  0
   -0.6600    1.1486    0.4782 C   0  0  0  0  0  0  0  0  0  0  0  0
   -1.5001    1.7648   -0.1771 O   0  0  0  0  0  0  0  0  0  0  0  0
    0.1634    1.7559    1.3418 N   0  0  0  0  0  0  0  0  0  0  0  0
    0.8618    1.1897    1.8008 H   0  0  0  0  0  0  0  0  0  0  0  0
    0.1509    3.1886    1.6256 C   0  0  0  0  0  0  0  0  0  0  0  0
   -0.8272    3.4794    2.0152 H   0  0  0  0  0  0  0  0  0  0  0  0
    0.9172    3.4314    2.3624 H   0  0  0  0  0  0  0  0  0  0  0  0
    0.3414    3.7499    0.7095 H   0  0  0  0  0  0  0  0  0  0  0  0
  5  6  2  0  0  0  0
  5  7  1  0  0  0  0
  2  3  1  0  0  0  0
  2  4  1  0  0  0  0
  2  5  1  0  0  0  0
  1  2  1  0  0  0  0
 22 23  2  0  0  0  0
 22 24  1  0  0  0  0
 20 21  1  0  0  0  0
 19 20  1  0  0  0  0
 17 18  1  0  0  0  0
 17 19  2  0  0  0  0
 15 16  1  0  0  0  0
 15 17  1  0  0  0  0
 14 15  1  0  0  0  0
 14 20  2  0  0  0  0
 11 12  1  0  0  0  0
 11 13  1  0  0  0  0
 11 14  1  0  0  0  0
  9 10  1  0  0  0  0
  9 11  1  0  0  0  0
  9 22  1  0  0  0  0
  7  8  1  0  0  0  0
  7  9  1  0  0  0  0
 26 27  1  0  0  0  0
 26 28  1  0  0  0  0
 26 29  1  0  0  0  0
 24 25  1  0  0  0  0
 24 26  1  0  0  0  0
M  END
$$$$
default_name
  -OEChem-02102213163D

 29 29  0     1  0  0  0  0  0999 V2000
   -3.6042   -3.5728    1.4576 H   0  0  0  0  0  0  0  0  0  0  0  0
   -3.5202   -2.6488    0.8866 C   0  0  0  0  0  0  0  0  0  0  0  0
   -4.2052   -1.9048    1.2896 H   0  0  0  0  0  0  0  0  0  0  0  0
   -3.7552   -2.8428   -0.1584 H   0  0  0  0  0  0  0  0  0  0  0  0
   -2.1052   -2.1358    0.9946 C   0  0  0  0  0  0  0  0  0  0  0  0
   -1.2852   -2.7288    1.6826 O   0  0  0  0  0  0  0  0  0  0  0  0
   -1.8202   -1.0288    0.3146 N   0  0  0  0  0  0  0  0  0  0  0  0
   -2.5542   -0.5788   -0.2104 H   0  0  0  0  0  0  0  0  0  0  0  0
   -0.5102   -0.3728    0.3086 C   0  0  1  0  0  0  0  0  0  0  0  0
    0.0719   -0.7468    1.1521 H   0  0  0  0  0  0  0  0  0  0  0  0
    0.2338   -0.7427   -0.9878 C   0  0  0  0  0  0  0  0  0  0  0  0
    1.3071   -0.7625   -0.7906 H   0  0  0  0  0  0  0  0  0  0  0  0
   -0.0689   -1.7445   -1.2982 H   0  0  0  0  0  0  0  0  0  0  0  0
   -0.0268    0.2095   -2.1261 C   0  0  0  0  0  0  0  0  0  0  0  0
    0.8449    0.5164   -3.1488 N   0  0  0  0  0  0  0  0  0  0  0  0
    1.8008    0.2037   -3.2297 H   0  0  0  0  0  0  0  0  0  0  0  0
    0.2005    1.3115   -4.0195 C   0  0  0  0  0  0  0  0  0  0  0  0
    0.6279    1.7237   -4.9254 H   0  0  0  0  0  0  0  0  0  0  0  0
   -1.0588    1.5238   -3.6104 N   0  0  0  0  0  0  0  0  0  0  0  0
   -1.2139    0.8321   -2.4062 C   0  0  0  0  0  0  0  0  0  0  0  0
   -2.1202    0.7685   -1.8180 H   0  0  0  0  0  0  0  0  0  0  0  0
   -0.6600    1.1486    0.4782 C   0  0  0  0  0  0  0  0  0  0  0  0
   -1.5001    1.7648   -0.1771 O   0  0  0  0  0  0  0  0  0  0  0  0
    0.1634    1.7559    1.3418 N   0  0  0  0  0  0  0  0  0  0  0  0
    0.8618    1.1897    1.8008 H   0  0  0  0  0  0  0  0  0  0  0  0
    0.1509    3.1886    1.6256 C   0  0  0  0  0  0  0  0  0  0  0  0
   -0.8272    3.4794    2.0152 H   0  0  0  0  0  0  0  0  0  0  0  0
    0.9172    3.4314    2.3624 H   0  0  0  0  0  0  0  0  0  0  0  0
    0.3414    3.7499    0.7095 H   0  0  0  0  0  0  0  0  0  0  0  0
  5  6  2  0  0  0  0
  5  7  1  0  0  0  0
  2  3  1  0  0  0  0
  2  4  1  0  0  0  0
  2  5  1  0  0  0  0
  1  2  1  0  0  0  0
 22 23  2  0  0  0  0
 22 24  1  0  0  0  0
 20 21  1  0  0  0  0
 19 20  1  0  0  0  0
 17 18  1  0  0  0  0
 17 19  2  0  0  0  0
 15 16  1  0  0  0  0
 15 17  1  0  0  0  0
 14 15  1  0  0  0  0
 14 20  2  0  0  0  0
 11 12  1  0  0  0  0
 11 13  1  0  0  0  0
 11 14  1  0  0  0  0
  9 10  1  0  0  0  0
  9 11  1  0  0  0  0
  9 22  1  0  0  0  0
  7  8  1  0  0  0  0
  7  9  1  0  0  0  0
 26 27  1  0  0  0  0
 26 28  1  0  0  0  0
 26 29  1  0  0  0  0
 24 25  1  0  0  0  0
 24 26  1  0  0  0  0
M  END
$$$$
default_name
  -OEChem-02102213163D

 29 29  0     1  0  0  0  0  0999 V2000
   -3.6042   -3.5728    1.4576 H   0  0  0  0  0  0  0  0  0  0  0  0
   -3.5202   -2.6488    0.8866 C   0  0  0  0  0  0  0  0  0  0  0  0
   -4.2052   -1.9048    1.2896 H   0  0  0  0  0  0  0  0  0  0  0  0
   -3.7552   -2.8428   -0.1584 H   0  0  0  0  0  0  0  0  0  0  0  0
   -2.1052   -2.1358    0.9946 C   0  0  0  0  0  0  0  0  0  0  0  0
   -1.2852   -2.7288    1.6826 O   0  0  0  0  0  0  0  0  0  0  0  0
   -1.8202   -1.0288    0.3146 N   0  0  0  0  0  0  0  0  0  0  0  0
   -2.5542   -0.5788   -0.2104 H   0  0  0  0  0  0  0  0  0  0  0  0
   -0.5102   -0.3728    0.3086 C   0  0  1  0  0  0  0  0  0  0  0  0
    0.0719   -0.7468    1.1521 H   0  0  0  0  0  0  0  0  0  0  0  0
    0.2338   -0.7427   -0.9878 C   0  0  0  0  0  0  0  0  0  0  0  0
    1.3071   -0.7625   -0.7906 H   0  0  0  0  0  0  0  0  0  0  0  0
   -0.0689   -1.7445   -1.2982 H   0  0  0  0  0  0  0  0  0  0  0  0
   -0.0268    0.2095   -2.1261 C   0  0  0  0  0  0  0  0  0  0  0  0
    0.7031    0.3073   -3.2913 N   0  0  0  0  0  0  0  0  0  0  0  0
    1.5539   -0.1918   -3.5040 H   0  0  0  0  0  0  0  0  0  0  0  0
    0.0863    1.1897   -4.0952 C   0  0  0  0  0  0  0  0  0  0  0  0
    0.4264    1.4825   -5.0810 H   0  0  0  0  0  0  0  0  0  0  0  0
   -1.0220    1.6602   -3.5047 N   0  0  0  0  0  0  0  0  0  0  0  0
   -1.1023    1.0479   -2.2513 C   0  0  0  0  0  0  0  0  0  0  0  0
   -1.8921    1.1830   -1.5235 H   0  0  0  0  0  0  0  0  0  0  0  0
   -0.6600    1.1486    0.4782 C   0  0  0  0  0  0  0  0  0  0  0  0
   -1.5001    1.7648   -0.1771 O   0  0  0  0  0  0  0  0  0  0  0  0
    0.1634    1.7559    1.3418 N   0  0  0  0  0  0  0  0  0  0  0  0
    0.8618    1.1897    1.8008 H   0  0  0  0  0  0  0  0  0  0  0  0
    0.1509    3.1886    1.6256 C   0  0  0  0  0  0  0  0  0  0  0  0
   -0.8272    3.4794    2.0152 H   0  0  0  0  0  0  0  0  0  0  0  0
    0.9172    3.4314    2.3624 H   0  0  0  0  0  0  0  0  0  0  0  0
    0.3414    3.7499    0.7095 H   0  0  0  0  0  0  0  0  0  0  0  0
  5  6  2  0  0  0  0
  5  7  1  0  0  0  0
  2  3  1  0  0  0  0
  2  4  1  0  0  0  0
  2  5  1  0  0  0  0
  1  2  1  0  0  0  0
 22 23  2  0  0  0  0
 22 24  1  0  0  0  0
 20 21  1  0  0  0  0
 19 20  1  0  0  0  0
 17 18  1  0  0  0  0
 17 19  2  0  0  0  0
 15 16  1  0  0  0  0
 15 17  1  0  0  0  0
 14 15  1  0  0  0  0
 14 20  2  0  0  0  0
 11 12  1  0  0  0  0
 11 13  1  0  0  0  0
 11 14  1  0  0  0  0
  9 10  1  0  0  0  0
  9 11  1  0  0  0  0
  9 22  1  0  0  0  0
  7  8  1  0  0  0  0
  7  9  1  0  0  0  0
 26 27  1  0  0  0  0
 26 28  1  0  0  0  0
 26 29  1  0  0  0  0
 24 25  1  0  0  0  0
 24 26  1  0  0  0  0
M  END
$$$$
default_name
  -OEChem-02102213163D

 29 29  0     1  0  0  0  0  0999 V2000
   -3.6042   -3.5728    1.4576 H   0  0  0  0  0  0  0  0  0  0  0  0
   -3.5202   -2.6488    0.8866 C   0  0  0  0  0  0  0  0  0  0  0  0
   -4.2052   -1.9048    1.2896 H   0  0  0  0  0  0  0  0  0  0  0  0
   -3.7552   -2.8428   -0.1584 H   0  0  0  0  0  0  0  0  0  0  0  0
   -2.1052   -2.1358    0.9946 C   0  0  0  0  0  0  0  0  0  0  0  0
   -1.2852   -2.7288    1.6826 O   0  0  0  0  0  0  0  0  0  0  0  0
   -1.8202   -1.0288    0.3146 N   0  0  0  0  0  0  0  0  0  0  0  0
   -2.5542   -0.5788   -0.2104 H   0  0  0  0  0  0  0  0  0  0  0  0
   -0.5102   -0.3728    0.3086 C   0  0  1  0  0  0  0  0  0  0  0  0
    0.0719   -0.7468    1.1521 H   0  0  0  0  0  0  0  0  0  0  0  0
    0.2338   -0.7427   -0.9878 C   0  0  0  0  0  0  0  0  0  0  0  0
    1.2598   -1.0233   -0.7433 H   0  0  0  0  0  0  0  0  0  0  0  0
   -0.2517   -1.6085   -1.4419 H   0  0  0  0  0  0  0  0  0  0  0  0
    0.2702    0.3712   -2.0018 C   0  0  0  0  0  0  0  0  0  0  0  0
    0.8642    0.3238   -3.2448 N   0  0  0  0  0  0  0  0  0  0  0  0
    1.4191   -0.4355   -3.6104 H   0  0  0  0  0  0  0  0  0  0  0  0
    0.5797    1.4703   -3.8852 C   0  0  0  0  0  0  0  0  0  0  0  0
    0.9136    1.7297   -4.8824 H   0  0  0  0  0  0  0  0  0  0  0  0
   -0.1854    2.2559   -3.1134 N   0  0  0  0  0  0  0  0  0  0  0  0
   -0.3854    1.5702   -1.9124 C   0  0  0  0  0  0  0  0  0  0  0  0
   -0.9818    1.9086   -1.0750 H   0  0  0  0  0  0  0  0  0  0  0  0
   -0.6600    1.1486    0.4782 C   0  0  0  0  0  0  0  0  0  0  0  0
   -1.5001    1.7648   -0.1771 O   0  0  0  0  0  0  0  0  0  0  0  0
    0.1634    1.7559    1.3418 N   0  0  0  0  0  0  0  0  0  0  0  0
    0.8618    1.1897    1.8008 H   0  0  0  0  0  0  0  0  0  0  0  0
    0.1509    3.1886    1.6256 C   0  0  0  0  0  0  0  0  0  0  0  0
   -0.8272    3.4794    2.0152 H   0  0  0  0  0  0  0  0  0  0  0  0
    0.9172    3.4314    2.3624 H   0  0  0  0  0  0  0  0  0  0  0  0
    0.3414    3.7499    0.7095 H   0  0  0  0  0  0  0  0  0  0  0  0
  5  6  2  0  0  0  0
  5  7  1  0  0  0  0
  2  3  1  0  0  0  0
  2  4  1  0  0  0  0
  2  5  1  0  0  0  0
  1  2  1  0  0  0  0
 22 23  2  0  0  0  0
 22 24  1  0  0  0  0
 20 21  1  0  0  0  0
 19 20  1  0  0  0  0
 17 18  1  0  0  0  0
 17 19  2  0  0  0  0
 15 16  1  0  0  0  0
 15 17  1  0  0  0  0
 14 15  1  0  0  0  0
 14 20  2  0  0  0  0
 11 12  1  0  0  0  0
 11 13  1  0  0  0  0
 11 14  1  0  0  0  0
  9 10  1  0  0  0  0
  9 11  1  0  0  0  0
  9 22  1  0  0  0  0
  7  8  1  0  0  0  0
  7  9  1  0  0  0  0
 26 27  1  0  0  0  0
 26 28  1  0  0  0  0
 26 29  1  0  0  0  0
 24 25  1  0  0  0  0
 24 26  1  0  0  0  0
M  END
$$$$
default_name
  -OEChem-02102213163D

 29 29  0     1  0  0  0  0  0999 V2000
   -3.6042   -3.5728    1.4576 H   0  0  0  0  0  0  0  0  0  0  0  0
   -3.5202   -2.6488    0.8866 C   0  0  0  0  0  0  0  0  0  0  0  0
   -4.2052   -1.9048    1.2896 H   0  0  0  0  0  0  0  0  0  0  0  0
   -3.7552   -2.8428   -0.1584 H   0  0  0  0  0  0  0  0  0  0  0  0
   -2.1052   -2.1358    0.9946 C   0  0  0  0  0  0  0  0  0  0  0  0
   -1.2852   -2.7288    1.6826 O   0  0  0  0  0  0  0  0  0  0  0  0
   -1.8202   -1.0288    0.3146 N   0  0  0  0  0  0  0  0  0  0  0  0
   -2.5542   -0.5788   -0.2104 H   0  0  0  0  0  0  0  0  0  0  0  0
   -0.5102   -0.3728    0.3086 C   0  0  1  0  0  0  0  0  0  0  0  0
    0.0719   -0.7468    1.1521 H   0  0  0  0  0  0  0  0  0  0  0  0
    0.2338   -0.7427   -0.9878 C   0  0  0  0  0  0  0  0  0  0  0  0
    1.2598   -1.0233   -0.7433 H   0  0  0  0  0  0  0  0  0  0  0  0
   -0.2517   -1.6085   -1.4419 H   0  0  0  0  0  0  0  0  0  0  0  0
    0.2702    0.3712   -2.0018 C   0  0  0  0  0  0  0  0  0  0  0  0
    0.5985    0.2503   -3.3351 N   0  0  0  0  0  0  0  0  0  0  0  0
    0.9320   -0.5850   -3.7923 H   0  0  0  0  0  0  0  0  0  0  0  0
    0.4020    1.4433   -3.9212 C   0  0  0  0  0  0  0  0  0  0  0  0
    0.5795    1.6639   -4.9667 H   0  0  0  0  0  0  0  0  0  0  0  0
   -0.0526    2.3317   -3.0254 N   0  0  0  0  0  0  0  0  0  0  0  0
   -0.1364    1.6634   -1.8011 C   0  0  0  0  0  0  0  0  0  0  0  0
   -0.4936    2.0806   -0.8685 H   0  0  0  0  0  0  0  0  0  0  0  0
   -0.6600    1.1486    0.4782 C   0  0  0  0  0  0  0  0  0  0  0  0
   -1.5001    1.7648   -0.1771 O   0  0  0  0  0  0  0  0  0  0  0  0
    0.1634    1.7559    1.3418 N   0  0  0  0  0  0  0  0  0  0  0  0
    0.8618    1.1897    1.8008 H   0  0  0  0  0  0  0  0  0  0  0  0
    0.1509    3.1886    1.6256 C   0  0  0  0  0  0  0  0  0  0  0  0
   -0.8272    3.4794    2.0152 H   0  0  0  0  0  0  0  0  0  0  0  0
    0.9172    3.4314    2.3624 H   0  0  0  0  0  0  0  0  0  0  0  0
    0.3414    3.7499    0.7095 H   0  0  0  0  0  0  0  0  0  0  0  0
  5  6  2  0  0  0  0
  5  7  1  0  0  0  0
  2  3  1  0  0  0  0
  2  4  1  0  0  0  0
  2  5  1  0  0  0  0
  1  2  1  0  0  0  0
 22 23  2  0  0  0  0
 22 24  1  0  0  0  0
 20 21  1  0  0  0  0
 19 20  1  0  0  0  0
 17 18  1  0  0  0  0
 17 19  2  0  0  0  0
 15 16  1  0  0  0  0
 15 17  1  0  0  0  0
 14 15  1  0  0  0  0
 14 20  2  0  0  0  0
 11 12  1  0  0  0  0
 11 13  1  0  0  0  0
 11 14  1  0  0  0  0
  9 10  1  0  0  0  0
  9 11  1  0  0  0  0
  9 22  1  0  0  0  0
  7  8  1  0  0  0  0
  7  9  1  0  0  0  0
 26 27  1  0  0  0  0
 26 28  1  0  0  0  0
 26 29  1  0  0  0  0
 24 25  1  0  0  0  0
 24 26  1  0  0  0  0
M  END
$$$$
default_name
  -OEChem-02102213163D

 29 29  0     1  0  0  0  0  0999 V2000
   -3.6042   -3.5728    1.4576 H   0  0  0  0  0  0  0  0  0  0  0  0
   -3.5202   -2.6488    0.8866 C   0  0  0  0  0  0  0  0  0  0  0  0
   -4.2052   -1.9048    1.2896 H   0  0  0  0  0  0  0  0  0  0  0  0
   -3.7552   -2.8428   -0.1584 H   0  0  0  0  0  0  0  0  0  0  0  0
   -2.1052   -2.1358    0.9946 C   0  0  0  0  0  0  0  0  0  0  0  0
   -1.2852   -2.7288    1.6826 O   0  0  0  0  0  0  0  0  0  0  0  0
   -1.8202   -1.0288    0.3146 N   0  0  0  0  0  0  0  0  0  0  0  0
   -2.5542   -0.5788   -0.2104 H   0  0  0  0  0  0  0  0  0  0  0  0
   -0.5102   -0.3728    0.3086 C   0  0  1  0  0  0  0  0  0  0  0  0
    0.0719   -0.7468    1.1521 H   0  0  0  0  0  0  0  0  0  0  0  0
    0.2338   -0.7427   -0.9878 C   0  0  0  0  0  0  0  0  0  0  0  0
    1.2598   -1.0233   -0.7433 H   0  0  0  0  0  0  0  0  0  0  0  0
   -0.2517   -1.6085   -1.4419 H   0  0  0  0  0  0  0  0  0  0  0  0
    0.2702    0.3712   -2.0018 C   0  0  0  0  0  0  0  0  0  0  0  0
    0.3118    0.2262   -3.3719 N   0  0  0  0  0  0  0  0  0  0  0  0
    0.4007   -0.6436   -3.8757 H   0  0  0  0  0  0  0  0  0  0  0  0
    0.2186    1.4484   -3.9222 C   0  0  0  0  0  0  0  0  0  0  0  0
    0.2292    1.6591   -4.9846 H   0  0  0  0  0  0  0  0  0  0  0  0
    0.1058    2.3812   -2.9653 N   0  0  0  0  0  0  0  0  0  0  0  0
    0.1415    1.7093   -1.7406 C   0  0  0  0  0  0  0  0  0  0  0  0
    0.0474    2.1605   -0.7613 H   0  0  0  0  0  0  0  0  0  0  0  0
   -0.6600    1.1486    0.4782 C   0  0  0  0  0  0  0  0  0  0  0  0
   -1.5001    1.7648   -0.1771 O   0  0  0  0  0  0  0  0  0  0  0  0
    0.1634    1.7559    1.3418 N   0  0  0  0  0  0  0  0  0  0  0  0
    0.8618    1.1897    1.8008 H   0  0  0  0  0  0  0  0  0  0  0  0
    0.1509    3.1886    1.6256 C   0  0  0  0  0  0  0  0  0  0  0  0
   -0.8272    3.4794    2.0152 H   0  0  0  0  0  0  0  0  0  0  0  0
    0.9172    3.4314    2.3624 H   0  0  0  0  0  0  0  0  0  0  0  0
    0.3414    3.7499    0.7095 H   0  0  0  0  0  0  0  0  0  0  0  0
  5  6  2  0  0  0  0
  5  7  1  0  0  0  0
  2  3  1  0  0  0  0
  2  4  1  0  0  0  0
  2  5  1  0  0  0  0
  1  2  1  0  0  0  0
 22 23  2  0  0  0  0
 22 24  1  0  0  0  0
 20 21  1  0  0  0  0
 19 20  1  0  0  0  0
 17 18  1  0  0  0  0
 17 19  2  0  0  0  0
 15 16  1  0  0  0  0
 15 17  1  0  0  0  0
 14 15  1  0  0  0  0
 14 20  2  0  0  0  0
 11 12  1  0  0  0  0
 11 13  1  0  0  0  0
 11 14  1  0  0  0  0
  9 10  1  0  0  0  0
  9 11  1  0  0  0  0
  9 22  1  0  0  0  0
  7  8  1  0  0  0  0
  7  9  1  0  0  0  0
 26 27  1  0  0  0  0
 26 28  1  0  0  0  0
 26 29  1  0  0  0  0
 24 25  1  0  0  0  0
 24 26  1  0  0  0  0
M  END
$$$$
default_name
  -OEChem-02102213163D

 29 29  0     1  0  0  0  0  0999 V2000
   -3.6042   -3.5728    1.4576 H   0  0  0  0  0  0  0  0  0  0  0  0
   -3.5202   -2.6488    0.8866 C   0  0  0  0  0  0  0  0  0  0  0  0
   -4.2052   -1.9048    1.2896 H   0  0  0  0  0  0  0  0  0  0  0  0
   -3.7552   -2.8428   -0.1584 H   0  0  0  0  0  0  0  0  0  0  0  0
   -2.1052   -2.1358    0.9946 C   0  0  0  0  0  0  0  0  0  0  0  0
   -1.2852   -2.7288    1.6826 O   0  0  0  0  0  0  0  0  0  0  0  0
   -1.8202   -1.0288    0.3146 N   0  0  0  0  0  0  0  0  0  0  0  0
   -2.5542   -0.5788   -0.2104 H   0  0  0  0  0  0  0  0  0  0  0  0
   -0.5102   -0.3728    0.3086 C   0  0  1  0  0  0  0  0  0  0  0  0
    0.0719   -0.7468    1.1521 H   0  0  0  0  0  0  0  0  0  0  0  0
    0.2338   -0.7427   -0.9878 C   0  0  0  0  0  0  0  0  0  0  0  0
    1.2598   -1.0233   -0.7433 H   0  0  0  0  0  0  0  0  0  0  0  0
   -0.2517   -1.6085   -1.4419 H   0  0  0  0  0  0  0  0  0  0  0  0
    0.2702    0.3712   -2.0018 C   0  0  0  0  0  0  0  0  0  0  0  0
    0.0236    0.2530   -3.3528 N   0  0  0  0  0  0  0  0  0  0  0  0
   -0.1386   -0.6071   -3.8549 H   0  0  0  0  0  0  0  0  0  0  0  0
    0.0423    1.4853   -3.8880 C   0  0  0  0  0  0  0  0  0  0  0  0
   -0.1134    1.7156   -4.9349 H   0  0  0  0  0  0  0  0  0  0  0  0
    0.2788    2.4010   -2.9373 N   0  0  0  0  0  0  0  0  0  0  0  0
    0.4296    1.7049   -1.7351 C   0  0  0  0  0  0  0  0  0  0  0  0
    0.6043    2.1427   -0.7608 H   0  0  0  0  0  0  0  0  0  0  0  0
   -0.6600    1.1486    0.4782 C   0  0  0  0  0  0  0  0  0  0  0  0
   -1.5001    1.7648   -0.1771 O   0  0  0  0  0  0  0  0  0  0  0  0
    0.1634    1.7559    1.3418 N   0  0  0  0  0  0  0  0  0  0  0  0
    0.8618    1.1897    1.8008 H   0  0  0  0  0  0  0  0  0  0  0  0
    0.1509    3.1886    1.6256 C   0  0  0  0  0  0  0  0  0  0  0  0
   -0.8272    3.4794    2.0152 H   0  0  0  0  0  0  0  0  0  0  0  0
    0.9172    3.4314    2.3624 H   0  0  0  0  0  0  0  0  0  0  0  0
    0.3414    3.7499    0.7095 H   0  0  0  0  0  0  0  0  0  0  0  0
  5  6  2  0  0  0  0
  5  7  1  0  0  0  0
  2  3  1  0  0  0  0
  2  4  1  0  0  0  0
  2  5  1  0  0  0  0
  1  2  1  0  0  0  0
 22 23  2  0  0  0  0
 22 24  1  0  0  0  0
 20 21  1  0  0  0  0
 19 20  1  0  0  0  0
 17 18  1  0  0  0  0
 17 19  2  0  0  0  0
 15 16  1  0  0  0  0
 15 17  1  0  0  0  0
 14 15  1  0  0  0  0
 14 20  2  0  0  0  0
 11 12  1  0  0  0  0
 11 13  1  0  0  0  0
 11 14  1  0  0  0  0
  9 10  1  0  0  0  0
  9 11  1  0  0  0  0
  9 22  1  0  0  0  0
  7  8  1  0  0  0  0
  7  9  1  0  0  0  0
 26 27  1  0  0  0  0
 26 28  1  0  0  0  0
 26 29  1  0  0  0  0
 24 25  1  0  0  0  0
 24 26  1  0  0  0  0
M  END
$$$$
default_name
  -OEChem-02102213163D

 29 29  0     1  0  0  0  0  0999 V2000
   -3.6042   -3.5728    1.4576 H   0  0  0  0  0  0  0  0  0  0  0  0
   -3.5202   -2.6488    0.8866 C   0  0  0  0  0  0  0  0  0  0  0  0
   -4.2052   -1.9048    1.2896 H   0  0  0  0  0  0  0  0  0  0  0  0
   -3.7552   -2.8428   -0.1584 H   0  0  0  0  0  0  0  0  0  0  0  0
   -2.1052   -2.1358    0.9946 C   0  0  0  0  0  0  0  0  0  0  0  0
   -1.2852   -2.7288    1.6826 O   0  0  0  0  0  0  0  0  0  0  0  0
   -1.8202   -1.0288    0.3146 N   0  0  0  0  0  0  0  0  0  0  0  0
   -2.5542   -0.5788   -0.2104 H   0  0  0  0  0  0  0  0  0  0  0  0
   -0.5102   -0.3728    0.3086 C   0  0  1  0  0  0  0  0  0  0  0  0
    0.0719   -0.7468    1.1521 H   0  0  0  0  0  0  0  0  0  0  0  0
    0.2338   -0.7427   -0.9878 C   0  0  0  0  0  0  0  0  0  0  0  0
    1.2598   -1.0233   -0.7433 H   0  0  0  0  0  0  0  0  0  0  0  0
   -0.2517   -1.6085   -1.4419 H   0  0  0  0  0  0  0  0  0  0  0  0
    0.2702    0.3712   -2.0018 C   0  0  0  0  0  0  0  0  0  0  0  0
   -0.2464    0.3290   -3.2790 N   0  0  0  0  0  0  0  0  0  0  0  0
   -0.6492   -0.4780   -3.7314 H   0  0  0  0  0  0  0  0  0  0  0  0
   -0.1151    1.5514   -3.8210 C   0  0  0  0  0  0  0  0  0  0  0  0
   -0.4250    1.8294   -4.8210 H   0  0  0  0  0  0  0  0  0  0  0  0
    0.4548    2.3899   -2.9432 N   0  0  0  0  0  0  0  0  0  0  0  0
    0.7082    1.6505   -1.7849 C   0  0  0  0  0  0  0  0  0  0  0  0
    1.1393    2.0285   -0.8670 H   0  0  0  0  0  0  0  0  0  0  0  0
   -0.6600    1.1486    0.4782 C   0  0  0  0  0  0  0  0  0  0  0  0
   -1.5001    1.7648   -0.1771 O   0  0  0  0  0  0  0  0  0  0  0  0
    0.1634    1.7559    1.3418 N   0  0  0  0  0  0  0  0  0  0  0  0
    0.8618    1.1897    1.8008 H   0  0  0  0  0  0  0  0  0  0  0  0
    0.1509    3.1886    1.6256 C   0  0  0  0  0  0  0  0  0  0  0  0
   -0.8272    3.4794    2.0152 H   0  0  0  0  0  0  0  0  0  0  0  0
    0.9172    3.4314    2.3624 H   0  0  0  0  0  0  0  0  0  0  0  0
    0.3414    3.7499    0.7095 H   0  0  0  0  0  0  0  0  0  0  0  0
  5  6  2  0  0  0  0
  5  7  1  0  0  0  0
  2  3  1  0  0  0  0
  2  4  1  0  0  0  0
  2  5  1  0  0  0  0
  1  2  1  0  0  0  0
 22 23  2  0  0  0  0
 22 24  1  0  0  0  0
 20 21  1  0  0  0  0
 19 20  1  0  0  0  0
 17 18  1  0  0  0  0
 17 19  2  0  0  0  0
 15 16  1  0  0  0  0
 15 17  1  0  0  0  0
 14 15  1  0  0  0  0
 14 20  2  0  0  0  0
 11 12  1  0  0  0  0
 11 13  1  0  0  0  0
 11 14  1  0  0  0  0
  9 10  1  0  0  0  0
  9 11  1  0  0  0  0
  9 22  1  0  0  0  0
  7  8  1  0  0  0  0
  7  9  1  0  0  0  0
 26 27  1  0  0  0  0
 26 28  1  0  0  0  0
 26 29  1  0  0  0  0
 24 25  1  0  0  0  0
 24 26  1  0  0  0  0
M  END
$$$$
default_name
  -OEChem-02102213163D

 29 29  0     1  0  0  0  0  0999 V2000
   -3.6042   -3.5728    1.4576 H   0  0  0  0  0  0  0  0  0  0  0  0
   -3.5202   -2.6488    0.8866 C   0  0  0  0  0  0  0  0  0  0  0  0
   -4.2052   -1.9048    1.2896 H   0  0  0  0  0  0  0  0  0  0  0  0
   -3.7552   -2.8428   -0.1584 H   0  0  0  0  0  0  0  0  0  0  0  0
   -2.1052   -2.1358    0.9946 C   0  0  0  0  0  0  0  0  0  0  0  0
   -1.2852   -2.7288    1.6826 O   0  0  0  0  0  0  0  0  0  0  0  0
   -1.8202   -1.0288    0.3146 N   0  0  0  0  0  0  0  0  0  0  0  0
   -2.5542   -0.5788   -0.2104 H   0  0  0  0  0  0  0  0  0  0  0  0
   -0.5102   -0.3728    0.3086 C   0  0  1  0  0  0  0  0  0  0  0  0
    0.0719   -0.7468    1.1521 H   0  0  0  0  0  0  0  0  0  0  0  0
    0.2338   -0.7427   -0.9878 C   0  0  0  0  0  0  0  0  0  0  0  0
    1.2598   -1.0233   -0.7433 H   0  0  0  0  0  0  0  0  0  0  0  0
   -0.2517   -1.6085   -1.4419 H   0  0  0  0  0  0  0  0  0  0  0  0
    0.2702    0.3712   -2.0018 C   0  0  0  0  0  0  0  0  0  0  0  0
   -0.4799    0.4489   -3.1556 N   0  0  0  0  0  0  0  0  0  0  0  0
   -1.0963   -0.2651   -3.5137 H   0  0  0  0  0  0  0  0  0  0  0  0
   -0.2428    1.6423   -3.7257 C   0  0  0  0  0  0  0  0  0  0  0  0
   -0.6843    1.9930   -4.6506 H   0  0  0  0  0  0  0  0  0  0  0  0
    0.6217    2.3485   -2.9827 N   0  0  0  0  0  0  0  0  0  0  0  0
    0.9582    1.5497   -1.8867 C   0  0  0  0  0  0  0  0  0  0  0  0
    1.6159    1.8258   -1.0727 H   0  0  0  0  0  0  0  0  0  0  0  0
   -0.6600    1.1486    0.4782 C   0  0  0  0  0  0  0  0  0  0  0  0
   -1.5001    1.7648   -0.1771 O   0  0  0  0  0  0  0  0  0  0  0  0
    0.1634    1.7559    1.3418 N   0  0  0  0  0  0  0  0  0  0  0  0
    0.8618    1.1897    1.8008 H   0  0  0  0  0  0  0  0  0  0  0  0
    0.1509    3.1886    1.6256 C   0  0  0  0  0  0  0  0  0  0  0  0
   -0.8272    3.4794    2.0152 H   0  0  0  0  0  0  0  0  0  0  0  0
    0.9172    3.4314    2.3624 H   0  0  0  0  0  0  0  0  0  0  0  0
    0.3414    3.7499    0.7095 H   0  0  0  0  0  0  0  0  0  0  0  0
  5  6  2  0  0  0  0
  5  7  1  0  0  0  0
  2  3  1  0  0  0  0
  2  4  1  0  0  0  0
  2  5  1  0  0  0  0
  1  2  1  0  0  0  0
 22 23  2  0  0  0  0
 22 24  1  0  0  0  0
 20 21  1  0  0  0  0
 19 20  1  0  0  0  0
 17 18  1  0  0  0  0
 17 19  2  0  0  0  0
 15 16  1  0  0  0  0
 15 17  1  0  0  0  0
 14 15  1  0  0  0  0
 14 20  2  0  0  0  0
 11 12  1  0  0  0  0
 11 13  1  0  0  0  0
 11 14  1  0  0  0  0
  9 10  1  0  0  0  0
  9 11  1  0  0  0  0
  9 22  1  0  0  0  0
  7  8  1  0  0  0  0
  7  9  1  0  0  0  0
 26 27  1  0  0  0  0
 26 28  1  0  0  0  0
 26 29  1  0  0  0  0
 24 25  1  0  0  0  0
 24 26  1  0  0  0  0
M  END
$$$$
default_name
  -OEChem-02102213163D

 29 29  0     1  0  0  0  0  0999 V2000
   -3.6042   -3.5728    1.4576 H   0  0  0  0  0  0  0  0  0  0  0  0
   -3.5202   -2.6488    0.8866 C   0  0  0  0  0  0  0  0  0  0  0  0
   -4.2052   -1.9048    1.2896 H   0  0  0  0  0  0  0  0  0  0  0  0
   -3.7552   -2.8428   -0.1584 H   0  0  0  0  0  0  0  0  0  0  0  0
   -2.1052   -2.1358    0.9946 C   0  0  0  0  0  0  0  0  0  0  0  0
   -1.2852   -2.7288    1.6826 O   0  0  0  0  0  0  0  0  0  0  0  0
   -1.8202   -1.0288    0.3146 N   0  0  0  0  0  0  0  0  0  0  0  0
   -2.5542   -0.5788   -0.2104 H   0  0  0  0  0  0  0  0  0  0  0  0
   -0.5102   -0.3728    0.3086 C   0  0  1  0  0  0  0  0  0  0  0  0
    0.0719   -0.7468    1.1521 H   0  0  0  0  0  0  0  0  0  0  0  0
    0.2338   -0.7427   -0.9878 C   0  0  0  0  0  0  0  0  0  0  0  0
    1.2598   -1.0233   -0.7433 H   0  0  0  0  0  0  0  0  0  0  0  0
   -0.2517   -1.6085   -1.4419 H   0  0  0  0  0  0  0  0  0  0  0  0
    0.2702    0.3712   -2.0018 C   0  0  0  0  0  0  0  0  0  0  0  0
   -0.6609    0.6047   -2.9910 N   0  0  0  0  0  0  0  0  0  0  0  0
   -1.4495    0.0170   -3.2164 H   0  0  0  0  0  0  0  0  0  0  0  0
   -0.3321    1.7517   -3.6087 C   0  0  0  0  0  0  0  0  0  0  0  0
   -0.8737    2.1951   -4.4354 H   0  0  0  0  0  0  0  0  0  0  0  0
    0.7682    2.2797   -3.0530 N   0  0  0  0  0  0  0  0  0  0  0  0
    1.1627    1.4094   -2.0335 C   0  0  0  0  0  0  0  0  0  0  0  0
    2.0016    1.5482   -1.3638 H   0  0  0  0  0  0  0  0  0  0  0  0
   -0.6600    1.1486    0.4782 C   0  0  0  0  0  0  0  0  0  0  0  0
   -1.5001    1.7648   -0.1771 O   0  0  0  0  0  0  0  0  0  0  0  0
    0.1634    1.7559    1.3418 N   0  0  0  0  0  0  0  0  0  0  0  0
    0.8618    1.1897    1.8008 H   0  0  0  0  0  0  0  0  0  0  0  0
    0.1509    3.1886    1.6256 C   0  0  0  0  0  0  0  0  0  0  0  0
   -0.8272    3.4794    2.0152 H   0  0  0  0  0  0  0  0  0  0  0  0
    0.9172    3.4314    2.3624 H   0  0  0  0  0  0  0  0  0  0  0  0
    0.3414    3.7499    0.7095 H   0  0  0  0  0  0  0  0  0  0  0  0
  5  6  2  0  0  0  0
  5  7  1  0  0  0  0
  2  3  1  0  0  0  0
  2  4  1  0  0  0  0
  2  5  1  0  0  0  0
  1  2  1  0  0  0  0
 22 23  2  0  0  0  0
 22 24  1  0  0  0  0
 20 21  1  0  0  0  0
 19 20  1  0  0  0  0
 17 18  1  0  0  0  0
 17 19  2  0  0  0  0
 15 16  1  0  0  0  0
 15 17  1  0  0  0  0
 14 15  1  0  0  0  0
 14 20  2  0  0  0  0
 11 12  1  0  0  0  0
 11 13  1  0  0  0  0
 11 14  1  0  0  0  0
  9 10  1  0  0  0  0
  9 11  1  0  0  0  0
  9 22  1  0  0  0  0
  7  8  1  0  0  0  0
  7  9  1  0  0  0  0
 26 27  1  0  0  0  0
 26 28  1  0  0  0  0
 26 29  1  0  0  0  0
 24 25  1  0  0  0  0
 24 26  1  0  0  0  0
M  END
$$$$
default_name
  -OEChem-02102213163D

 29 29  0     1  0  0  0  0  0999 V2000
   -3.6042   -3.5728    1.4576 H   0  0  0  0  0  0  0  0  0  0  0  0
   -3.5202   -2.6488    0.8866 C   0  0  0  0  0  0  0  0  0  0  0  0
   -4.2052   -1.9048    1.2896 H   0  0  0  0  0  0  0  0  0  0  0  0
   -3.7552   -2.8428   -0.1584 H   0  0  0  0  0  0  0  0  0  0  0  0
   -2.1052   -2.1358    0.9946 C   0  0  0  0  0  0  0  0  0  0  0  0
   -1.2852   -2.7288    1.6826 O   0  0  0  0  0  0  0  0  0  0  0  0
   -1.8202   -1.0288    0.3146 N   0  0  0  0  0  0  0  0  0  0  0  0
   -2.5542   -0.5788   -0.2104 H   0  0  0  0  0  0  0  0  0  0  0  0
   -0.5102   -0.3728    0.3086 C   0  0  1  0  0  0  0  0  0  0  0  0
    0.0719   -0.7468    1.1521 H   0  0  0  0  0  0  0  0  0  0  0  0
    0.2338   -0.7427   -0.9878 C   0  0  0  0  0  0  0  0  0  0  0  0
    1.2598   -1.0233   -0.7433 H   0  0  0  0  0  0  0  0  0  0  0  0
   -0.2517   -1.6085   -1.4419 H   0  0  0  0  0  0  0  0  0  0  0  0
    0.2702    0.3712   -2.0018 C   0  0  0  0  0  0  0  0  0  0  0  0
   -0.7771    0.7857   -2.7963 N   0  0  0  0  0  0  0  0  0  0  0  0
   -1.6846    0.3491   -2.8600 H   0  0  0  0  0  0  0  0  0  0  0  0
   -0.3769    1.8722   -3.4780 C   0  0  0  0  0  0  0  0  0  0  0  0
   -0.9803    2.4219   -4.1900 H   0  0  0  0  0  0  0  0  0  0  0  0
    0.8842    2.1882   -3.1493 N   0  0  0  0  0  0  0  0  0  0  0  0
    1.3077    1.2392   -2.2153 C   0  0  0  0  0  0  0  0  0  0  0  0
    2.2700    1.2147   -1.7205 H   0  0  0  0  0  0  0  0  0  0  0  0
   -0.6600    1.1486    0.4782 C   0  0  0  0  0  0  0  0  0  0  0  0
   -1.5001    1.7648   -0.1771 O   0  0  0  0  0  0  0  0  0  0  0  0
    0.1634    1.7559    1.3418 N   0  0  0  0  0  0  0  0  0  0  0  0
    0.8618    1.1897    1.8008 H   0  0  0  0  0  0  0  0  0  0  0  0
    0.1509    3.1886    1.6256 C   0  0  0  0  0  0  0  0  0  0  0  0
   -0.8272    3.4794    2.0152 H   0  0  0  0  0  0  0  0  0  0  0  0
    0.9172    3.4314    2.3624 H   0  0  0  0  0  0  0  0  0  0  0  0
    0.3414    3.7499    0.7095 H   0  0  0  0  0  0  0  0  0  0  0  0
  5  6  2  0  0  0  0
  5  7  1  0  0  0  0
  2  3  1  0  0  0  0
  2  4  1  0  0  0  0
  2  5  1  0  0  0  0
  1  2  1  0  0  0  0
 22 23  2  0  0  0  0
 22 24  1  0  0  0  0
 20 21  1  0  0  0  0
 19 20  1  0  0  0  0
 17 18  1  0  0  0  0
 17 19  2  0  0  0  0
 15 16  1  0  0  0  0
 15 17  1  0  0  0  0
 14 15  1  0  0  0  0
 14 20  2  0  0  0  0
 11 12  1  0  0  0  0
 11 13  1  0  0  0  0
 11 14  1  0  0  0  0
  9 10  1  0  0  0  0
  9 11  1  0  0  0  0
  9 22  1  0  0  0  0
  7  8  1  0  0  0  0
  7  9  1  0  0  0  0
 26 27  1  0  0  0  0
 26 28  1  0  0  0  0
 26 29  1  0  0  0  0
 24 25  1  0  0  0  0
 24 26  1  0  0  0  0
M  END
$$$$
default_name
  -OEChem-02102213163D

 29 29  0     1  0  0  0  0  0999 V2000
   -3.6042   -3.5728    1.4576 H   0  0  0  0  0  0  0  0  0  0  0  0
   -3.5202   -2.6488    0.8866 C   0  0  0  0  0  0  0  0  0  0  0  0
   -4.2052   -1.9048    1.2896 H   0  0  0  0  0  0  0  0  0  0  0  0
   -3.7552   -2.8428   -0.1584 H   0  0  0  0  0  0  0  0  0  0  0  0
   -2.1052   -2.1358    0.9946 C   0  0  0  0  0  0  0  0  0  0  0  0
   -1.2852   -2.7288    1.6826 O   0  0  0  0  0  0  0  0  0  0  0  0
   -1.8202   -1.0288    0.3146 N   0  0  0  0  0  0  0  0  0  0  0  0
   -2.5542   -0.5788   -0.2104 H   0  0  0  0  0  0  0  0  0  0  0  0
   -0.5102   -0.3728    0.3086 C   0  0  1  0  0  0  0  0  0  0  0  0
    0.0719   -0.7468    1.1521 H   0  0  0  0  0  0  0  0  0  0  0  0
    0.2338   -0.7427   -0.9878 C   0  0  0  0  0  0  0  0  0  0  0  0
    1.2598   -1.0233   -0.7433 H   0  0  0  0  0  0  0  0  0  0  0  0
   -0.2517   -1.6085   -1.4419 H   0  0  0  0  0  0  0  0  0  0  0  0
    0.2702    0.3712   -2.0018 C   0  0  0  0  0  0  0  0  0  0  0  0
   -0.8206    0.9795   -2.5850 N   0  0  0  0  0  0  0  0  0  0  0  0
   -1.7856    0.7086   -2.4686 H   0  0  0  0  0  0  0  0  0  0  0  0
   -0.3742    1.9956   -3.3423 C   0  0  0  0  0  0  0  0  0  0  0  0
   -0.9968    2.6581   -3.9311 H   0  0  0  0  0  0  0  0  0  0  0  0
    0.9619    2.0802   -3.2652 N   0  0  0  0  0  0  0  0  0  0  0  0
    1.3834    1.0507   -2.4197 C   0  0  0  0  0  0  0  0  0  0  0  0
    2.4030    0.8480   -2.1186 H   0  0  0  0  0  0  0  0  0  0  0  0
   -0.6600    1.1486    0.4782 C   0  0  0  0  0  0  0  0  0  0  0  0
   -1.5001    1.7648   -0.1771 O   0  0  0  0  0  0  0  0  0  0  0  0
    0.1634    1.7559    1.3418 N   0  0  0  0  0  0  0  0  0  0  0  0
    0.8618    1.1897    1.8008 H   0  0  0  0  0  0  0  0  0  0  0  0
    0.1509    3.1886    1.6256 C   0  0  0  0  0  0  0  0  0  0  0  0
   -0.8272    3.4794    2.0152 H   0  0  0  0  0  0  0  0  0  0  0  0
    0.9172    3.4314    2.3624 H   0  0  0  0  0  0  0  0  0  0  0  0
    0.3414    3.7499    0.7095 H   0  0  0  0  0  0  0  0  0  0  0  0
  5  6  2  0  0  0  0
  5  7  1  0  0  0  0
  2  3  1  0  0  0  0
  2  4  1  0  0  0  0
  2  5  1  0  0  0  0
  1  2  1  0  0  0  0
 22 23  2  0  0  0  0
 22 24  1  0  0  0  0
 20 21  1  0  0  0  0
 19 20  1  0  0  0  0
 17 18  1  0  0  0  0
 17 19  2  0  0  0  0
 15 16  1  0  0  0  0
 15 17  1  0  0  0  0
 14 15  1  0  0  0  0
 14 20  2  0  0  0  0
 11 12  1  0  0  0  0
 11 13  1  0  0  0  0
 11 14  1  0  0  0  0
  9 10  1  0  0  0  0
  9 11  1  0  0  0  0
  9 22  1  0  0  0  0
  7  8  1  0  0  0  0
  7  9  1  0  0  0  0
 26 27  1  0  0  0  0
 26 28  1  0  0  0  0
 26 29  1  0  0  0  0
 24 25  1  0  0  0  0
 24 26  1  0  0  0  0
M  END
$$$$
default_name
  -OEChem-02102213163D

 29 29  0     1  0  0  0  0  0999 V2000
   -3.6042   -3.5728    1.4576 H   0  0  0  0  0  0  0  0  0  0  0  0
   -3.5202   -2.6488    0.8866 C   0  0  0  0  0  0  0  0  0  0  0  0
   -4.2052   -1.9048    1.2896 H   0  0  0  0  0  0  0  0  0  0  0  0
   -3.7552   -2.8428   -0.1584 H   0  0  0  0  0  0  0  0  0  0  0  0
   -2.1052   -2.1358    0.9946 C   0  0  0  0  0  0  0  0  0  0  0  0
   -1.2852   -2.7288    1.6826 O   0  0  0  0  0  0  0  0  0  0  0  0
   -1.8202   -1.0288    0.3146 N   0  0  0  0  0  0  0  0  0  0  0  0
   -2.5542   -0.5788   -0.2104 H   0  0  0  0  0  0  0  0  0  0  0  0
   -0.5102   -0.3728    0.3086 C   0  0  1  0  0  0  0  0  0  0  0  0
    0.0719   -0.7468    1.1521 H   0  0  0  0  0  0  0  0  0  0  0  0
    0.2338   -0.7427   -0.9878 C   0  0  0  0  0  0  0  0  0  0  0  0
    1.2598   -1.0233   -0.7433 H   0  0  0  0  0  0  0  0  0  0  0  0
   -0.2517   -1.6085   -1.4419 H   0  0  0  0  0  0  0  0  0  0  0  0
    0.2702    0.3712   -2.0018 C   0  0  0  0  0  0  0  0  0  0  0  0
   -0.7884    1.1729   -2.3713 N   0  0  0  0  0  0  0  0  0  0  0  0
   -1.7457    1.0711   -2.0690 H   0  0  0  0  0  0  0  0  0  0  0  0
   -0.3241    2.1135   -3.2110 C   0  0  0  0  0  0  0  0  0  0  0  0
   -0.9221    2.8874   -3.6765 H   0  0  0  0  0  0  0  0  0  0  0  0
    0.9960    1.9631   -3.3927 N   0  0  0  0  0  0  0  0  0  0  0  0
    1.3845    0.8567   -2.6327 C   0  0  0  0  0  0  0  0  0  0  0  0
    2.3914    0.4732   -2.5308 H   0  0  0  0  0  0  0  0  0  0  0  0
   -0.6600    1.1486    0.4782 C   0  0  0  0  0  0  0  0  0  0  0  0
   -1.5001    1.7648   -0.1771 O   0  0  0  0  0  0  0  0  0  0  0  0
    0.1634    1.7559    1.3418 N   0  0  0  0  0  0  0  0  0  0  0  0
    0.8618    1.1897    1.8008 H   0  0  0  0  0  0  0  0  0  0  0  0
    0.1509    3.1886    1.6256 C   0  0  0  0  0  0  0  0  0  0  0  0
   -0.8272    3.4794    2.0152 H   0  0  0  0  0  0  0  0  0  0  0  0
    0.9172    3.4314    2.3624 H   0  0  0  0  0  0  0  0  0  0  0  0
    0.3414    3.7499    0.7095 H   0  0  0  0  0  0  0  0  0  0  0  0
  5  6  2  0  0  0  0
  5  7  1  0  0  0  0
  2  3  1  0  0  0  0
  2  4  1  0  0  0  0
  2  5  1  0  0  0  0
  1  2  1  0  0  0  0
 22 23  2  0  0  0  0
 22 24  1  0  0  0  0
 20 21  1  0  0  0  0
 19 20  1  0  0  0  0
 17 18  1  0  0  0  0
 17 19  2  0  0  0  0
 15 16  1  0  0  0  0
 15 17  1  0  0  0  0
 14 15  1  0  0  0  0
 14 20  2  0  0  0  0
 11 12  1  0  0  0  0
 11 13  1  0  0  0  0
 11 14  1  0  0  0  0
  9 10  1  0  0  0  0
  9 11  1  0  0  0  0
  9 22  1  0  0  0  0
  7  8  1  0  0  0  0
  7  9  1  0  0  0  0
 26 27  1  0  0  0  0
 26 28  1  0  0  0  0
 26 29  1  0  0  0  0
 24 25  1  0  0  0  0
 24 26  1  0  0  0  0
M  END
$$$$
default_name
  -OEChem-02102213163D

 29 29  0     1  0  0  0  0  0999 V2000
   -3.6042   -3.5728    1.4576 H   0  0  0  0  0  0  0  0  0  0  0  0
   -3.5202   -2.6488    0.8866 C   0  0  0  0  0  0  0  0  0  0  0  0
   -4.2052   -1.9048    1.2896 H   0  0  0  0  0  0  0  0  0  0  0  0
   -3.7552   -2.8428   -0.1584 H   0  0  0  0  0  0  0  0  0  0  0  0
   -2.1052   -2.1358    0.9946 C   0  0  0  0  0  0  0  0  0  0  0  0
   -1.2852   -2.7288    1.6826 O   0  0  0  0  0  0  0  0  0  0  0  0
   -1.8202   -1.0288    0.3146 N   0  0  0  0  0  0  0  0  0  0  0  0
   -2.5542   -0.5788   -0.2104 H   0  0  0  0  0  0  0  0  0  0  0  0
   -0.5102   -0.3728    0.3086 C   0  0  1  0  0  0  0  0  0  0  0  0
    0.0719   -0.7468    1.1521 H   0  0  0  0  0  0  0  0  0  0  0  0
    0.2338   -0.7427   -0.9878 C   0  0  0  0  0  0  0  0  0  0  0  0
    1.2598   -1.0233   -0.7433 H   0  0  0  0  0  0  0  0  0  0  0  0
   -0.2517   -1.6085   -1.4419 H   0  0  0  0  0  0  0  0  0  0  0  0
    0.2702    0.3712   -2.0018 C   0  0  0  0  0  0  0  0  0  0  0  0
   -0.6827    1.3529   -2.1698 N   0  0  0  0  0  0  0  0  0  0  0  0
   -1.5676    1.4117   -1.6884 H   0  0  0  0  0  0  0  0  0  0  0  0
   -0.2301    2.2178   -3.0931 C   0  0  0  0  0  0  0  0  0  0  0  0
   -0.7612    3.0944   -3.4434 H   0  0  0  0  0  0  0  0  0  0  0  0
    0.9841    1.8448   -3.5230 N   0  0  0  0  0  0  0  0  0  0  0  0
    1.3110    0.6704   -2.8400 C   0  0  0  0  0  0  0  0  0  0  0  0
    2.2361    0.1158   -2.9290 H   0  0  0  0  0  0  0  0  0  0  0  0
   -0.6600    1.1486    0.4782 C   0  0  0  0  0  0  0  0  0  0  0  0
   -1.5001    1.7648   -0.1771 O   0  0  0  0  0  0  0  0  0  0  0  0
    0.1634    1.7559    1.3418 N   0  0  0  0  0  0  0  0  0  0  0  0
    0.8618    1.1897    1.8008 H   0  0  0  0  0  0  0  0  0  0  0  0
    0.1509    3.1886    1.6256 C   0  0  0  0  0  0  0  0  0  0  0  0
   -0.8272    3.4794    2.0152 H   0  0  0  0  0  0  0  0  0  0  0  0
    0.9172    3.4314    2.3624 H   0  0  0  0  0  0  0  0  0  0  0  0
    0.3414    3.7499    0.7095 H   0  0  0  0  0  0  0  0  0  0  0  0
  5  6  2  0  0  0  0
  5  7  1  0  0  0  0
  2  3  1  0  0  0  0
  2  4  1  0  0  0  0
  2  5  1  0  0  0  0
  1  2  1  0  0  0  0
 22 23  2  0  0  0  0
 22 24  1  0  0  0  0
 20 21  1  0  0  0  0
 19 20  1  0  0  0  0
 17 18  1  0  0  0  0
 17 19  2  0  0  0  0
 15 16  1  0  0  0  0
 15 17  1  0  0  0  0
 14 15  1  0  0  0  0
 14 20  2  0  0  0  0
 11 12  1  0  0  0  0
 11 13  1  0  0  0  0
 11 14  1  0  0  0  0
  9 10  1  0  0  0  0
  9 11  1  0  0  0  0
  9 22  1  0  0  0  0
  7  8  1  0  0  0  0
  7  9  1  0  0  0  0
 26 27  1  0  0  0  0
 26 28  1  0  0  0  0
 26 29  1  0  0  0  0
 24 25  1  0  0  0  0
 24 26  1  0  0  0  0
M  END
$$$$
default_name
  -OEChem-02102213163D

 29 29  0     1  0  0  0  0  0999 V2000
   -3.6042   -3.5728    1.4576 H   0  0  0  0  0  0  0  0  0  0  0  0
   -3.5202   -2.6488    0.8866 C   0  0  0  0  0  0  0  0  0  0  0  0
   -4.2052   -1.9048    1.2896 H   0  0  0  0  0  0  0  0  0  0  0  0
   -3.7552   -2.8428   -0.1584 H   0  0  0  0  0  0  0  0  0  0  0  0
   -2.1052   -2.1358    0.9946 C   0  0  0  0  0  0  0  0  0  0  0  0
   -1.2852   -2.7288    1.6826 O   0  0  0  0  0  0  0  0  0  0  0  0
   -1.8202   -1.0288    0.3146 N   0  0  0  0  0  0  0  0  0  0  0  0
   -2.5542   -0.5788   -0.2104 H   0  0  0  0  0  0  0  0  0  0  0  0
   -0.5102   -0.3728    0.3086 C   0  0  1  0  0  0  0  0  0  0  0  0
    0.0719   -0.7468    1.1521 H   0  0  0  0  0  0  0  0  0  0  0  0
    0.2338   -0.7427   -0.9878 C   0  0  0  0  0  0  0  0  0  0  0  0
    1.2598   -1.0233   -0.7433 H   0  0  0  0  0  0  0  0  0  0  0  0
   -0.2517   -1.6085   -1.4419 H   0  0  0  0  0  0  0  0  0  0  0  0
    0.2702    0.3712   -2.0018 C   0  0  0  0  0  0  0  0  0  0  0  0
   -0.5108    1.5070   -1.9943 N   0  0  0  0  0  0  0  0  0  0  0  0
   -1.2633    1.7073   -1.3527 H   0  0  0  0  0  0  0  0  0  0  0  0
   -0.0985    2.3014   -2.9965 C   0  0  0  0  0  0  0  0  0  0  0  0
   -0.5252    3.2648   -3.2477 H   0  0  0  0  0  0  0  0  0  0  0  0
    0.9271    1.7334   -3.6474 N   0  0  0  0  0  0  0  0  0  0  0  0
    1.1679    0.5046   -3.0273 C   0  0  0  0  0  0  0  0  0  0  0  0
    1.9476   -0.2000   -3.2863 H   0  0  0  0  0  0  0  0  0  0  0  0
   -0.6600    1.1486    0.4782 C   0  0  0  0  0  0  0  0  0  0  0  0
   -1.5001    1.7648   -0.1771 O   0  0  0  0  0  0  0  0  0  0  0  0
    0.1634    1.7559    1.3418 N   0  0  0  0  0  0  0  0  0  0  0  0
    0.8618    1.1897    1.8008 H   0  0  0  0  0  0  0  0  0  0  0  0
    0.1509    3.1886    1.6256 C   0  0  0  0  0  0  0  0  0  0  0  0
   -0.8272    3.4794    2.0152 H   0  0  0  0  0  0  0  0  0  0  0  0
    0.9172    3.4314    2.3624 H   0  0  0  0  0  0  0  0  0  0  0  0
    0.3414    3.7499    0.7095 H   0  0  0  0  0  0  0  0  0  0  0  0
  5  6  2  0  0  0  0
  5  7  1  0  0  0  0
  2  3  1  0  0  0  0
  2  4  1  0  0  0  0
  2  5  1  0  0  0  0
  1  2  1  0  0  0  0
 22 23  2  0  0  0  0
 22 24  1  0  0  0  0
 20 21  1  0  0  0  0
 19 20  1  0  0  0  0
 17 18  1  0  0  0  0
 17 19  2  0  0  0  0
 15 16  1  0  0  0  0
 15 17  1  0  0  0  0
 14 15  1  0  0  0  0
 14 20  2  0  0  0  0
 11 12  1  0  0  0  0
 11 13  1  0  0  0  0
 11 14  1  0  0  0  0
  9 10  1  0  0  0  0
  9 11  1  0  0  0  0
  9 22  1  0  0  0  0
  7  8  1  0  0  0  0
  7  9  1  0  0  0  0
 26 27  1  0  0  0  0
 26 28  1  0  0  0  0
 26 29  1  0  0  0  0
 24 25  1  0  0  0  0
 24 26  1  0  0  0  0
M  END
$$$$
default_name
  -OEChem-02102213163D

 29 29  0     1  0  0  0  0  0999 V2000
   -3.6042   -3.5728    1.4576 H   0  0  0  0  0  0  0  0  0  0  0  0
   -3.5202   -2.6488    0.8866 C   0  0  0  0  0  0  0  0  0  0  0  0
   -4.2052   -1.9048    1.2896 H   0  0  0  0  0  0  0  0  0  0  0  0
   -3.7552   -2.8428   -0.1584 H   0  0  0  0  0  0  0  0  0  0  0  0
   -2.1052   -2.1358    0.9946 C   0  0  0  0  0  0  0  0  0  0  0  0
   -1.2852   -2.7288    1.6826 O   0  0  0  0  0  0  0  0  0  0  0  0
   -1.8202   -1.0288    0.3146 N   0  0  0  0  0  0  0  0  0  0  0  0
   -2.5542   -0.5788   -0.2104 H   0  0  0  0  0  0  0  0  0  0  0  0
   -0.5102   -0.3728    0.3086 C   0  0  1  0  0  0  0  0  0  0  0  0
    0.0719   -0.7468    1.1521 H   0  0  0  0  0  0  0  0  0  0  0  0
    0.2338   -0.7427   -0.9878 C   0  0  0  0  0  0  0  0  0  0  0  0
    1.2598   -1.0233   -0.7433 H   0  0  0  0  0  0  0  0  0  0  0  0
   -0.2517   -1.6085   -1.4419 H   0  0  0  0  0  0  0  0  0  0  0  0
    0.2702    0.3712   -2.0018 C   0  0  0  0  0  0  0  0  0  0  0  0
   -0.2843    1.6248   -1.8567 N   0  0  0  0  0  0  0  0  0  0  0  0
   -0.8537    1.9378   -1.0848 H   0  0  0  0  0  0  0  0  0  0  0  0
    0.0616    2.3587   -2.9278 C   0  0  0  0  0  0  0  0  0  0  0  0
   -0.2301    3.3870   -3.1027 H   0  0  0  0  0  0  0  0  0  0  0  0
    0.8289    1.6366   -3.7574 N   0  0  0  0  0  0  0  0  0  0  0  0
    0.9650    0.3706   -3.1819 C   0  0  0  0  0  0  0  0  0  0  0  0
    1.5456   -0.4524   -3.5781 H   0  0  0  0  0  0  0  0  0  0  0  0
   -0.6600    1.1486    0.4782 C   0  0  0  0  0  0  0  0  0  0  0  0
   -1.5001    1.7648   -0.1771 O   0  0  0  0  0  0  0  0  0  0  0  0
    0.1634    1.7559    1.3418 N   0  0  0  0  0  0  0  0  0  0  0  0
    0.8618    1.1897    1.8008 H   0  0  0  0  0  0  0  0  0  0  0  0
    0.1509    3.1886    1.6256 C   0  0  0  0  0  0  0  0  0  0  0  0
   -0.8272    3.4794    2.0152 H   0  0  0  0  0  0  0  0  0  0  0  0
    0.9172    3.4314    2.3624 H   0  0  0  0  0  0  0  0  0  0  0  0
    0.3414    3.7499    0.7095 H   0  0  0  0  0  0  0  0  0  0  0  0
  5  6  2  0  0  0  0
  5  7  1  0  0  0  0
  2  3  1  0  0  0  0
  2  4  1  0  0  0  0
  2  5  1  0  0  0  0
  1  2  1  0  0  0  0
 22 23  2  0  0  0  0
 22 24  1  0  0  0  0
 20 21  1  0  0  0  0
 19 20  1  0  0  0  0
 17 18  1  0  0  0  0
 17 19  2  0  0  0  0
 15 16  1  0  0  0  0
 15 17  1  0  0  0  0
 14 15  1  0  0  0  0
 14 20  2  0  0  0  0
 11 12  1  0  0  0  0
 11 13  1  0  0  0  0
 11 14  1  0  0  0  0
  9 10  1  0  0  0  0
  9 11  1  0  0  0  0
  9 22  1  0  0  0  0
  7  8  1  0  0  0  0
  7  9  1  0  0  0  0
 26 27  1  0  0  0  0
 26 28  1  0  0  0  0
 26 29  1  0  0  0  0
 24 25  1  0  0  0  0
 24 26  1  0  0  0  0
M  END
$$$$
default_name
  -OEChem-02102213163D

 29 29  0     1  0  0  0  0  0999 V2000
   -3.6042   -3.5728    1.4576 H   0  0  0  0  0  0  0  0  0  0  0  0
   -3.5202   -2.6488    0.8866 C   0  0  0  0  0  0  0  0  0  0  0  0
   -4.2052   -1.9048    1.2896 H   0  0  0  0  0  0  0  0  0  0  0  0
   -3.7552   -2.8428   -0.1584 H   0  0  0  0  0  0  0  0  0  0  0  0
   -2.1052   -2.1358    0.9946 C   0  0  0  0  0  0  0  0  0  0  0  0
   -1.2852   -2.7288    1.6826 O   0  0  0  0  0  0  0  0  0  0  0  0
   -1.8202   -1.0288    0.3146 N   0  0  0  0  0  0  0  0  0  0  0  0
   -2.5542   -0.5788   -0.2104 H   0  0  0  0  0  0  0  0  0  0  0  0
   -0.5102   -0.3728    0.3086 C   0  0  1  0  0  0  0  0  0  0  0  0
    0.0719   -0.7468    1.1521 H   0  0  0  0  0  0  0  0  0  0  0  0
    0.2338   -0.7427   -0.9878 C   0  0  0  0  0  0  0  0  0  0  0  0
    1.2598   -1.0233   -0.7433 H   0  0  0  0  0  0  0  0  0  0  0  0
   -0.2517   -1.6085   -1.4419 H   0  0  0  0  0  0  0  0  0  0  0  0
    0.2702    0.3712   -2.0018 C   0  0  0  0  0  0  0  0  0  0  0  0
   -0.0186    1.6983   -1.7664 N   0  0  0  0  0  0  0  0  0  0  0  0
   -0.3667    2.0874   -0.9029 H   0  0  0  0  0  0  0  0  0  0  0  0
    0.2394    2.3857   -2.8918 C   0  0  0  0  0  0  0  0  0  0  0  0
    0.1040    3.4528   -3.0185 H   0  0  0  0  0  0  0  0  0  0  0  0
    0.6960    1.5608   -3.8454 N   0  0  0  0  0  0  0  0  0  0  0  0
    0.7161    0.2774   -3.2932 C   0  0  0  0  0  0  0  0  0  0  0  0
    1.0574   -0.6245   -3.7847 H   0  0  0  0  0  0  0  0  0  0  0  0
   -0.6600    1.1486    0.4782 C   0  0  0  0  0  0  0  0  0  0  0  0
   -1.5001    1.7648   -0.1771 O   0  0  0  0  0  0  0  0  0  0  0  0
    0.1634    1.7559    1.3418 N   0  0  0  0  0  0  0  0  0  0  0  0
    0.8618    1.1897    1.8008 H   0  0  0  0  0  0  0  0  0  0  0  0
    0.1509    3.1886    1.6256 C   0  0  0  0  0  0  0  0  0  0  0  0
   -0.8272    3.4794    2.0152 H   0  0  0  0  0  0  0  0  0  0  0  0
    0.9172    3.4314    2.3624 H   0  0  0  0  0  0  0  0  0  0  0  0
    0.3414    3.7499    0.7095 H   0  0  0  0  0  0  0  0  0  0  0  0
  5  6  2  0  0  0  0
  5  7  1  0  0  0  0
  2  3  1  0  0  0  0
  2  4  1  0  0  0  0
  2  5  1  0  0  0  0
  1  2  1  0  0  0  0
 22 23  2  0  0  0  0
 22 24  1  0  0  0  0
 20 21  1  0  0  0  0
 19 20  1  0  0  0  0
 17 18  1  0  0  0  0
 17 19  2  0  0  0  0
 15 16  1  0  0  0  0
 15 17  1  0  0  0  0
 14 15  1  0  0  0  0
 14 20  2  0  0  0  0
 11 12  1  0  0  0  0
 11 13  1  0  0  0  0
 11 14  1  0  0  0  0
  9 10  1  0  0  0  0
  9 11  1  0  0  0  0
  9 22  1  0  0  0  0
  7  8  1  0  0  0  0
  7  9  1  0  0  0  0
 26 27  1  0  0  0  0
 26 28  1  0  0  0  0
 26 29  1  0  0  0  0
 24 25  1  0  0  0  0
 24 26  1  0  0  0  0
M  END
$$$$
default_name
  -OEChem-02102213163D

 29 29  0     1  0  0  0  0  0999 V2000
   -3.6042   -3.5728    1.4576 H   0  0  0  0  0  0  0  0  0  0  0  0
   -3.5202   -2.6488    0.8866 C   0  0  0  0  0  0  0  0  0  0  0  0
   -4.2052   -1.9048    1.2896 H   0  0  0  0  0  0  0  0  0  0  0  0
   -3.7552   -2.8428   -0.1584 H   0  0  0  0  0  0  0  0  0  0  0  0
   -2.1052   -2.1358    0.9946 C   0  0  0  0  0  0  0  0  0  0  0  0
   -1.2852   -2.7288    1.6826 O   0  0  0  0  0  0  0  0  0  0  0  0
   -1.8202   -1.0288    0.3146 N   0  0  0  0  0  0  0  0  0  0  0  0
   -2.5542   -0.5788   -0.2104 H   0  0  0  0  0  0  0  0  0  0  0  0
   -0.5102   -0.3728    0.3086 C   0  0  1  0  0  0  0  0  0  0  0  0
    0.0719   -0.7468    1.1521 H   0  0  0  0  0  0  0  0  0  0  0  0
    0.2338   -0.7427   -0.9878 C   0  0  0  0  0  0  0  0  0  0  0  0
    1.2598   -1.0233   -0.7433 H   0  0  0  0  0  0  0  0  0  0  0  0
   -0.2517   -1.6085   -1.4419 H   0  0  0  0  0  0  0  0  0  0  0  0
    0.2702    0.3712   -2.0018 C   0  0  0  0  0  0  0  0  0  0  0  0
    0.2681    1.7225   -1.7296 N   0  0  0  0  0  0  0  0  0  0  0  0
    0.1646    2.1459   -0.8195 H   0  0  0  0  0  0  0  0  0  0  0  0
    0.4227    2.3805   -2.8908 C   0  0  0  0  0  0  0  0  0  0  0  0
    0.4543    3.4577   -3.0006 H   0  0  0  0  0  0  0  0  0  0  0  0
    0.5377    1.5113   -3.9055 N   0  0  0  0  0  0  0  0  0  0  0  0
    0.4381    0.2314   -3.3537 C   0  0  0  0  0  0  0  0  0  0  0  0
    0.5164   -0.7043   -3.8918 H   0  0  0  0  0  0  0  0  0  0  0  0
   -0.6600    1.1486    0.4782 C   0  0  0  0  0  0  0  0  0  0  0  0
   -1.5001    1.7648   -0.1771 O   0  0  0  0  0  0  0  0  0  0  0  0
    0.1634    1.7559    1.3418 N   0  0  0  0  0  0  0  0  0  0  0  0
    0.8618    1.1897    1.8008 H   0  0  0  0  0  0  0  0  0  0  0  0
    0.1509    3.1886    1.6256 C   0  0  0  0  0  0  0  0  0  0  0  0
   -0.8272    3.4794    2.0152 H   0  0  0  0  0  0  0  0  0  0  0  0
    0.9172    3.4314    2.3624 H   0  0  0  0  0  0  0  0  0  0  0  0
    0.3414    3.7499    0.7095 H   0  0  0  0  0  0  0  0  0  0  0  0
  5  6  2  0  0  0  0
  5  7  1  0  0  0  0
  2  3  1  0  0  0  0
  2  4  1  0  0  0  0
  2  5  1  0  0  0  0
  1  2  1  0  0  0  0
 22 23  2  0  0  0  0
 22 24  1  0  0  0  0
 20 21  1  0  0  0  0
 19 20  1  0  0  0  0
 17 18  1  0  0  0  0
 17 19  2  0  0  0  0
 15 16  1  0  0  0  0
 15 17  1  0  0  0  0
 14 15  1  0  0  0  0
 14 20  2  0  0  0  0
 11 12  1  0  0  0  0
 11 13  1  0  0  0  0
 11 14  1  0  0  0  0
  9 10  1  0  0  0  0
  9 11  1  0  0  0  0
  9 22  1  0  0  0  0
  7  8  1  0  0  0  0
  7  9  1  0  0  0  0
 26 27  1  0  0  0  0
 26 28  1  0  0  0  0
 26 29  1  0  0  0  0
 24 25  1  0  0  0  0
 24 26  1  0  0  0  0
M  END
$$$$
default_name
  -OEChem-02102213163D

 29 29  0     1  0  0  0  0  0999 V2000
   -3.6042   -3.5728    1.4576 H   0  0  0  0  0  0  0  0  0  0  0  0
   -3.5202   -2.6488    0.8866 C   0  0  0  0  0  0  0  0  0  0  0  0
   -4.2052   -1.9048    1.2896 H   0  0  0  0  0  0  0  0  0  0  0  0
   -3.7552   -2.8428   -0.1584 H   0  0  0  0  0  0  0  0  0  0  0  0
   -2.1052   -2.1358    0.9946 C   0  0  0  0  0  0  0  0  0  0  0  0
   -1.2852   -2.7288    1.6826 O   0  0  0  0  0  0  0  0  0  0  0  0
   -1.8202   -1.0288    0.3146 N   0  0  0  0  0  0  0  0  0  0  0  0
   -2.5542   -0.5788   -0.2104 H   0  0  0  0  0  0  0  0  0  0  0  0
   -0.5102   -0.3728    0.3086 C   0  0  1  0  0  0  0  0  0  0  0  0
    0.0719   -0.7468    1.1521 H   0  0  0  0  0  0  0  0  0  0  0  0
    0.2338   -0.7427   -0.9878 C   0  0  0  0  0  0  0  0  0  0  0  0
    1.2598   -1.0233   -0.7433 H   0  0  0  0  0  0  0  0  0  0  0  0
   -0.2517   -1.6085   -1.4419 H   0  0  0  0  0  0  0  0  0  0  0  0
    0.2702    0.3712   -2.0018 C   0  0  0  0  0  0  0  0  0  0  0  0
    0.5563    1.6957   -1.7487 N   0  0  0  0  0  0  0  0  0  0  0  0
    0.7039    2.1094   -0.8403 H   0  0  0  0  0  0  0  0  0  0  0  0
    0.5991    2.3437   -2.9250 C   0  0  0  0  0  0  0  0  0  0  0  0
    0.7969    3.4012   -3.0503 H   0  0  0  0  0  0  0  0  0  0  0  0
    0.3646    1.4915   -3.9335 N   0  0  0  0  0  0  0  0  0  0  0  0
    0.1500    0.2358   -3.3592 C   0  0  0  0  0  0  0  0  0  0  0  0
   -0.0405   -0.6866   -3.8923 H   0  0  0  0  0  0  0  0  0  0  0  0
   -0.6600    1.1486    0.4782 C   0  0  0  0  0  0  0  0  0  0  0  0
   -1.5001    1.7648   -0.1771 O   0  0  0  0  0  0  0  0  0  0  0  0
    0.1634    1.7559    1.3418 N   0  0  0  0  0  0  0  0  0  0  0  0
    0.8618    1.1897    1.8008 H   0  0  0  0  0  0  0  0  0  0  0  0
    0.1509    3.1886    1.6256 C   0  0  0  0  0  0  0  0  0  0  0  0
   -0.8272    3.4794    2.0152 H   0  0  0  0  0  0  0  0  0  0  0  0
    0.9172    3.4314    2.3624 H   0  0  0  0  0  0  0  0  0  0  0  0
    0.3414    3.7499    0.7095 H   0  0  0  0  0  0  0  0  0  0  0  0
  5  6  2  0  0  0  0
  5  7  1  0  0  0  0
  2  3  1  0  0  0  0
  2  4  1  0  0  0  0
  2  5  1  0  0  0  0
  1  2  1  0  0  0  0
 22 23  2  0  0  0  0
 22 24  1  0  0  0  0
 20 21  1  0  0  0  0
 19 20  1  0  0  0  0
 17 18  1  0  0  0  0
 17 19  2  0  0  0  0
 15 16  1  0  0  0  0
 15 17  1  0  0  0  0
 14 15  1  0  0  0  0
 14 20  2  0  0  0  0
 11 12  1  0  0  0  0
 11 13  1  0  0  0  0
 11 14  1  0  0  0  0
  9 10  1  0  0  0  0
  9 11  1  0  0  0  0
  9 22  1  0  0  0  0
  7  8  1  0  0  0  0
  7  9  1  0  0  0  0
 26 27  1  0  0  0  0
 26 28  1  0  0  0  0
 26 29  1  0  0  0  0
 24 25  1  0  0  0  0
 24 26  1  0  0  0  0
M  END
$$$$
default_name
  -OEChem-02102213163D

 29 29  0     1  0  0  0  0  0999 V2000
   -3.6042   -3.5728    1.4576 H   0  0  0  0  0  0  0  0  0  0  0  0
   -3.5202   -2.6488    0.8866 C   0  0  0  0  0  0  0  0  0  0  0  0
   -4.2052   -1.9048    1.2896 H   0  0  0  0  0  0  0  0  0  0  0  0
   -3.7552   -2.8428   -0.1584 H   0  0  0  0  0  0  0  0  0  0  0  0
   -2.1052   -2.1358    0.9946 C   0  0  0  0  0  0  0  0  0  0  0  0
   -1.2852   -2.7288    1.6826 O   0  0  0  0  0  0  0  0  0  0  0  0
   -1.8202   -1.0288    0.3146 N   0  0  0  0  0  0  0  0  0  0  0  0
   -2.5542   -0.5788   -0.2104 H   0  0  0  0  0  0  0  0  0  0  0  0
   -0.5102   -0.3728    0.3086 C   0  0  1  0  0  0  0  0  0  0  0  0
    0.0719   -0.7468    1.1521 H   0  0  0  0  0  0  0  0  0  0  0  0
    0.2338   -0.7427   -0.9878 C   0  0  0  0  0  0  0  0  0  0  0  0
    1.2598   -1.0233   -0.7433 H   0  0  0  0  0  0  0  0  0  0  0  0
   -0.2517   -1.6085   -1.4419 H   0  0  0  0  0  0  0  0  0  0  0  0
    0.2702    0.3712   -2.0018 C   0  0  0  0  0  0  0  0  0  0  0  0
    0.8263    1.6197   -1.8225 N   0  0  0  0  0  0  0  0  0  0  0  0
    1.2145    1.9803   -0.9638 H   0  0  0  0  0  0  0  0  0  0  0  0
    0.7565    2.2775   -2.9920 C   0  0  0  0  0  0  0  0  0  0  0  0
    1.1085    3.2873   -3.1642 H   0  0  0  0  0  0  0  0  0  0  0  0
    0.1887    1.5026   -3.9276 N   0  0  0  0  0  0  0  0  0  0  0  0
   -0.1285    0.2903   -3.3094 C   0  0  0  0  0  0  0  0  0  0  0  0
   -0.5755   -0.5724   -3.7861 H   0  0  0  0  0  0  0  0  0  0  0  0
   -0.6600    1.1486    0.4782 C   0  0  0  0  0  0  0  0  0  0  0  0
   -1.5001    1.7648   -0.1771 O   0  0  0  0  0  0  0  0  0  0  0  0
    0.1634    1.7559    1.3418 N   0  0  0  0  0  0  0  0  0  0  0  0
    0.8618    1.1897    1.8008 H   0  0  0  0  0  0  0  0  0  0  0  0
    0.1509    3.1886    1.6256 C   0  0  0  0  0  0  0  0  0  0  0  0
   -0.8272    3.4794    2.0152 H   0  0  0  0  0  0  0  0  0  0  0  0
    0.9172    3.4314    2.3624 H   0  0  0  0  0  0  0  0  0  0  0  0
    0.3414    3.7499    0.7095 H   0  0  0  0  0  0  0  0  0  0  0  0
  5  6  2  0  0  0  0
  5  7  1  0  0  0  0
  2  3  1  0  0  0  0
  2  4  1  0  0  0  0
  2  5  1  0  0  0  0
  1  2  1  0  0  0  0
 22 23  2  0  0  0  0
 22 24  1  0  0  0  0
 20 21  1  0  0  0  0
 19 20  1  0  0  0  0
 17 18  1  0  0  0  0
 17 19  2  0  0  0  0
 15 16  1  0  0  0  0
 15 17  1  0  0  0  0
 14 15  1  0  0  0  0
 14 20  2  0  0  0  0
 11 12  1  0  0  0  0
 11 13  1  0  0  0  0
 11 14  1  0  0  0  0
  9 10  1  0  0  0  0
  9 11  1  0  0  0  0
  9 22  1  0  0  0  0
  7  8  1  0  0  0  0
  7  9  1  0  0  0  0
 26 27  1  0  0  0  0
 26 28  1  0  0  0  0
 26 29  1  0  0  0  0
 24 25  1  0  0  0  0
 24 26  1  0  0  0  0
M  END
$$$$
default_name
  -OEChem-02102213163D

 29 29  0     1  0  0  0  0  0999 V2000
   -3.6042   -3.5728    1.4576 H   0  0  0  0  0  0  0  0  0  0  0  0
   -3.5202   -2.6488    0.8866 C   0  0  0  0  0  0  0  0  0  0  0  0
   -4.2052   -1.9048    1.2896 H   0  0  0  0  0  0  0  0  0  0  0  0
   -3.7552   -2.8428   -0.1584 H   0  0  0  0  0  0  0  0  0  0  0  0
   -2.1052   -2.1358    0.9946 C   0  0  0  0  0  0  0  0  0  0  0  0
   -1.2852   -2.7288    1.6826 O   0  0  0  0  0  0  0  0  0  0  0  0
   -1.8202   -1.0288    0.3146 N   0  0  0  0  0  0  0  0  0  0  0  0
   -2.5542   -0.5788   -0.2104 H   0  0  0  0  0  0  0  0  0  0  0  0
   -0.5102   -0.3728    0.3086 C   0  0  1  0  0  0  0  0  0  0  0  0
    0.0719   -0.7468    1.1521 H   0  0  0  0  0  0  0  0  0  0  0  0
    0.2338   -0.7427   -0.9878 C   0  0  0  0  0  0  0  0  0  0  0  0
    1.2598   -1.0233   -0.7433 H   0  0  0  0  0  0  0  0  0  0  0  0
   -0.2517   -1.6085   -1.4419 H   0  0  0  0  0  0  0  0  0  0  0  0
    0.2702    0.3712   -2.0018 C   0  0  0  0  0  0  0  0  0  0  0  0
    1.0598    1.4997   -1.9459 N   0  0  0  0  0  0  0  0  0  0  0  0
    1.6616    1.7675   -1.1815 H   0  0  0  0  0  0  0  0  0  0  0  0
    0.8842    2.1867   -3.0872 C   0  0  0  0  0  0  0  0  0  0  0  0
    1.3678    3.1238   -3.3346 H   0  0  0  0  0  0  0  0  0  0  0  0
    0.0217    1.5440   -3.8881 N   0  0  0  0  0  0  0  0  0  0  0  0
   -0.3786    0.3911   -3.2076 C   0  0  0  0  0  0  0  0  0  0  0  0
   -1.0521   -0.3697   -3.5805 H   0  0  0  0  0  0  0  0  0  0  0  0
   -0.6600    1.1486    0.4782 C   0  0  0  0  0  0  0  0  0  0  0  0
   -1.5001    1.7648   -0.1771 O   0  0  0  0  0  0  0  0  0  0  0  0
    0.1634    1.7559    1.3418 N   0  0  0  0  0  0  0  0  0  0  0  0
    0.8618    1.1897    1.8008 H   0  0  0  0  0  0  0  0  0  0  0  0
    0.1509    3.1886    1.6256 C   0  0  0  0  0  0  0  0  0  0  0  0
   -0.8272    3.4794    2.0152 H   0  0  0  0  0  0  0  0  0  0  0  0
    0.9172    3.4314    2.3624 H   0  0  0  0  0  0  0  0  0  0  0  0
    0.3414    3.7499    0.7095 H   0  0  0  0  0  0  0  0  0  0  0  0
  5  6  2  0  0  0  0
  5  7  1  0  0  0  0
  2  3  1  0  0  0  0
  2  4  1  0  0  0  0
  2  5  1  0  0  0  0
  1  2  1  0  0  0  0
 22 23  2  0  0  0  0
 22 24  1  0  0  0  0
 20 21  1  0  0  0  0
 19 20  1  0  0  0  0
 17 18  1  0  0  0  0
 17 19  2  0  0  0  0
 15 16  1  0  0  0  0
 15 17  1  0  0  0  0
 14 15  1  0  0  0  0
 14 20  2  0  0  0  0
 11 12  1  0  0  0  0
 11 13  1  0  0  0  0
 11 14  1  0  0  0  0
  9 10  1  0  0  0  0
  9 11  1  0  0  0  0
  9 22  1  0  0  0  0
  7  8  1  0  0  0  0
  7  9  1  0  0  0  0
 26 27  1  0  0  0  0
 26 28  1  0  0  0  0
 26 29  1  0  0  0  0
 24 25  1  0  0  0  0
 24 26  1  0  0  0  0
M  END
$$$$
default_name
  -OEChem-02102213163D

 29 29  0     1  0  0  0  0  0999 V2000
   -3.6042   -3.5728    1.4576 H   0  0  0  0  0  0  0  0  0  0  0  0
   -3.5202   -2.6488    0.8866 C   0  0  0  0  0  0  0  0  0  0  0  0
   -4.2052   -1.9048    1.2896 H   0  0  0  0  0  0  0  0  0  0  0  0
   -3.7552   -2.8428   -0.1584 H   0  0  0  0  0  0  0  0  0  0  0  0
   -2.1052   -2.1358    0.9946 C   0  0  0  0  0  0  0  0  0  0  0  0
   -1.2852   -2.7288    1.6826 O   0  0  0  0  0  0  0  0  0  0  0  0
   -1.8202   -1.0288    0.3146 N   0  0  0  0  0  0  0  0  0  0  0  0
   -2.5542   -0.5788   -0.2104 H   0  0  0  0  0  0  0  0  0  0  0  0
   -0.5102   -0.3728    0.3086 C   0  0  1  0  0  0  0  0  0  0  0  0
    0.0719   -0.7468    1.1521 H   0  0  0  0  0  0  0  0  0  0  0  0
    0.2338   -0.7427   -0.9878 C   0  0  0  0  0  0  0  0  0  0  0  0
    1.2598   -1.0233   -0.7433 H   0  0  0  0  0  0  0  0  0  0  0  0
   -0.2517   -1.6085   -1.4419 H   0  0  0  0  0  0  0  0  0  0  0  0
    0.2702    0.3712   -2.0018 C   0  0  0  0  0  0  0  0  0  0  0  0
    1.2408    1.3440   -2.1105 N   0  0  0  0  0  0  0  0  0  0  0  0
    2.0148    1.4854   -1.4788 H   0  0  0  0  0  0  0  0  0  0  0  0
    0.9735    2.0772   -3.2042 C   0  0  0  0  0  0  0  0  0  0  0  0
    1.5572    2.9217   -3.5498 H   0  0  0  0  0  0  0  0  0  0  0  0
   -0.1247    1.6128   -3.8178 N   0  0  0  0  0  0  0  0  0  0  0  0
   -0.5831    0.5314   -3.0608 C   0  0  0  0  0  0  0  0  0  0  0  0
   -1.4378   -0.0921   -3.2893 H   0  0  0  0  0  0  0  0  0  0  0  0
   -0.6600    1.1486    0.4782 C   0  0  0  0  0  0  0  0  0  0  0  0
   -1.5001    1.7648   -0.1771 O   0  0  0  0  0  0  0  0  0  0  0  0
    0.1634    1.7559    1.3418 N   0  0  0  0  0  0  0  0  0  0  0  0
    0.8618    1.1897    1.8008 H   0  0  0  0  0  0  0  0  0  0  0  0
    0.1509    3.1886    1.6256 C   0  0  0  0  0  0  0  0  0  0  0  0
   -0.8272    3.4794    2.0152 H   0  0  0  0  0  0  0  0  0  0  0  0
    0.9172    3.4314    2.3624 H   0  0  0  0  0  0  0  0  0  0  0  0
    0.3414    3.7499    0.7095 H   0  0  0  0  0  0  0  0  0  0  0  0
  5  6  2  0  0  0  0
  5  7  1  0  0  0  0
  2  3  1  0  0  0  0
  2  4  1  0  0  0  0
  2  5  1  0  0  0  0
  1  2  1  0  0  0  0
 22 23  2  0  0  0  0
 22 24  1  0  0  0  0
 20 21  1  0  0  0  0
 19 20  1  0  0  0  0
 17 18  1  0  0  0  0
 17 19  2  0  0  0  0
 15 16  1  0  0  0  0
 15 17  1  0  0  0  0
 14 15  1  0  0  0  0
 14 20  2  0  0  0  0
 11 12  1  0  0  0  0
 11 13  1  0  0  0  0
 11 14  1  0  0  0  0
  9 10  1  0  0  0  0
  9 11  1  0  0  0  0
  9 22  1  0  0  0  0
  7  8  1  0  0  0  0
  7  9  1  0  0  0  0
 26 27  1  0  0  0  0
 26 28  1  0  0  0  0
 26 29  1  0  0  0  0
 24 25  1  0  0  0  0
 24 26  1  0  0  0  0
M  END
$$$$
default_name
  -OEChem-02102213163D

 29 29  0     1  0  0  0  0  0999 V2000
   -3.6042   -3.5728    1.4576 H   0  0  0  0  0  0  0  0  0  0  0  0
   -3.5202   -2.6488    0.8866 C   0  0  0  0  0  0  0  0  0  0  0  0
   -4.2052   -1.9048    1.2896 H   0  0  0  0  0  0  0  0  0  0  0  0
   -3.7552   -2.8428   -0.1584 H   0  0  0  0  0  0  0  0  0  0  0  0
   -2.1052   -2.1358    0.9946 C   0  0  0  0  0  0  0  0  0  0  0  0
   -1.2852   -2.7288    1.6826 O   0  0  0  0  0  0  0  0  0  0  0  0
   -1.8202   -1.0288    0.3146 N   0  0  0  0  0  0  0  0  0  0  0  0
   -2.5542   -0.5788   -0.2104 H   0  0  0  0  0  0  0  0  0  0  0  0
   -0.5102   -0.3728    0.3086 C   0  0  1  0  0  0  0  0  0  0  0  0
    0.0719   -0.7468    1.1521 H   0  0  0  0  0  0  0  0  0  0  0  0
    0.2338   -0.7427   -0.9878 C   0  0  0  0  0  0  0  0  0  0  0  0
    1.2598   -1.0233   -0.7433 H   0  0  0  0  0  0  0  0  0  0  0  0
   -0.2517   -1.6085   -1.4419 H   0  0  0  0  0  0  0  0  0  0  0  0
    0.2702    0.3712   -2.0018 C   0  0  0  0  0  0  0  0  0  0  0  0
    1.3570    1.1630   -2.3051 N   0  0  0  0  0  0  0  0  0  0  0  0
    2.2499    1.1532   -1.8352 H   0  0  0  0  0  0  0  0  0  0  0  0
    1.0183    1.9567   -3.3350 C   0  0  0  0  0  0  0  0  0  0  0  0
    1.6638    2.6948   -3.7952 H   0  0  0  0  0  0  0  0  0  0  0  0
   -0.2408    1.7043   -3.7214 N   0  0  0  0  0  0  0  0  0  0  0  0
   -0.7281    0.7016   -2.8790 C   0  0  0  0  0  0  0  0  0  0  0  0
   -1.7062    0.2414   -2.9326 H   0  0  0  0  0  0  0  0  0  0  0  0
   -0.6600    1.1486    0.4782 C   0  0  0  0  0  0  0  0  0  0  0  0
   -1.5001    1.7648   -0.1771 O   0  0  0  0  0  0  0  0  0  0  0  0
    0.1634    1.7559    1.3418 N   0  0  0  0  0  0  0  0  0  0  0  0
    0.8618    1.1897    1.8008 H   0  0  0  0  0  0  0  0  0  0  0  0
    0.1509    3.1886    1.6256 C   0  0  0  0  0  0  0  0  0  0  0  0
   -0.8272    3.4794    2.0152 H   0  0  0  0  0  0  0  0  0  0  0  0
    0.9172    3.4314    2.3624 H   0  0  0  0  0  0  0  0  0  0  0  0
    0.3414    3.7499    0.7095 H   0  0  0  0  0  0  0  0  0  0  0  0
  5  6  2  0  0  0  0
  5  7  1  0  0  0  0
  2  3  1  0  0  0  0
  2  4  1  0  0  0  0
  2  5  1  0  0  0  0
  1  2  1  0  0  0  0
 22 23  2  0  0  0  0
 22 24  1  0  0  0  0
 20 21  1  0  0  0  0
 19 20  1  0  0  0  0
 17 18  1  0  0  0  0
 17 19  2  0  0  0  0
 15 16  1  0  0  0  0
 15 17  1  0  0  0  0
 14 15  1  0  0  0  0
 14 20  2  0  0  0  0
 11 12  1  0  0  0  0
 11 13  1  0  0  0  0
 11 14  1  0  0  0  0
  9 10  1  0  0  0  0
  9 11  1  0  0  0  0
  9 22  1  0  0  0  0
  7  8  1  0  0  0  0
  7  9  1  0  0  0  0
 26 27  1  0  0  0  0
 26 28  1  0  0  0  0
 26 29  1  0  0  0  0
 24 25  1  0  0  0  0
 24 26  1  0  0  0  0
M  END
$$$$
default_name
  -OEChem-02102213163D

 29 29  0     1  0  0  0  0  0999 V2000
   -3.6042   -3.5728    1.4576 H   0  0  0  0  0  0  0  0  0  0  0  0
   -3.5202   -2.6488    0.8866 C   0  0  0  0  0  0  0  0  0  0  0  0
   -4.2052   -1.9048    1.2896 H   0  0  0  0  0  0  0  0  0  0  0  0
   -3.7552   -2.8428   -0.1584 H   0  0  0  0  0  0  0  0  0  0  0  0
   -2.1052   -2.1358    0.9946 C   0  0  0  0  0  0  0  0  0  0  0  0
   -1.2852   -2.7288    1.6826 O   0  0  0  0  0  0  0  0  0  0  0  0
   -1.8202   -1.0288    0.3146 N   0  0  0  0  0  0  0  0  0  0  0  0
   -2.5542   -0.5788   -0.2104 H   0  0  0  0  0  0  0  0  0  0  0  0
   -0.5102   -0.3728    0.3086 C   0  0  1  0  0  0  0  0  0  0  0  0
    0.0719   -0.7468    1.1521 H   0  0  0  0  0  0  0  0  0  0  0  0
    0.2338   -0.7427   -0.9878 C   0  0  0  0  0  0  0  0  0  0  0  0
    1.2598   -1.0233   -0.7433 H   0  0  0  0  0  0  0  0  0  0  0  0
   -0.2517   -1.6085   -1.4419 H   0  0  0  0  0  0  0  0  0  0  0  0
    0.2702    0.3712   -2.0018 C   0  0  0  0  0  0  0  0  0  0  0  0
    1.4005    0.9692   -2.5165 N   0  0  0  0  0  0  0  0  0  0  0  0
    2.3509    0.7937   -2.2266 H   0  0  0  0  0  0  0  0  0  0  0  0
    1.0156    1.8333   -3.4707 C   0  0  0  0  0  0  0  0  0  0  0  0
    1.6803    2.4587   -4.0540 H   0  0  0  0  0  0  0  0  0  0  0  0
   -0.3185    1.8123   -3.6056 N   0  0  0  0  0  0  0  0  0  0  0  0
   -0.8037    0.8901   -2.6746 C   0  0  0  0  0  0  0  0  0  0  0  0
   -1.8392    0.6081   -2.5346 H   0  0  0  0  0  0  0  0  0  0  0  0
   -0.6600    1.1486    0.4782 C   0  0  0  0  0  0  0  0  0  0  0  0
   -1.5001    1.7648   -0.1771 O   0  0  0  0  0  0  0  0  0  0  0  0
    0.1634    1.7559    1.3418 N   0  0  0  0  0  0  0  0  0  0  0  0
    0.8618    1.1897    1.8008 H   0  0  0  0  0  0  0  0  0  0  0  0
    0.1509    3.1886    1.6256 C   0  0  0  0  0  0  0  0  0  0  0  0
   -0.8272    3.4794    2.0152 H   0  0  0  0  0  0  0  0  0  0  0  0
    0.9172    3.4314    2.3624 H   0  0  0  0  0  0  0  0  0  0  0  0
    0.3414    3.7499    0.7095 H   0  0  0  0  0  0  0  0  0  0  0  0
  5  6  2  0  0  0  0
  5  7  1  0  0  0  0
  2  3  1  0  0  0  0
  2  4  1  0  0  0  0
  2  5  1  0  0  0  0
  1  2  1  0  0  0  0
 22 23  2  0  0  0  0
 22 24  1  0  0  0  0
 20 21  1  0  0  0  0
 19 20  1  0  0  0  0
 17 18  1  0  0  0  0
 17 19  2  0  0  0  0
 15 16  1  0  0  0  0
 15 17  1  0  0  0  0
 14 15  1  0  0  0  0
 14 20  2  0  0  0  0
 11 12  1  0  0  0  0
 11 13  1  0  0  0  0
 11 14  1  0  0  0  0
  9 10  1  0  0  0  0
  9 11  1  0  0  0  0
  9 22  1  0  0  0  0
  7  8  1  0  0  0  0
  7  9  1  0  0  0  0
 26 27  1  0  0  0  0
 26 28  1  0  0  0  0
 26 29  1  0  0  0  0
 24 25  1  0  0  0  0
 24 26  1  0  0  0  0
M  END
$$$$
default_name
  -OEChem-02102213163D

 29 29  0     1  0  0  0  0  0999 V2000
   -3.6042   -3.5728    1.4576 H   0  0  0  0  0  0  0  0  0  0  0  0
   -3.5202   -2.6488    0.8866 C   0  0  0  0  0  0  0  0  0  0  0  0
   -4.2052   -1.9048    1.2896 H   0  0  0  0  0  0  0  0  0  0  0  0
   -3.7552   -2.8428   -0.1584 H   0  0  0  0  0  0  0  0  0  0  0  0
   -2.1052   -2.1358    0.9946 C   0  0  0  0  0  0  0  0  0  0  0  0
   -1.2852   -2.7288    1.6826 O   0  0  0  0  0  0  0  0  0  0  0  0
   -1.8202   -1.0288    0.3146 N   0  0  0  0  0  0  0  0  0  0  0  0
   -2.5542   -0.5788   -0.2104 H   0  0  0  0  0  0  0  0  0  0  0  0
   -0.5102   -0.3728    0.3086 C   0  0  1  0  0  0  0  0  0  0  0  0
    0.0719   -0.7468    1.1521 H   0  0  0  0  0  0  0  0  0  0  0  0
    0.2338   -0.7427   -0.9878 C   0  0  0  0  0  0  0  0  0  0  0  0
    1.2598   -1.0233   -0.7433 H   0  0  0  0  0  0  0  0  0  0  0  0
   -0.2517   -1.6085   -1.4419 H   0  0  0  0  0  0  0  0  0  0  0  0
    0.2702    0.3712   -2.0018 C   0  0  0  0  0  0  0  0  0  0  0  0
    1.3683    0.7757   -2.7302 N   0  0  0  0  0  0  0  0  0  0  0  0
    2.3110    0.4313   -2.6262 H   0  0  0  0  0  0  0  0  0  0  0  0
    0.9655    1.7155   -3.6020 C   0  0  0  0  0  0  0  0  0  0  0  0
    1.6056    2.2293   -4.3087 H   0  0  0  0  0  0  0  0  0  0  0  0
   -0.3526    1.9294   -3.4781 N   0  0  0  0  0  0  0  0  0  0  0  0
   -0.8048    1.0841   -2.4616 C   0  0  0  0  0  0  0  0  0  0  0  0
   -1.8276    0.9829   -2.1224 H   0  0  0  0  0  0  0  0  0  0  0  0
   -0.6600    1.1486    0.4782 C   0  0  0  0  0  0  0  0  0  0  0  0
   -1.5001    1.7648   -0.1771 O   0  0  0  0  0  0  0  0  0  0  0  0
    0.1634    1.7559    1.3418 N   0  0  0  0  0  0  0  0  0  0  0  0
    0.8618    1.1897    1.8008 H   0  0  0  0  0  0  0  0  0  0  0  0
    0.1509    3.1886    1.6256 C   0  0  0  0  0  0  0  0  0  0  0  0
   -0.8272    3.4794    2.0152 H   0  0  0  0  0  0  0  0  0  0  0  0
    0.9172    3.4314    2.3624 H   0  0  0  0  0  0  0  0  0  0  0  0
    0.3414    3.7499    0.7095 H   0  0  0  0  0  0  0  0  0  0  0  0
  5  6  2  0  0  0  0
  5  7  1  0  0  0  0
  2  3  1  0  0  0  0
  2  4  1  0  0  0  0
  2  5  1  0  0  0  0
  1  2  1  0  0  0  0
 22 23  2  0  0  0  0
 22 24  1  0  0  0  0
 20 21  1  0  0  0  0
 19 20  1  0  0  0  0
 17 18  1  0  0  0  0
 17 19  2  0  0  0  0
 15 16  1  0  0  0  0
 15 17  1  0  0  0  0
 14 15  1  0  0  0  0
 14 20  2  0  0  0  0
 11 12  1  0  0  0  0
 11 13  1  0  0  0  0
 11 14  1  0  0  0  0
  9 10  1  0  0  0  0
  9 11  1  0  0  0  0
  9 22  1  0  0  0  0
  7  8  1  0  0  0  0
  7  9  1  0  0  0  0
 26 27  1  0  0  0  0
 26 28  1  0  0  0  0
 26 29  1  0  0  0  0
 24 25  1  0  0  0  0
 24 26  1  0  0  0  0
M  END
$$$$
default_name
  -OEChem-02102213163D

 29 29  0     1  0  0  0  0  0999 V2000
   -3.6042   -3.5728    1.4576 H   0  0  0  0  0  0  0  0  0  0  0  0
   -3.5202   -2.6488    0.8866 C   0  0  0  0  0  0  0  0  0  0  0  0
   -4.2052   -1.9048    1.2896 H   0  0  0  0  0  0  0  0  0  0  0  0
   -3.7552   -2.8428   -0.1584 H   0  0  0  0  0  0  0  0  0  0  0  0
   -2.1052   -2.1358    0.9946 C   0  0  0  0  0  0  0  0  0  0  0  0
   -1.2852   -2.7288    1.6826 O   0  0  0  0  0  0  0  0  0  0  0  0
   -1.8202   -1.0288    0.3146 N   0  0  0  0  0  0  0  0  0  0  0  0
   -2.5542   -0.5788   -0.2104 H   0  0  0  0  0  0  0  0  0  0  0  0
   -0.5102   -0.3728    0.3086 C   0  0  1  0  0  0  0  0  0  0  0  0
    0.0719   -0.7468    1.1521 H   0  0  0  0  0  0  0  0  0  0  0  0
    0.2338   -0.7427   -0.9878 C   0  0  0  0  0  0  0  0  0  0  0  0
    1.2598   -1.0233   -0.7433 H   0  0  0  0  0  0  0  0  0  0  0  0
   -0.2517   -1.6085   -1.4419 H   0  0  0  0  0  0  0  0  0  0  0  0
    0.2702    0.3712   -2.0018 C   0  0  0  0  0  0  0  0  0  0  0  0
    1.2626    0.5958   -2.9317 N   0  0  0  0  0  0  0  0  0  0  0  0
    2.1329    0.0906   -3.0068 H   0  0  0  0  0  0  0  0  0  0  0  0
    0.8714    1.6112   -3.7199 C   0  0  0  0  0  0  0  0  0  0  0  0
    1.4447    2.0224   -4.5418 H   0  0  0  0  0  0  0  0  0  0  0  0
   -0.3407    2.0477   -3.3477 N   0  0  0  0  0  0  0  0  0  0  0  0
   -0.7313    1.2703   -2.2543 C   0  0  0  0  0  0  0  0  0  0  0  0
   -1.6723    1.3403   -1.7241 H   0  0  0  0  0  0  0  0  0  0  0  0
   -0.6600    1.1486    0.4782 C   0  0  0  0  0  0  0  0  0  0  0  0
   -1.5001    1.7648   -0.1771 O   0  0  0  0  0  0  0  0  0  0  0  0
    0.1634    1.7559    1.3418 N   0  0  0  0  0  0  0  0  0  0  0  0
    0.8618    1.1897    1.8008 H   0  0  0  0  0  0  0  0  0  0  0  0
    0.1509    3.1886    1.6256 C   0  0  0  0  0  0  0  0  0  0  0  0
   -0.8272    3.4794    2.0152 H   0  0  0  0  0  0  0  0  0  0  0  0
    0.9172    3.4314    2.3624 H   0  0  0  0  0  0  0  0  0  0  0  0
    0.3414    3.7499    0.7095 H   0  0  0  0  0  0  0  0  0  0  0  0
  5  6  2  0  0  0  0
  5  7  1  0  0  0  0
  2  3  1  0  0  0  0
  2  4  1  0  0  0  0
  2  5  1  0  0  0  0
  1  2  1  0  0  0  0
 22 23  2  0  0  0  0
 22 24  1  0  0  0  0
 20 21  1  0  0  0  0
 19 20  1  0  0  0  0
 17 18  1  0  0  0  0
 17 19  2  0  0  0  0
 15 16  1  0  0  0  0
 15 17  1  0  0  0  0
 14 15  1  0  0  0  0
 14 20  2  0  0  0  0
 11 12  1  0  0  0  0
 11 13  1  0  0  0  0
 11 14  1  0  0  0  0
  9 10  1  0  0  0  0
  9 11  1  0  0  0  0
  9 22  1  0  0  0  0
  7  8  1  0  0  0  0
  7  9  1  0  0  0  0
 26 27  1  0  0  0  0
 26 28  1  0  0  0  0
 26 29  1  0  0  0  0
 24 25  1  0  0  0  0
 24 26  1  0  0  0  0
M  END
$$$$
default_name
  -OEChem-02102213163D

 29 29  0     1  0  0  0  0  0999 V2000
   -3.6042   -3.5728    1.4576 H   0  0  0  0  0  0  0  0  0  0  0  0
   -3.5202   -2.6488    0.8866 C   0  0  0  0  0  0  0  0  0  0  0  0
   -4.2052   -1.9048    1.2896 H   0  0  0  0  0  0  0  0  0  0  0  0
   -3.7552   -2.8428   -0.1584 H   0  0  0  0  0  0  0  0  0  0  0  0
   -2.1052   -2.1358    0.9946 C   0  0  0  0  0  0  0  0  0  0  0  0
   -1.2852   -2.7288    1.6826 O   0  0  0  0  0  0  0  0  0  0  0  0
   -1.8202   -1.0288    0.3146 N   0  0  0  0  0  0  0  0  0  0  0  0
   -2.5542   -0.5788   -0.2104 H   0  0  0  0  0  0  0  0  0  0  0  0
   -0.5102   -0.3728    0.3086 C   0  0  1  0  0  0  0  0  0  0  0  0
    0.0719   -0.7468    1.1521 H   0  0  0  0  0  0  0  0  0  0  0  0
    0.2338   -0.7427   -0.9878 C   0  0  0  0  0  0  0  0  0  0  0  0
    1.2598   -1.0233   -0.7433 H   0  0  0  0  0  0  0  0  0  0  0  0
   -0.2517   -1.6085   -1.4419 H   0  0  0  0  0  0  0  0  0  0  0  0
    0.2702    0.3712   -2.0018 C   0  0  0  0  0  0  0  0  0  0  0  0
    1.0907    0.4417   -3.1072 N   0  0  0  0  0  0  0  0  0  0  0  0
    1.8286   -0.2050   -3.3425 H   0  0  0  0  0  0  0  0  0  0  0  0
    0.7399    1.5276   -3.8165 C   0  0  0  0  0  0  0  0  0  0  0  0
    1.2087    1.8520   -4.7375 H   0  0  0  0  0  0  0  0  0  0  0  0
   -0.2837    2.1590   -3.2233 N   0  0  0  0  0  0  0  0  0  0  0  0
   -0.5883    1.4361   -2.0670 C   0  0  0  0  0  0  0  0  0  0  0  0
   -1.3838    1.6561   -1.3669 H   0  0  0  0  0  0  0  0  0  0  0  0
   -0.6600    1.1486    0.4782 C   0  0  0  0  0  0  0  0  0  0  0  0
   -1.5001    1.7648   -0.1771 O   0  0  0  0  0  0  0  0  0  0  0  0
    0.1634    1.7559    1.3418 N   0  0  0  0  0  0  0  0  0  0  0  0
    0.8618    1.1897    1.8008 H   0  0  0  0  0  0  0  0  0  0  0  0
    0.1509    3.1886    1.6256 C   0  0  0  0  0  0  0  0  0  0  0  0
   -0.8272    3.4794    2.0152 H   0  0  0  0  0  0  0  0  0  0  0  0
    0.9172    3.4314    2.3624 H   0  0  0  0  0  0  0  0  0  0  0  0
    0.3414    3.7499    0.7095 H   0  0  0  0  0  0  0  0  0  0  0  0
  5  6  2  0  0  0  0
  5  7  1  0  0  0  0
  2  3  1  0  0  0  0
  2  4  1  0  0  0  0
  2  5  1  0  0  0  0
  1  2  1  0  0  0  0
 22 23  2  0  0  0  0
 22 24  1  0  0  0  0
 20 21  1  0  0  0  0
 19 20  1  0  0  0  0
 17 18  1  0  0  0  0
 17 19  2  0  0  0  0
 15 16  1  0  0  0  0
 15 17  1  0  0  0  0
 14 15  1  0  0  0  0
 14 20  2  0  0  0  0
 11 12  1  0  0  0  0
 11 13  1  0  0  0  0
 11 14  1  0  0  0  0
  9 10  1  0  0  0  0
  9 11  1  0  0  0  0
  9 22  1  0  0  0  0
  7  8  1  0  0  0  0
  7  9  1  0  0  0  0
 26 27  1  0  0  0  0
 26 28  1  0  0  0  0
 26 29  1  0  0  0  0
 24 25  1  0  0  0  0
 24 26  1  0  0  0  0
M  END
$$$$
default_name
  -OEChem-02102213163D

 29 29  0     1  0  0  0  0  0999 V2000
   -3.6042   -3.5728    1.4576 H   0  0  0  0  0  0  0  0  0  0  0  0
   -3.5202   -2.6488    0.8866 C   0  0  0  0  0  0  0  0  0  0  0  0
   -4.2052   -1.9048    1.2896 H   0  0  0  0  0  0  0  0  0  0  0  0
   -3.7552   -2.8428   -0.1584 H   0  0  0  0  0  0  0  0  0  0  0  0
   -2.1052   -2.1358    0.9946 C   0  0  0  0  0  0  0  0  0  0  0  0
   -1.2852   -2.7288    1.6826 O   0  0  0  0  0  0  0  0  0  0  0  0
   -1.8202   -1.0288    0.3146 N   0  0  0  0  0  0  0  0  0  0  0  0
   -2.5542   -0.5788   -0.2104 H   0  0  0  0  0  0  0  0  0  0  0  0
   -0.5102   -0.3728    0.3086 C   0  0  1  0  0  0  0  0  0  0  0  0
    0.0719   -0.7468    1.1521 H   0  0  0  0  0  0  0  0  0  0  0  0
    0.2338   -0.7427   -0.9878 C   0  0  0  0  0  0  0  0  0  0  0  0
    1.1544   -1.2708   -0.7332 H   0  0  0  0  0  0  0  0  0  0  0  0
   -0.3897   -1.4193   -1.5751 H   0  0  0  0  0  0  0  0  0  0  0  0
    0.5847    0.4472   -1.8430 C   0  0  0  0  0  0  0  0  0  0  0  0
    1.2475    0.4164   -3.0512 N   0  0  0  0  0  0  0  0  0  0  0  0
    1.6533   -0.3984   -3.4866 H   0  0  0  0  0  0  0  0  0  0  0  0
    1.2645    1.6649   -3.5477 C   0  0  0  0  0  0  0  0  0  0  0  0
    1.7209    1.9598   -4.4847 H   0  0  0  0  0  0  0  0  0  0  0  0
    0.6287    2.5038   -2.7169 N   0  0  0  0  0  0  0  0  0  0  0  0
    0.1960    1.7426   -1.6280 C   0  0  0  0  0  0  0  0  0  0  0  0
   -0.3762    2.1034   -0.7831 H   0  0  0  0  0  0  0  0  0  0  0  0
   -0.6600    1.1486    0.4782 C   0  0  0  0  0  0  0  0  0  0  0  0
   -1.5001    1.7648   -0.1771 O   0  0  0  0  0  0  0  0  0  0  0  0
    0.1634    1.7559    1.3418 N   0  0  0  0  0  0  0  0  0  0  0  0
    0.8618    1.1897    1.8008 H   0  0  0  0  0  0  0  0  0  0  0  0
    0.1509    3.1886    1.6256 C   0  0  0  0  0  0  0  0  0  0  0  0
   -0.8272    3.4794    2.0152 H   0  0  0  0  0  0  0  0  0  0  0  0
    0.9172    3.4314    2.3624 H   0  0  0  0  0  0  0  0  0  0  0  0
    0.3414    3.7499    0.7095 H   0  0  0  0  0  0  0  0  0  0  0  0
  5  6  2  0  0  0  0
  5  7  1  0  0  0  0
  2  3  1  0  0  0  0
  2  4  1  0  0  0  0
  2  5  1  0  0  0  0
  1  2  1  0  0  0  0
 22 23  2  0  0  0  0
 22 24  1  0  0  0  0
 20 21  1  0  0  0  0
 19 20  1  0  0  0  0
 17 18  1  0  0  0  0
 17 19  2  0  0  0  0
 15 16  1  0  0  0  0
 15 17  1  0  0  0  0
 14 15  1  0  0  0  0
 14 20  2  0  0  0  0
 11 12  1  0  0  0  0
 11 13  1  0  0  0  0
 11 14  1  0  0  0  0
  9 10  1  0  0  0  0
  9 11  1  0  0  0  0
  9 22  1  0  0  0  0
  7  8  1  0  0  0  0
  7  9  1  0  0  0  0
 26 27  1  0  0  0  0
 26 28  1  0  0  0  0
 26 29  1  0  0  0  0
 24 25  1  0  0  0  0
 24 26  1  0  0  0  0
M  END
$$$$
default_name
  -OEChem-02102213163D

 29 29  0     1  0  0  0  0  0999 V2000
   -3.6042   -3.5728    1.4576 H   0  0  0  0  0  0  0  0  0  0  0  0
   -3.5202   -2.6488    0.8866 C   0  0  0  0  0  0  0  0  0  0  0  0
   -4.2052   -1.9048    1.2896 H   0  0  0  0  0  0  0  0  0  0  0  0
   -3.7552   -2.8428   -0.1584 H   0  0  0  0  0  0  0  0  0  0  0  0
   -2.1052   -2.1358    0.9946 C   0  0  0  0  0  0  0  0  0  0  0  0
   -1.2852   -2.7288    1.6826 O   0  0  0  0  0  0  0  0  0  0  0  0
   -1.8202   -1.0288    0.3146 N   0  0  0  0  0  0  0  0  0  0  0  0
   -2.5542   -0.5788   -0.2104 H   0  0  0  0  0  0  0  0  0  0  0  0
   -0.5102   -0.3728    0.3086 C   0  0  1  0  0  0  0  0  0  0  0  0
    0.0719   -0.7468    1.1521 H   0  0  0  0  0  0  0  0  0  0  0  0
    0.2338   -0.7427   -0.9878 C   0  0  0  0  0  0  0  0  0  0  0  0
    1.1544   -1.2708   -0.7332 H   0  0  0  0  0  0  0  0  0  0  0  0
   -0.3897   -1.4193   -1.5751 H   0  0  0  0  0  0  0  0  0  0  0  0
    0.5847    0.4472   -1.8430 C   0  0  0  0  0  0  0  0  0  0  0  0
    0.9799    0.4149   -3.1631 N   0  0  0  0  0  0  0  0  0  0  0  0
    1.1608   -0.4136   -3.7099 H   0  0  0  0  0  0  0  0  0  0  0  0
    1.0883    1.6824   -3.5955 C   0  0  0  0  0  0  0  0  0  0  0  0
    1.3879    1.9802   -4.5930 H   0  0  0  0  0  0  0  0  0  0  0  0
    0.7676    2.5373   -2.6133 N   0  0  0  0  0  0  0  0  0  0  0  0
    0.4498    1.7644   -1.4934 C   0  0  0  0  0  0  0  0  0  0  0  0
    0.1203    2.1372   -0.5323 H   0  0  0  0  0  0  0  0  0  0  0  0
   -0.6600    1.1486    0.4782 C   0  0  0  0  0  0  0  0  0  0  0  0
   -1.5001    1.7648   -0.1771 O   0  0  0  0  0  0  0  0  0  0  0  0
    0.1634    1.7559    1.3418 N   0  0  0  0  0  0  0  0  0  0  0  0
    0.8618    1.1897    1.8008 H   0  0  0  0  0  0  0  0  0  0  0  0
    0.1509    3.1886    1.6256 C   0  0  0  0  0  0  0  0  0  0  0  0
   -0.8272    3.4794    2.0152 H   0  0  0  0  0  0  0  0  0  0  0  0
    0.9172    3.4314    2.3624 H   0  0  0  0  0  0  0  0  0  0  0  0
    0.3414    3.7499    0.7095 H   0  0  0  0  0  0  0  0  0  0  0  0
  5  6  2  0  0  0  0
  5  7  1  0  0  0  0
  2  3  1  0  0  0  0
  2  4  1  0  0  0  0
  2  5  1  0  0  0  0
  1  2  1  0  0  0  0
 22 23  2  0  0  0  0
 22 24  1  0  0  0  0
 20 21  1  0  0  0  0
 19 20  1  0  0  0  0
 17 18  1  0  0  0  0
 17 19  2  0  0  0  0
 15 16  1  0  0  0  0
 15 17  1  0  0  0  0
 14 15  1  0  0  0  0
 14 20  2  0  0  0  0
 11 12  1  0  0  0  0
 11 13  1  0  0  0  0
 11 14  1  0  0  0  0
  9 10  1  0  0  0  0
  9 11  1  0  0  0  0
  9 22  1  0  0  0  0
  7  8  1  0  0  0  0
  7  9  1  0  0  0  0
 26 27  1  0  0  0  0
 26 28  1  0  0  0  0
 26 29  1  0  0  0  0
 24 25  1  0  0  0  0
 24 26  1  0  0  0  0
M  END
$$$$
default_name
  -OEChem-02102213163D

 29 29  0     1  0  0  0  0  0999 V2000
   -3.6042   -3.5728    1.4576 H   0  0  0  0  0  0  0  0  0  0  0  0
   -3.5202   -2.6488    0.8866 C   0  0  0  0  0  0  0  0  0  0  0  0
   -4.2052   -1.9048    1.2896 H   0  0  0  0  0  0  0  0  0  0  0  0
   -3.7552   -2.8428   -0.1584 H   0  0  0  0  0  0  0  0  0  0  0  0
   -2.1052   -2.1358    0.9946 C   0  0  0  0  0  0  0  0  0  0  0  0
   -1.2852   -2.7288    1.6826 O   0  0  0  0  0  0  0  0  0  0  0  0
   -1.8202   -1.0288    0.3146 N   0  0  0  0  0  0  0  0  0  0  0  0
   -2.5542   -0.5788   -0.2104 H   0  0  0  0  0  0  0  0  0  0  0  0
   -0.5102   -0.3728    0.3086 C   0  0  1  0  0  0  0  0  0  0  0  0
    0.0719   -0.7468    1.1521 H   0  0  0  0  0  0  0  0  0  0  0  0
    0.2338   -0.7427   -0.9878 C   0  0  0  0  0  0  0  0  0  0  0  0
    1.1544   -1.2708   -0.7332 H   0  0  0  0  0  0  0  0  0  0  0  0
   -0.3897   -1.4193   -1.5751 H   0  0  0  0  0  0  0  0  0  0  0  0
    0.5847    0.4472   -1.8430 C   0  0  0  0  0  0  0  0  0  0  0  0
    0.6983    0.4595   -3.2166 N   0  0  0  0  0  0  0  0  0  0  0  0
    0.6372   -0.3426   -3.8259 H   0  0  0  0  0  0  0  0  0  0  0  0
    0.9109    1.7282   -3.6047 C   0  0  0  0  0  0  0  0  0  0  0  0
    1.0471    2.0553   -4.6282 H   0  0  0  0  0  0  0  0  0  0  0  0
    0.9278    2.5430   -2.5397 N   0  0  0  0  0  0  0  0  0  0  0  0
    0.7258    1.7400   -1.4141 C   0  0  0  0  0  0  0  0  0  0  0  0
    0.6561    2.0818   -0.3895 H   0  0  0  0  0  0  0  0  0  0  0  0
   -0.6600    1.1486    0.4782 C   0  0  0  0  0  0  0  0  0  0  0  0
   -1.5001    1.7648   -0.1771 O   0  0  0  0  0  0  0  0  0  0  0  0
    0.1634    1.7559    1.3418 N   0  0  0  0  0  0  0  0  0  0  0  0
    0.8618    1.1897    1.8008 H   0  0  0  0  0  0  0  0  0  0  0  0
    0.1509    3.1886    1.6256 C   0  0  0  0  0  0  0  0  0  0  0  0
   -0.8272    3.4794    2.0152 H   0  0  0  0  0  0  0  0  0  0  0  0
    0.9172    3.4314    2.3624 H   0  0  0  0  0  0  0  0  0  0  0  0
    0.3414    3.7499    0.7095 H   0  0  0  0  0  0  0  0  0  0  0  0
  5  6  2  0  0  0  0
  5  7  1  0  0  0  0
  2  3  1  0  0  0  0
  2  4  1  0  0  0  0
  2  5  1  0  0  0  0
  1  2  1  0  0  0  0
 22 23  2  0  0  0  0
 22 24  1  0  0  0  0
 20 21  1  0  0  0  0
 19 20  1  0  0  0  0
 17 18  1  0  0  0  0
 17 19  2  0  0  0  0
 15 16  1  0  0  0  0
 15 17  1  0  0  0  0
 14 15  1  0  0  0  0
 14 20  2  0  0  0  0
 11 12  1  0  0  0  0
 11 13  1  0  0  0  0
 11 14  1  0  0  0  0
  9 10  1  0  0  0  0
  9 11  1  0  0  0  0
  9 22  1  0  0  0  0
  7  8  1  0  0  0  0
  7  9  1  0  0  0  0
 26 27  1  0  0  0  0
 26 28  1  0  0  0  0
 26 29  1  0  0  0  0
 24 25  1  0  0  0  0
 24 26  1  0  0  0  0
M  END
$$$$
default_name
  -OEChem-02102213163D

 29 29  0     1  0  0  0  0  0999 V2000
   -3.6042   -3.5728    1.4576 H   0  0  0  0  0  0  0  0  0  0  0  0
   -3.5202   -2.6488    0.8866 C   0  0  0  0  0  0  0  0  0  0  0  0
   -4.2052   -1.9048    1.2896 H   0  0  0  0  0  0  0  0  0  0  0  0
   -3.7552   -2.8428   -0.1584 H   0  0  0  0  0  0  0  0  0  0  0  0
   -2.1052   -2.1358    0.9946 C   0  0  0  0  0  0  0  0  0  0  0  0
   -1.2852   -2.7288    1.6826 O   0  0  0  0  0  0  0  0  0  0  0  0
   -1.8202   -1.0288    0.3146 N   0  0  0  0  0  0  0  0  0  0  0  0
   -2.5542   -0.5788   -0.2104 H   0  0  0  0  0  0  0  0  0  0  0  0
   -0.5102   -0.3728    0.3086 C   0  0  1  0  0  0  0  0  0  0  0  0
    0.0719   -0.7468    1.1521 H   0  0  0  0  0  0  0  0  0  0  0  0
    0.2338   -0.7427   -0.9878 C   0  0  0  0  0  0  0  0  0  0  0  0
    1.1544   -1.2708   -0.7332 H   0  0  0  0  0  0  0  0  0  0  0  0
   -0.3897   -1.4193   -1.5751 H   0  0  0  0  0  0  0  0  0  0  0  0
    0.5847    0.4472   -1.8430 C   0  0  0  0  0  0  0  0  0  0  0  0
    0.4220    0.5471   -3.2081 N   0  0  0  0  0  0  0  0  0  0  0  0
    0.1182   -0.1900   -3.8266 H   0  0  0  0  0  0  0  0  0  0  0  0
    0.7445    1.7990   -3.5745 C   0  0  0  0  0  0  0  0  0  0  0  0
    0.7218    2.1801   -4.5881 H   0  0  0  0  0  0  0  0  0  0  0  0
    1.0985    2.5205   -2.5010 N   0  0  0  0  0  0  0  0  0  0  0  0
    1.0050    1.6712   -1.3953 C   0  0  0  0  0  0  0  0  0  0  0  0
    1.1947    1.9410   -0.3644 H   0  0  0  0  0  0  0  0  0  0  0  0
   -0.6600    1.1486    0.4782 C   0  0  0  0  0  0  0  0  0  0  0  0
   -1.5001    1.7648   -0.1771 O   0  0  0  0  0  0  0  0  0  0  0  0
    0.1634    1.7559    1.3418 N   0  0  0  0  0  0  0  0  0  0  0  0
    0.8618    1.1897    1.8008 H   0  0  0  0  0  0  0  0  0  0  0  0
    0.1509    3.1886    1.6256 C   0  0  0  0  0  0  0  0  0  0  0  0
   -0.8272    3.4794    2.0152 H   0  0  0  0  0  0  0  0  0  0  0  0
    0.9172    3.4314    2.3624 H   0  0  0  0  0  0  0  0  0  0  0  0
    0.3414    3.7499    0.7095 H   0  0  0  0  0  0  0  0  0  0  0  0
  5  6  2  0  0  0  0
  5  7  1  0  0  0  0
  2  3  1  0  0  0  0
  2  4  1  0  0  0  0
  2  5  1  0  0  0  0
  1  2  1  0  0  0  0
 22 23  2  0  0  0  0
 22 24  1  0  0  0  0
 20 21  1  0  0  0  0
 19 20  1  0  0  0  0
 17 18  1  0  0  0  0
 17 19  2  0  0  0  0
 15 16  1  0  0  0  0
 15 17  1  0  0  0  0
 14 15  1  0  0  0  0
 14 20  2  0  0  0  0
 11 12  1  0  0  0  0
 11 13  1  0  0  0  0
 11 14  1  0  0  0  0
  9 10  1  0  0  0  0
  9 11  1  0  0  0  0
  9 22  1  0  0  0  0
  7  8  1  0  0  0  0
  7  9  1  0  0  0  0
 26 27  1  0  0  0  0
 26 28  1  0  0  0  0
 26 29  1  0  0  0  0
 24 25  1  0  0  0  0
 24 26  1  0  0  0  0
M  END
$$$$
default_name
  -OEChem-02102213163D

 29 29  0     1  0  0  0  0  0999 V2000
   -3.6042   -3.5728    1.4576 H   0  0  0  0  0  0  0  0  0  0  0  0
   -3.5202   -2.6488    0.8866 C   0  0  0  0  0  0  0  0  0  0  0  0
   -4.2052   -1.9048    1.2896 H   0  0  0  0  0  0  0  0  0  0  0  0
   -3.7552   -2.8428   -0.1584 H   0  0  0  0  0  0  0  0  0  0  0  0
   -2.1052   -2.1358    0.9946 C   0  0  0  0  0  0  0  0  0  0  0  0
   -1.2852   -2.7288    1.6826 O   0  0  0  0  0  0  0  0  0  0  0  0
   -1.8202   -1.0288    0.3146 N   0  0  0  0  0  0  0  0  0  0  0  0
   -2.5542   -0.5788   -0.2104 H   0  0  0  0  0  0  0  0  0  0  0  0
   -0.5102   -0.3728    0.3086 C   0  0  1  0  0  0  0  0  0  0  0  0
    0.0719   -0.7468    1.1521 H   0  0  0  0  0  0  0  0  0  0  0  0
    0.2338   -0.7427   -0.9878 C   0  0  0  0  0  0  0  0  0  0  0  0
    1.1544   -1.2708   -0.7332 H   0  0  0  0  0  0  0  0  0  0  0  0
   -0.3897   -1.4193   -1.5751 H   0  0  0  0  0  0  0  0  0  0  0  0
    0.5847    0.4472   -1.8430 C   0  0  0  0  0  0  0  0  0  0  0  0
    0.1697    0.6718   -3.1381 N   0  0  0  0  0  0  0  0  0  0  0  0
   -0.3609    0.0336   -3.7120 H   0  0  0  0  0  0  0  0  0  0  0  0
    0.6002    1.8900   -3.5070 C   0  0  0  0  0  0  0  0  0  0  0  0
    0.4340    2.3460   -4.4754 H   0  0  0  0  0  0  0  0  0  0  0  0
    1.2679    2.4713   -2.4998 N   0  0  0  0  0  0  0  0  0  0  0  0
    1.2684    1.5626   -1.4383 C   0  0  0  0  0  0  0  0  0  0  0  0
    1.6994    1.7244   -0.4588 H   0  0  0  0  0  0  0  0  0  0  0  0
   -0.6600    1.1486    0.4782 C   0  0  0  0  0  0  0  0  0  0  0  0
   -1.5001    1.7648   -0.1771 O   0  0  0  0  0  0  0  0  0  0  0  0
    0.1634    1.7559    1.3418 N   0  0  0  0  0  0  0  0  0  0  0  0
    0.8618    1.1897    1.8008 H   0  0  0  0  0  0  0  0  0  0  0  0
    0.1509    3.1886    1.6256 C   0  0  0  0  0  0  0  0  0  0  0  0
   -0.8272    3.4794    2.0152 H   0  0  0  0  0  0  0  0  0  0  0  0
    0.9172    3.4314    2.3624 H   0  0  0  0  0  0  0  0  0  0  0  0
    0.3414    3.7499    0.7095 H   0  0  0  0  0  0  0  0  0  0  0  0
  5  6  2  0  0  0  0
  5  7  1  0  0  0  0
  2  3  1  0  0  0  0
  2  4  1  0  0  0  0
  2  5  1  0  0  0  0
  1  2  1  0  0  0  0
 22 23  2  0  0  0  0
 22 24  1  0  0  0  0
 20 21  1  0  0  0  0
 19 20  1  0  0  0  0
 17 18  1  0  0  0  0
 17 19  2  0  0  0  0
 15 16  1  0  0  0  0
 15 17  1  0  0  0  0
 14 15  1  0  0  0  0
 14 20  2  0  0  0  0
 11 12  1  0  0  0  0
 11 13  1  0  0  0  0
 11 14  1  0  0  0  0
  9 10  1  0  0  0  0
  9 11  1  0  0  0  0
  9 22  1  0  0  0  0
  7  8  1  0  0  0  0
  7  9  1  0  0  0  0
 26 27  1  0  0  0  0
 26 28  1  0  0  0  0
 26 29  1  0  0  0  0
 24 25  1  0  0  0  0
 24 26  1  0  0  0  0
M  END
$$$$
default_name
  -OEChem-02102213163D

 29 29  0     1  0  0  0  0  0999 V2000
   -3.6042   -3.5728    1.4576 H   0  0  0  0  0  0  0  0  0  0  0  0
   -3.5202   -2.6488    0.8866 C   0  0  0  0  0  0  0  0  0  0  0  0
   -4.2052   -1.9048    1.2896 H   0  0  0  0  0  0  0  0  0  0  0  0
   -3.7552   -2.8428   -0.1584 H   0  0  0  0  0  0  0  0  0  0  0  0
   -2.1052   -2.1358    0.9946 C   0  0  0  0  0  0  0  0  0  0  0  0
   -1.2852   -2.7288    1.6826 O   0  0  0  0  0  0  0  0  0  0  0  0
   -1.8202   -1.0288    0.3146 N   0  0  0  0  0  0  0  0  0  0  0  0
   -2.5542   -0.5788   -0.2104 H   0  0  0  0  0  0  0  0  0  0  0  0
   -0.5102   -0.3728    0.3086 C   0  0  1  0  0  0  0  0  0  0  0  0
    0.0719   -0.7468    1.1521 H   0  0  0  0  0  0  0  0  0  0  0  0
    0.2338   -0.7427   -0.9878 C   0  0  0  0  0  0  0  0  0  0  0  0
    1.1544   -1.2708   -0.7332 H   0  0  0  0  0  0  0  0  0  0  0  0
   -0.3897   -1.4193   -1.5751 H   0  0  0  0  0  0  0  0  0  0  0  0
    0.5847    0.4472   -1.8430 C   0  0  0  0  0  0  0  0  0  0  0  0
   -0.0414    0.8252   -3.0113 N   0  0  0  0  0  0  0  0  0  0  0  0
   -0.7674    0.3131   -3.4899 H   0  0  0  0  0  0  0  0  0  0  0  0
    0.4881    1.9950   -3.4069 C   0  0  0  0  0  0  0  0  0  0  0  0
    0.2035    2.5417   -4.2976 H   0  0  0  0  0  0  0  0  0  0  0  0
    1.4246    2.3989   -2.5362 N   0  0  0  0  0  0  0  0  0  0  0  0
    1.4981    1.4216   -1.5403 C   0  0  0  0  0  0  0  0  0  0  0  0
    2.1358    1.4467   -0.6661 H   0  0  0  0  0  0  0  0  0  0  0  0
   -0.6600    1.1486    0.4782 C   0  0  0  0  0  0  0  0  0  0  0  0
   -1.5001    1.7648   -0.1771 O   0  0  0  0  0  0  0  0  0  0  0  0
    0.1634    1.7559    1.3418 N   0  0  0  0  0  0  0  0  0  0  0  0
    0.8618    1.1897    1.8008 H   0  0  0  0  0  0  0  0  0  0  0  0
    0.1509    3.1886    1.6256 C   0  0  0  0  0  0  0  0  0  0  0  0
   -0.8272    3.4794    2.0152 H   0  0  0  0  0  0  0  0  0  0  0  0
    0.9172    3.4314    2.3624 H   0  0  0  0  0  0  0  0  0  0  0  0
    0.3414    3.7499    0.7095 H   0  0  0  0  0  0  0  0  0  0  0  0
  5  6  2  0  0  0  0
  5  7  1  0  0  0  0
  2  3  1  0  0  0  0
  2  4  1  0  0  0  0
  2  5  1  0  0  0  0
  1  2  1  0  0  0  0
 22 23  2  0  0  0  0
 22 24  1  0  0  0  0
 20 21  1  0  0  0  0
 19 20  1  0  0  0  0
 17 18  1  0  0  0  0
 17 19  2  0  0  0  0
 15 16  1  0  0  0  0
 15 17  1  0  0  0  0
 14 15  1  0  0  0  0
 14 20  2  0  0  0  0
 11 12  1  0  0  0  0
 11 13  1  0  0  0  0
 11 14  1  0  0  0  0
  9 10  1  0  0  0  0
  9 11  1  0  0  0  0
  9 22  1  0  0  0  0
  7  8  1  0  0  0  0
  7  9  1  0  0  0  0
 26 27  1  0  0  0  0
 26 28  1  0  0  0  0
 26 29  1  0  0  0  0
 24 25  1  0  0  0  0
 24 26  1  0  0  0  0
M  END
$$$$
default_name
  -OEChem-02102213163D

 29 29  0     1  0  0  0  0  0999 V2000
   -3.6042   -3.5728    1.4576 H   0  0  0  0  0  0  0  0  0  0  0  0
   -3.5202   -2.6488    0.8866 C   0  0  0  0  0  0  0  0  0  0  0  0
   -4.2052   -1.9048    1.2896 H   0  0  0  0  0  0  0  0  0  0  0  0
   -3.7552   -2.8428   -0.1584 H   0  0  0  0  0  0  0  0  0  0  0  0
   -2.1052   -2.1358    0.9946 C   0  0  0  0  0  0  0  0  0  0  0  0
   -1.2852   -2.7288    1.6826 O   0  0  0  0  0  0  0  0  0  0  0  0
   -1.8202   -1.0288    0.3146 N   0  0  0  0  0  0  0  0  0  0  0  0
   -2.5542   -0.5788   -0.2104 H   0  0  0  0  0  0  0  0  0  0  0  0
   -0.5102   -0.3728    0.3086 C   0  0  1  0  0  0  0  0  0  0  0  0
    0.0719   -0.7468    1.1521 H   0  0  0  0  0  0  0  0  0  0  0  0
    0.2338   -0.7427   -0.9878 C   0  0  0  0  0  0  0  0  0  0  0  0
    1.1544   -1.2708   -0.7332 H   0  0  0  0  0  0  0  0  0  0  0  0
   -0.3897   -1.4193   -1.5751 H   0  0  0  0  0  0  0  0  0  0  0  0
    0.5847    0.4472   -1.8430 C   0  0  0  0  0  0  0  0  0  0  0  0
   -0.1969    0.9966   -2.8365 N   0  0  0  0  0  0  0  0  0  0  0  0
   -1.0735    0.6294   -3.1754 H   0  0  0  0  0  0  0  0  0  0  0  0
    0.4156    2.1069   -3.2809 C   0  0  0  0  0  0  0  0  0  0  0  0
    0.0459    2.7539   -4.0670 H   0  0  0  0  0  0  0  0  0  0  0  0
    1.5579    2.3082   -2.6078 N   0  0  0  0  0  0  0  0  0  0  0  0
    1.6784    1.2578   -1.6942 C   0  0  0  0  0  0  0  0  0  0  0  0
    2.4741    1.1269   -0.9724 H   0  0  0  0  0  0  0  0  0  0  0  0
   -0.6600    1.1486    0.4782 C   0  0  0  0  0  0  0  0  0  0  0  0
   -1.5001    1.7648   -0.1771 O   0  0  0  0  0  0  0  0  0  0  0  0
    0.1634    1.7559    1.3418 N   0  0  0  0  0  0  0  0  0  0  0  0
    0.8618    1.1897    1.8008 H   0  0  0  0  0  0  0  0  0  0  0  0
    0.1509    3.1886    1.6256 C   0  0  0  0  0  0  0  0  0  0  0  0
   -0.8272    3.4794    2.0152 H   0  0  0  0  0  0  0  0  0  0  0  0
    0.9172    3.4314    2.3624 H   0  0  0  0  0  0  0  0  0  0  0  0
    0.3414    3.7499    0.7095 H   0  0  0  0  0  0  0  0  0  0  0  0
  5  6  2  0  0  0  0
  5  7  1  0  0  0  0
  2  3  1  0  0  0  0
  2  4  1  0  0  0  0
  2  5  1  0  0  0  0
  1  2  1  0  0  0  0
 22 23  2  0  0  0  0
 22 24  1  0  0  0  0
 20 21  1  0  0  0  0
 19 20  1  0  0  0  0
 17 18  1  0  0  0  0
 17 19  2  0  0  0  0
 15 16  1  0  0  0  0
 15 17  1  0  0  0  0
 14 15  1  0  0  0  0
 14 20  2  0  0  0  0
 11 12  1  0  0  0  0
 11 13  1  0  0  0  0
 11 14  1  0  0  0  0
  9 10  1  0  0  0  0
  9 11  1  0  0  0  0
  9 22  1  0  0  0  0
  7  8  1  0  0  0  0
  7  9  1  0  0  0  0
 26 27  1  0  0  0  0
 26 28  1  0  0  0  0
 26 29  1  0  0  0  0
 24 25  1  0  0  0  0
 24 26  1  0  0  0  0
M  END
$$$$
default_name
  -OEChem-02102213163D

 29 29  0     1  0  0  0  0  0999 V2000
   -3.6042   -3.5728    1.4576 H   0  0  0  0  0  0  0  0  0  0  0  0
   -3.5202   -2.6488    0.8866 C   0  0  0  0  0  0  0  0  0  0  0  0
   -4.2052   -1.9048    1.2896 H   0  0  0  0  0  0  0  0  0  0  0  0
   -3.7552   -2.8428   -0.1584 H   0  0  0  0  0  0  0  0  0  0  0  0
   -2.1052   -2.1358    0.9946 C   0  0  0  0  0  0  0  0  0  0  0  0
   -1.2852   -2.7288    1.6826 O   0  0  0  0  0  0  0  0  0  0  0  0
   -1.8202   -1.0288    0.3146 N   0  0  0  0  0  0  0  0  0  0  0  0
   -2.5542   -0.5788   -0.2104 H   0  0  0  0  0  0  0  0  0  0  0  0
   -0.5102   -0.3728    0.3086 C   0  0  1  0  0  0  0  0  0  0  0  0
    0.0719   -0.7468    1.1521 H   0  0  0  0  0  0  0  0  0  0  0  0
    0.2338   -0.7427   -0.9878 C   0  0  0  0  0  0  0  0  0  0  0  0
    1.1544   -1.2708   -0.7332 H   0  0  0  0  0  0  0  0  0  0  0  0
   -0.3897   -1.4193   -1.5751 H   0  0  0  0  0  0  0  0  0  0  0  0
    0.5847    0.4472   -1.8430 C   0  0  0  0  0  0  0  0  0  0  0  0
   -0.2862    1.1746   -2.6256 N   0  0  0  0  0  0  0  0  0  0  0  0
   -1.2585    0.9609   -2.7900 H   0  0  0  0  0  0  0  0  0  0  0  0
    0.3878    2.2180   -3.1377 C   0  0  0  0  0  0  0  0  0  0  0  0
   -0.0281    2.9681   -3.7993 H   0  0  0  0  0  0  0  0  0  0  0  0
    1.6587    2.2052   -2.7097 N   0  0  0  0  0  0  0  0  0  0  0  0
    1.7970    1.0824   -1.8897 C   0  0  0  0  0  0  0  0  0  0  0  0
    2.6913    0.7867   -1.3566 H   0  0  0  0  0  0  0  0  0  0  0  0
   -0.6600    1.1486    0.4782 C   0  0  0  0  0  0  0  0  0  0  0  0
   -1.5001    1.7648   -0.1771 O   0  0  0  0  0  0  0  0  0  0  0  0
    0.1634    1.7559    1.3418 N   0  0  0  0  0  0  0  0  0  0  0  0
    0.8618    1.1897    1.8008 H   0  0  0  0  0  0  0  0  0  0  0  0
    0.1509    3.1886    1.6256 C   0  0  0  0  0  0  0  0  0  0  0  0
   -0.8272    3.4794    2.0152 H   0  0  0  0  0  0  0  0  0  0  0  0
    0.9172    3.4314    2.3624 H   0  0  0  0  0  0  0  0  0  0  0  0
    0.3414    3.7499    0.7095 H   0  0  0  0  0  0  0  0  0  0  0  0
  5  6  2  0  0  0  0
  5  7  1  0  0  0  0
  2  3  1  0  0  0  0
  2  4  1  0  0  0  0
  2  5  1  0  0  0  0
  1  2  1  0  0  0  0
 22 23  2  0  0  0  0
 22 24  1  0  0  0  0
 20 21  1  0  0  0  0
 19 20  1  0  0  0  0
 17 18  1  0  0  0  0
 17 19  2  0  0  0  0
 15 16  1  0  0  0  0
 15 17  1  0  0  0  0
 14 15  1  0  0  0  0
 14 20  2  0  0  0  0
 11 12  1  0  0  0  0
 11 13  1  0  0  0  0
 11 14  1  0  0  0  0
  9 10  1  0  0  0  0
  9 11  1  0  0  0  0
  9 22  1  0  0  0  0
  7  8  1  0  0  0  0
  7  9  1  0  0  0  0
 26 27  1  0  0  0  0
 26 28  1  0  0  0  0
 26 29  1  0  0  0  0
 24 25  1  0  0  0  0
 24 26  1  0  0  0  0
M  END
$$$$
default_name
  -OEChem-02102213163D

 29 29  0     1  0  0  0  0  0999 V2000
   -3.6042   -3.5728    1.4576 H   0  0  0  0  0  0  0  0  0  0  0  0
   -3.5202   -2.6488    0.8866 C   0  0  0  0  0  0  0  0  0  0  0  0
   -4.2052   -1.9048    1.2896 H   0  0  0  0  0  0  0  0  0  0  0  0
   -3.7552   -2.8428   -0.1584 H   0  0  0  0  0  0  0  0  0  0  0  0
   -2.1052   -2.1358    0.9946 C   0  0  0  0  0  0  0  0  0  0  0  0
   -1.2852   -2.7288    1.6826 O   0  0  0  0  0  0  0  0  0  0  0  0
   -1.8202   -1.0288    0.3146 N   0  0  0  0  0  0  0  0  0  0  0  0
   -2.5542   -0.5788   -0.2104 H   0  0  0  0  0  0  0  0  0  0  0  0
   -0.5102   -0.3728    0.3086 C   0  0  1  0  0  0  0  0  0  0  0  0
    0.0719   -0.7468    1.1521 H   0  0  0  0  0  0  0  0  0  0  0  0
    0.2338   -0.7427   -0.9878 C   0  0  0  0  0  0  0  0  0  0  0  0
    1.1544   -1.2708   -0.7332 H   0  0  0  0  0  0  0  0  0  0  0  0
   -0.3897   -1.4193   -1.5751 H   0  0  0  0  0  0  0  0  0  0  0  0
    0.5847    0.4472   -1.8430 C   0  0  0  0  0  0  0  0  0  0  0  0
   -0.3032    1.3468   -2.3928 N   0  0  0  0  0  0  0  0  0  0  0  0
   -1.3098    1.2850   -2.3600 H   0  0  0  0  0  0  0  0  0  0  0  0
    0.4066    2.3208   -2.9870 C   0  0  0  0  0  0  0  0  0  0  0  0
   -0.0133    3.1697   -3.5127 H   0  0  0  0  0  0  0  0  0  0  0  0
    1.7200    2.0971   -2.8349 N   0  0  0  0  0  0  0  0  0  0  0  0
    1.8459    0.9073   -2.1133 C   0  0  0  0  0  0  0  0  0  0  0  0
    2.7727    0.4493   -1.7926 H   0  0  0  0  0  0  0  0  0  0  0  0
   -0.6600    1.1486    0.4782 C   0  0  0  0  0  0  0  0  0  0  0  0
   -1.5001    1.7648   -0.1771 O   0  0  0  0  0  0  0  0  0  0  0  0
    0.1634    1.7559    1.3418 N   0  0  0  0  0  0  0  0  0  0  0  0
    0.8618    1.1897    1.8008 H   0  0  0  0  0  0  0  0  0  0  0  0
    0.1509    3.1886    1.6256 C   0  0  0  0  0  0  0  0  0  0  0  0
   -0.8272    3.4794    2.0152 H   0  0  0  0  0  0  0  0  0  0  0  0
    0.9172    3.4314    2.3624 H   0  0  0  0  0  0  0  0  0  0  0  0
    0.3414    3.7499    0.7095 H   0  0  0  0  0  0  0  0  0  0  0  0
  5  6  2  0  0  0  0
  5  7  1  0  0  0  0
  2  3  1  0  0  0  0
  2  4  1  0  0  0  0
  2  5  1  0  0  0  0
  1  2  1  0  0  0  0
 22 23  2  0  0  0  0
 22 24  1  0  0  0  0
 20 21  1  0  0  0  0
 19 20  1  0  0  0  0
 17 18  1  0  0  0  0
 17 19  2  0  0  0  0
 15 16  1  0  0  0  0
 15 17  1  0  0  0  0
 14 15  1  0  0  0  0
 14 20  2  0  0  0  0
 11 12  1  0  0  0  0
 11 13  1  0  0  0  0
 11 14  1  0  0  0  0
  9 10  1  0  0  0  0
  9 11  1  0  0  0  0
  9 22  1  0  0  0  0
  7  8  1  0  0  0  0
  7  9  1  0  0  0  0
 26 27  1  0  0  0  0
 26 28  1  0  0  0  0
 26 29  1  0  0  0  0
 24 25  1  0  0  0  0
 24 26  1  0  0  0  0
M  END
$$$$
default_name
  -OEChem-02102213163D

 29 29  0     1  0  0  0  0  0999 V2000
   -3.6042   -3.5728    1.4576 H   0  0  0  0  0  0  0  0  0  0  0  0
   -3.5202   -2.6488    0.8866 C   0  0  0  0  0  0  0  0  0  0  0  0
   -4.2052   -1.9048    1.2896 H   0  0  0  0  0  0  0  0  0  0  0  0
   -3.7552   -2.8428   -0.1584 H   0  0  0  0  0  0  0  0  0  0  0  0
   -2.1052   -2.1358    0.9946 C   0  0  0  0  0  0  0  0  0  0  0  0
   -1.2852   -2.7288    1.6826 O   0  0  0  0  0  0  0  0  0  0  0  0
   -1.8202   -1.0288    0.3146 N   0  0  0  0  0  0  0  0  0  0  0  0
   -2.5542   -0.5788   -0.2104 H   0  0  0  0  0  0  0  0  0  0  0  0
   -0.5102   -0.3728    0.3086 C   0  0  1  0  0  0  0  0  0  0  0  0
    0.0719   -0.7468    1.1521 H   0  0  0  0  0  0  0  0  0  0  0  0
    0.2338   -0.7427   -0.9878 C   0  0  0  0  0  0  0  0  0  0  0  0
    1.1544   -1.2708   -0.7332 H   0  0  0  0  0  0  0  0  0  0  0  0
   -0.3897   -1.4193   -1.5751 H   0  0  0  0  0  0  0  0  0  0  0  0
    0.5847    0.4472   -1.8430 C   0  0  0  0  0  0  0  0  0  0  0  0
   -0.2467    1.5017   -2.1542 N   0  0  0  0  0  0  0  0  0  0  0  0
   -1.2237    1.5798   -1.9146 H   0  0  0  0  0  0  0  0  0  0  0  0
    0.4706    2.4083   -2.8390 C   0  0  0  0  0  0  0  0  0  0  0  0
    0.0892    3.3450   -3.2266 H   0  0  0  0  0  0  0  0  0  0  0  0
    1.7379    1.9913   -2.9749 N   0  0  0  0  0  0  0  0  0  0  0  0
    1.8217    0.7444   -2.3498 C   0  0  0  0  0  0  0  0  0  0  0  0
    2.7126    0.1378   -2.2507 H   0  0  0  0  0  0  0  0  0  0  0  0
   -0.6600    1.1486    0.4782 C   0  0  0  0  0  0  0  0  0  0  0  0
   -1.5001    1.7648   -0.1771 O   0  0  0  0  0  0  0  0  0  0  0  0
    0.1634    1.7559    1.3418 N   0  0  0  0  0  0  0  0  0  0  0  0
    0.8618    1.1897    1.8008 H   0  0  0  0  0  0  0  0  0  0  0  0
    0.1509    3.1886    1.6256 C   0  0  0  0  0  0  0  0  0  0  0  0
   -0.8272    3.4794    2.0152 H   0  0  0  0  0  0  0  0  0  0  0  0
    0.9172    3.4314    2.3624 H   0  0  0  0  0  0  0  0  0  0  0  0
    0.3414    3.7499    0.7095 H   0  0  0  0  0  0  0  0  0  0  0  0
  5  6  2  0  0  0  0
  5  7  1  0  0  0  0
  2  3  1  0  0  0  0
  2  4  1  0  0  0  0
  2  5  1  0  0  0  0
  1  2  1  0  0  0  0
 22 23  2  0  0  0  0
 22 24  1  0  0  0  0
 20 21  1  0  0  0  0
 19 20  1  0  0  0  0
 17 18  1  0  0  0  0
 17 19  2  0  0  0  0
 15 16  1  0  0  0  0
 15 17  1  0  0  0  0
 14 15  1  0  0  0  0
 14 20  2  0  0  0  0
 11 12  1  0  0  0  0
 11 13  1  0  0  0  0
 11 14  1  0  0  0  0
  9 10  1  0  0  0  0
  9 11  1  0  0  0  0
  9 22  1  0  0  0  0
  7  8  1  0  0  0  0
  7  9  1  0  0  0  0
 26 27  1  0  0  0  0
 26 28  1  0  0  0  0
 26 29  1  0  0  0  0
 24 25  1  0  0  0  0
 24 26  1  0  0  0  0
M  END
$$$$
default_name
  -OEChem-02102213163D

 29 29  0     1  0  0  0  0  0999 V2000
   -3.6042   -3.5728    1.4576 H   0  0  0  0  0  0  0  0  0  0  0  0
   -3.5202   -2.6488    0.8866 C   0  0  0  0  0  0  0  0  0  0  0  0
   -4.2052   -1.9048    1.2896 H   0  0  0  0  0  0  0  0  0  0  0  0
   -3.7552   -2.8428   -0.1584 H   0  0  0  0  0  0  0  0  0  0  0  0
   -2.1052   -2.1358    0.9946 C   0  0  0  0  0  0  0  0  0  0  0  0
   -1.2852   -2.7288    1.6826 O   0  0  0  0  0  0  0  0  0  0  0  0
   -1.8202   -1.0288    0.3146 N   0  0  0  0  0  0  0  0  0  0  0  0
   -2.5542   -0.5788   -0.2104 H   0  0  0  0  0  0  0  0  0  0  0  0
   -0.5102   -0.3728    0.3086 C   0  0  1  0  0  0  0  0  0  0  0  0
    0.0719   -0.7468    1.1521 H   0  0  0  0  0  0  0  0  0  0  0  0
    0.2338   -0.7427   -0.9878 C   0  0  0  0  0  0  0  0  0  0  0  0
    1.1544   -1.2708   -0.7332 H   0  0  0  0  0  0  0  0  0  0  0  0
   -0.3897   -1.4193   -1.5751 H   0  0  0  0  0  0  0  0  0  0  0  0
    0.5847    0.4472   -1.8430 C   0  0  0  0  0  0  0  0  0  0  0  0
   -0.1206    1.6286   -1.9259 N   0  0  0  0  0  0  0  0  0  0  0  0
   -1.0063    1.8250   -1.4842 H   0  0  0  0  0  0  0  0  0  0  0  0
    0.5755    2.4744   -2.7039 C   0  0  0  0  0  0  0  0  0  0  0  0
    0.2724    3.4821   -2.9608 H   0  0  0  0  0  0  0  0  0  0  0  0
    1.7109    1.8948   -3.1202 N   0  0  0  0  0  0  0  0  0  0  0  0
    1.7260    0.6050   -2.5831 C   0  0  0  0  0  0  0  0  0  0  0  0
    2.5151   -0.1266   -2.6998 H   0  0  0  0  0  0  0  0  0  0  0  0
   -0.6600    1.1486    0.4782 C   0  0  0  0  0  0  0  0  0  0  0  0
   -1.5001    1.7648   -0.1771 O   0  0  0  0  0  0  0  0  0  0  0  0
    0.1634    1.7559    1.3418 N   0  0  0  0  0  0  0  0  0  0  0  0
    0.8618    1.1897    1.8008 H   0  0  0  0  0  0  0  0  0  0  0  0
    0.1509    3.1886    1.6256 C   0  0  0  0  0  0  0  0  0  0  0  0
   -0.8272    3.4794    2.0152 H   0  0  0  0  0  0  0  0  0  0  0  0
    0.9172    3.4314    2.3624 H   0  0  0  0  0  0  0  0  0  0  0  0
    0.3414    3.7499    0.7095 H   0  0  0  0  0  0  0  0  0  0  0  0
  5  6  2  0  0  0  0
  5  7  1  0  0  0  0
  2  3  1  0  0  0  0
  2  4  1  0  0  0  0
  2  5  1  0  0  0  0
  1  2  1  0  0  0  0
 22 23  2  0  0  0  0
 22 24  1  0  0  0  0
 20 21  1  0  0  0  0
 19 20  1  0  0  0  0
 17 18  1  0  0  0  0
 17 19  2  0  0  0  0
 15 16  1  0  0  0  0
 15 17  1  0  0  0  0
 14 15  1  0  0  0  0
 14 20  2  0  0  0  0
 11 12  1  0  0  0  0
 11 13  1  0  0  0  0
 11 14  1  0  0  0  0
  9 10  1  0  0  0  0
  9 11  1  0  0  0  0
  9 22  1  0  0  0  0
  7  8  1  0  0  0  0
  7  9  1  0  0  0  0
 26 27  1  0  0  0  0
 26 28  1  0  0  0  0
 26 29  1  0  0  0  0
 24 25  1  0  0  0  0
 24 26  1  0  0  0  0
M  END
$$$$
default_name
  -OEChem-02102213163D

 29 29  0     1  0  0  0  0  0999 V2000
   -3.6042   -3.5728    1.4576 H   0  0  0  0  0  0  0  0  0  0  0  0
   -3.5202   -2.6488    0.8866 C   0  0  0  0  0  0  0  0  0  0  0  0
   -4.2052   -1.9048    1.2896 H   0  0  0  0  0  0  0  0  0  0  0  0
   -3.7552   -2.8428   -0.1584 H   0  0  0  0  0  0  0  0  0  0  0  0
   -2.1052   -2.1358    0.9946 C   0  0  0  0  0  0  0  0  0  0  0  0
   -1.2852   -2.7288    1.6826 O   0  0  0  0  0  0  0  0  0  0  0  0
   -1.8202   -1.0288    0.3146 N   0  0  0  0  0  0  0  0  0  0  0  0
   -2.5542   -0.5788   -0.2104 H   0  0  0  0  0  0  0  0  0  0  0  0
   -0.5102   -0.3728    0.3086 C   0  0  1  0  0  0  0  0  0  0  0  0
    0.0719   -0.7468    1.1521 H   0  0  0  0  0  0  0  0  0  0  0  0
    0.2338   -0.7427   -0.9878 C   0  0  0  0  0  0  0  0  0  0  0  0
    1.1544   -1.2708   -0.7332 H   0  0  0  0  0  0  0  0  0  0  0  0
   -0.3897   -1.4193   -1.5751 H   0  0  0  0  0  0  0  0  0  0  0  0
    0.5847    0.4472   -1.8430 C   0  0  0  0  0  0  0  0  0  0  0  0
    0.0665    1.7189   -1.7234 N   0  0  0  0  0  0  0  0  0  0  0  0
   -0.6723    2.0039   -1.0981 H   0  0  0  0  0  0  0  0  0  0  0  0
    0.7142    2.5148   -2.5909 C   0  0  0  0  0  0  0  0  0  0  0  0
    0.5239    3.5715   -2.7331 H   0  0  0  0  0  0  0  0  0  0  0  0
    1.6410    1.8144   -3.2608 N   0  0  0  0  0  0  0  0  0  0  0  0
    1.5655    0.4983   -2.7973 C   0  0  0  0  0  0  0  0  0  0  0  0
    2.1937   -0.3260   -3.1090 H   0  0  0  0  0  0  0  0  0  0  0  0
   -0.6600    1.1486    0.4782 C   0  0  0  0  0  0  0  0  0  0  0  0
   -1.5001    1.7648   -0.1771 O   0  0  0  0  0  0  0  0  0  0  0  0
    0.1634    1.7559    1.3418 N   0  0  0  0  0  0  0  0  0  0  0  0
    0.8618    1.1897    1.8008 H   0  0  0  0  0  0  0  0  0  0  0  0
    0.1509    3.1886    1.6256 C   0  0  0  0  0  0  0  0  0  0  0  0
   -0.8272    3.4794    2.0152 H   0  0  0  0  0  0  0  0  0  0  0  0
    0.9172    3.4314    2.3624 H   0  0  0  0  0  0  0  0  0  0  0  0
    0.3414    3.7499    0.7095 H   0  0  0  0  0  0  0  0  0  0  0  0
  5  6  2  0  0  0  0
  5  7  1  0  0  0  0
  2  3  1  0  0  0  0
  2  4  1  0  0  0  0
  2  5  1  0  0  0  0
  1  2  1  0  0  0  0
 22 23  2  0  0  0  0
 22 24  1  0  0  0  0
 20 21  1  0  0  0  0
 19 20  1  0  0  0  0
 17 18  1  0  0  0  0
 17 19  2  0  0  0  0
 15 16  1  0  0  0  0
 15 17  1  0  0  0  0
 14 15  1  0  0  0  0
 14 20  2  0  0  0  0
 11 12  1  0  0  0  0
 11 13  1  0  0  0  0
 11 14  1  0  0  0  0
  9 10  1  0  0  0  0
  9 11  1  0  0  0  0
  9 22  1  0  0  0  0
  7  8  1  0  0  0  0
  7  9  1  0  0  0  0
 26 27  1  0  0  0  0
 26 28  1  0  0  0  0
 26 29  1  0  0  0  0
 24 25  1  0  0  0  0
 24 26  1  0  0  0  0
M  END
$$$$
default_name
  -OEChem-02102213163D

 29 29  0     1  0  0  0  0  0999 V2000
   -3.6042   -3.5728    1.4576 H   0  0  0  0  0  0  0  0  0  0  0  0
   -3.5202   -2.6488    0.8866 C   0  0  0  0  0  0  0  0  0  0  0  0
   -4.2052   -1.9048    1.2896 H   0  0  0  0  0  0  0  0  0  0  0  0
   -3.7552   -2.8428   -0.1584 H   0  0  0  0  0  0  0  0  0  0  0  0
   -2.1052   -2.1358    0.9946 C   0  0  0  0  0  0  0  0  0  0  0  0
   -1.2852   -2.7288    1.6826 O   0  0  0  0  0  0  0  0  0  0  0  0
   -1.8202   -1.0288    0.3146 N   0  0  0  0  0  0  0  0  0  0  0  0
   -2.5542   -0.5788   -0.2104 H   0  0  0  0  0  0  0  0  0  0  0  0
   -0.5102   -0.3728    0.3086 C   0  0  1  0  0  0  0  0  0  0  0  0
    0.0719   -0.7468    1.1521 H   0  0  0  0  0  0  0  0  0  0  0  0
    0.2338   -0.7427   -0.9878 C   0  0  0  0  0  0  0  0  0  0  0  0
    1.1544   -1.2708   -0.7332 H   0  0  0  0  0  0  0  0  0  0  0  0
   -0.3897   -1.4193   -1.5751 H   0  0  0  0  0  0  0  0  0  0  0  0
    0.5847    0.4472   -1.8430 C   0  0  0  0  0  0  0  0  0  0  0  0
    0.3019    1.7664   -1.5607 N   0  0  0  0  0  0  0  0  0  0  0  0
   -0.2445    2.1045   -0.7827 H   0  0  0  0  0  0  0  0  0  0  0  0
    0.8772    2.5265   -2.5076 C   0  0  0  0  0  0  0  0  0  0  0  0
    0.8264    3.6073   -2.5593 H   0  0  0  0  0  0  0  0  0  0  0  0
    1.5330    1.7554   -3.3872 N   0  0  0  0  0  0  0  0  0  0  0  0
    1.3509    0.4319   -2.9779 C   0  0  0  0  0  0  0  0  0  0  0  0
    1.7704   -0.4467   -3.4507 H   0  0  0  0  0  0  0  0  0  0  0  0
   -0.6600    1.1486    0.4782 C   0  0  0  0  0  0  0  0  0  0  0  0
   -1.5001    1.7648   -0.1771 O   0  0  0  0  0  0  0  0  0  0  0  0
    0.1634    1.7559    1.3418 N   0  0  0  0  0  0  0  0  0  0  0  0
    0.8618    1.1897    1.8008 H   0  0  0  0  0  0  0  0  0  0  0  0
    0.1509    3.1886    1.6256 C   0  0  0  0  0  0  0  0  0  0  0  0
   -0.8272    3.4794    2.0152 H   0  0  0  0  0  0  0  0  0  0  0  0
    0.9172    3.4314    2.3624 H   0  0  0  0  0  0  0  0  0  0  0  0
    0.3414    3.7499    0.7095 H   0  0  0  0  0  0  0  0  0  0  0  0
  5  6  2  0  0  0  0
  5  7  1  0  0  0  0
  2  3  1  0  0  0  0
  2  4  1  0  0  0  0
  2  5  1  0  0  0  0
  1  2  1  0  0  0  0
 22 23  2  0  0  0  0
 22 24  1  0  0  0  0
 20 21  1  0  0  0  0
 19 20  1  0  0  0  0
 17 18  1  0  0  0  0
 17 19  2  0  0  0  0
 15 16  1  0  0  0  0
 15 17  1  0  0  0  0
 14 15  1  0  0  0  0
 14 20  2  0  0  0  0
 11 12  1  0  0  0  0
 11 13  1  0  0  0  0
 11 14  1  0  0  0  0
  9 10  1  0  0  0  0
  9 11  1  0  0  0  0
  9 22  1  0  0  0  0
  7  8  1  0  0  0  0
  7  9  1  0  0  0  0
 26 27  1  0  0  0  0
 26 28  1  0  0  0  0
 26 29  1  0  0  0  0
 24 25  1  0  0  0  0
 24 26  1  0  0  0  0
M  END
$$$$
default_name
  -OEChem-02102213163D

 29 29  0     1  0  0  0  0  0999 V2000
   -3.6042   -3.5728    1.4576 H   0  0  0  0  0  0  0  0  0  0  0  0
   -3.5202   -2.6488    0.8866 C   0  0  0  0  0  0  0  0  0  0  0  0
   -4.2052   -1.9048    1.2896 H   0  0  0  0  0  0  0  0  0  0  0  0
   -3.7552   -2.8428   -0.1584 H   0  0  0  0  0  0  0  0  0  0  0  0
   -2.1052   -2.1358    0.9946 C   0  0  0  0  0  0  0  0  0  0  0  0
   -1.2852   -2.7288    1.6826 O   0  0  0  0  0  0  0  0  0  0  0  0
   -1.8202   -1.0288    0.3146 N   0  0  0  0  0  0  0  0  0  0  0  0
   -2.5542   -0.5788   -0.2104 H   0  0  0  0  0  0  0  0  0  0  0  0
   -0.5102   -0.3728    0.3086 C   0  0  1  0  0  0  0  0  0  0  0  0
    0.0719   -0.7468    1.1521 H   0  0  0  0  0  0  0  0  0  0  0  0
    0.2338   -0.7427   -0.9878 C   0  0  0  0  0  0  0  0  0  0  0  0
    1.1544   -1.2708   -0.7332 H   0  0  0  0  0  0  0  0  0  0  0  0
   -0.3897   -1.4193   -1.5751 H   0  0  0  0  0  0  0  0  0  0  0  0
    0.5847    0.4472   -1.8430 C   0  0  0  0  0  0  0  0  0  0  0  0
    0.5695    1.7680   -1.4488 N   0  0  0  0  0  0  0  0  0  0  0  0
    0.2480    2.1197   -0.5594 H   0  0  0  0  0  0  0  0  0  0  0  0
    1.0534    2.5090   -2.4598 C   0  0  0  0  0  0  0  0  0  0  0  0
    1.1594    3.5869   -2.4510 H   0  0  0  0  0  0  0  0  0  0  0  0
    1.3941    1.7220   -3.4908 N   0  0  0  0  0  0  0  0  0  0  0  0
    1.0970    0.4101   -3.1124 C   0  0  0  0  0  0  0  0  0  0  0  0
    1.2739   -0.4805   -3.7015 H   0  0  0  0  0  0  0  0  0  0  0  0
   -0.6600    1.1486    0.4782 C   0  0  0  0  0  0  0  0  0  0  0  0
   -1.5001    1.7648   -0.1771 O   0  0  0  0  0  0  0  0  0  0  0  0
    0.1634    1.7559    1.3418 N   0  0  0  0  0  0  0  0  0  0  0  0
    0.8618    1.1897    1.8008 H   0  0  0  0  0  0  0  0  0  0  0  0
    0.1509    3.1886    1.6256 C   0  0  0  0  0  0  0  0  0  0  0  0
   -0.8272    3.4794    2.0152 H   0  0  0  0  0  0  0  0  0  0  0  0
    0.9172    3.4314    2.3624 H   0  0  0  0  0  0  0  0  0  0  0  0
    0.3414    3.7499    0.7095 H   0  0  0  0  0  0  0  0  0  0  0  0
  5  6  2  0  0  0  0
  5  7  1  0  0  0  0
  2  3  1  0  0  0  0
  2  4  1  0  0  0  0
  2  5  1  0  0  0  0
  1  2  1  0  0  0  0
 22 23  2  0  0  0  0
 22 24  1  0  0  0  0
 20 21  1  0  0  0  0
 19 20  1  0  0  0  0
 17 18  1  0  0  0  0
 17 19  2  0  0  0  0
 15 16  1  0  0  0  0
 15 17  1  0  0  0  0
 14 15  1  0  0  0  0
 14 20  2  0  0  0  0
 11 12  1  0  0  0  0
 11 13  1  0  0  0  0
 11 14  1  0  0  0  0
  9 10  1  0  0  0  0
  9 11  1  0  0  0  0
  9 22  1  0  0  0  0
  7  8  1  0  0  0  0
  7  9  1  0  0  0  0
 26 27  1  0  0  0  0
 26 28  1  0  0  0  0
 26 29  1  0  0  0  0
 24 25  1  0  0  0  0
 24 26  1  0  0  0  0
M  END
$$$$
default_name
  -OEChem-02102213163D

 29 29  0     1  0  0  0  0  0999 V2000
   -3.6042   -3.5728    1.4576 H   0  0  0  0  0  0  0  0  0  0  0  0
   -3.5202   -2.6488    0.8866 C   0  0  0  0  0  0  0  0  0  0  0  0
   -4.2052   -1.9048    1.2896 H   0  0  0  0  0  0  0  0  0  0  0  0
   -3.7552   -2.8428   -0.1584 H   0  0  0  0  0  0  0  0  0  0  0  0
   -2.1052   -2.1358    0.9946 C   0  0  0  0  0  0  0  0  0  0  0  0
   -1.2852   -2.7288    1.6826 O   0  0  0  0  0  0  0  0  0  0  0  0
   -1.8202   -1.0288    0.3146 N   0  0  0  0  0  0  0  0  0  0  0  0
   -2.5542   -0.5788   -0.2104 H   0  0  0  0  0  0  0  0  0  0  0  0
   -0.5102   -0.3728    0.3086 C   0  0  1  0  0  0  0  0  0  0  0  0
    0.0719   -0.7468    1.1521 H   0  0  0  0  0  0  0  0  0  0  0  0
    0.2338   -0.7427   -0.9878 C   0  0  0  0  0  0  0  0  0  0  0  0
    1.1544   -1.2708   -0.7332 H   0  0  0  0  0  0  0  0  0  0  0  0
   -0.3897   -1.4193   -1.5751 H   0  0  0  0  0  0  0  0  0  0  0  0
    0.5847    0.4472   -1.8430 C   0  0  0  0  0  0  0  0  0  0  0  0
    0.8510    1.7234   -1.3953 N   0  0  0  0  0  0  0  0  0  0  0  0
    0.7716    2.0486   -0.4434 H   0  0  0  0  0  0  0  0  0  0  0  0
    1.2307    2.4632   -2.4507 C   0  0  0  0  0  0  0  0  0  0  0  0
    1.5002    3.5117   -2.4157 H   0  0  0  0  0  0  0  0  0  0  0  0
    1.2339    1.7163   -3.5644 N   0  0  0  0  0  0  0  0  0  0  0  0
    0.8211    0.4344   -3.1918 C   0  0  0  0  0  0  0  0  0  0  0  0
    0.7381   -0.4251   -3.8443 H   0  0  0  0  0  0  0  0  0  0  0  0
   -0.6600    1.1486    0.4782 C   0  0  0  0  0  0  0  0  0  0  0  0
   -1.5001    1.7648   -0.1771 O   0  0  0  0  0  0  0  0  0  0  0  0
    0.1634    1.7559    1.3418 N   0  0  0  0  0  0  0  0  0  0  0  0
    0.8618    1.1897    1.8008 H   0  0  0  0  0  0  0  0  0  0  0  0
    0.1509    3.1886    1.6256 C   0  0  0  0  0  0  0  0  0  0  0  0
   -0.8272    3.4794    2.0152 H   0  0  0  0  0  0  0  0  0  0  0  0
    0.9172    3.4314    2.3624 H   0  0  0  0  0  0  0  0  0  0  0  0
    0.3414    3.7499    0.7095 H   0  0  0  0  0  0  0  0  0  0  0  0
  5  6  2  0  0  0  0
  5  7  1  0  0  0  0
  2  3  1  0  0  0  0
  2  4  1  0  0  0  0
  2  5  1  0  0  0  0
  1  2  1  0  0  0  0
 22 23  2  0  0  0  0
 22 24  1  0  0  0  0
 20 21  1  0  0  0  0
 19 20  1  0  0  0  0
 17 18  1  0  0  0  0
 17 19  2  0  0  0  0
 15 16  1  0  0  0  0
 15 17  1  0  0  0  0
 14 15  1  0  0  0  0
 14 20  2  0  0  0  0
 11 12  1  0  0  0  0
 11 13  1  0  0  0  0
 11 14  1  0  0  0  0
  9 10  1  0  0  0  0
  9 11  1  0  0  0  0
  9 22  1  0  0  0  0
  7  8  1  0  0  0  0
  7  9  1  0  0  0  0
 26 27  1  0  0  0  0
 26 28  1  0  0  0  0
 26 29  1  0  0  0  0
 24 25  1  0  0  0  0
 24 26  1  0  0  0  0
M  END
$$$$
default_name
  -OEChem-02102213163D

 29 29  0     1  0  0  0  0  0999 V2000
   -3.6042   -3.5728    1.4576 H   0  0  0  0  0  0  0  0  0  0  0  0
   -3.5202   -2.6488    0.8866 C   0  0  0  0  0  0  0  0  0  0  0  0
   -4.2052   -1.9048    1.2896 H   0  0  0  0  0  0  0  0  0  0  0  0
   -3.7552   -2.8428   -0.1584 H   0  0  0  0  0  0  0  0  0  0  0  0
   -2.1052   -2.1358    0.9946 C   0  0  0  0  0  0  0  0  0  0  0  0
   -1.2852   -2.7288    1.6826 O   0  0  0  0  0  0  0  0  0  0  0  0
   -1.8202   -1.0288    0.3146 N   0  0  0  0  0  0  0  0  0  0  0  0
   -2.5542   -0.5788   -0.2104 H   0  0  0  0  0  0  0  0  0  0  0  0
   -0.5102   -0.3728    0.3086 C   0  0  1  0  0  0  0  0  0  0  0  0
    0.0719   -0.7468    1.1521 H   0  0  0  0  0  0  0  0  0  0  0  0
    0.2338   -0.7427   -0.9878 C   0  0  0  0  0  0  0  0  0  0  0  0
    1.1544   -1.2708   -0.7332 H   0  0  0  0  0  0  0  0  0  0  0  0
   -0.3897   -1.4193   -1.5751 H   0  0  0  0  0  0  0  0  0  0  0  0
    0.5847    0.4472   -1.8430 C   0  0  0  0  0  0  0  0  0  0  0  0
    1.1274    1.6357   -1.4038 N   0  0  0  0  0  0  0  0  0  0  0  0
    1.2906    1.8961   -0.4427 H   0  0  0  0  0  0  0  0  0  0  0  0
    1.3972    2.3924   -2.4809 C   0  0  0  0  0  0  0  0  0  0  0  0
    1.8256    3.3870   -2.4558 H   0  0  0  0  0  0  0  0  0  0  0  0
    1.0632    1.7388   -3.6031 N   0  0  0  0  0  0  0  0  0  0  0  0
    0.5419    0.5032   -3.2106 C   0  0  0  0  0  0  0  0  0  0  0  0
    0.1995   -0.2843   -3.8694 H   0  0  0  0  0  0  0  0  0  0  0  0
   -0.6600    1.1486    0.4782 C   0  0  0  0  0  0  0  0  0  0  0  0
   -1.5001    1.7648   -0.1771 O   0  0  0  0  0  0  0  0  0  0  0  0
    0.1634    1.7559    1.3418 N   0  0  0  0  0  0  0  0  0  0  0  0
    0.8618    1.1897    1.8008 H   0  0  0  0  0  0  0  0  0  0  0  0
    0.1509    3.1886    1.6256 C   0  0  0  0  0  0  0  0  0  0  0  0
   -0.8272    3.4794    2.0152 H   0  0  0  0  0  0  0  0  0  0  0  0
    0.9172    3.4314    2.3624 H   0  0  0  0  0  0  0  0  0  0  0  0
    0.3414    3.7499    0.7095 H   0  0  0  0  0  0  0  0  0  0  0  0
  5  6  2  0  0  0  0
  5  7  1  0  0  0  0
  2  3  1  0  0  0  0
  2  4  1  0  0  0  0
  2  5  1  0  0  0  0
  1  2  1  0  0  0  0
 22 23  2  0  0  0  0
 22 24  1  0  0  0  0
 20 21  1  0  0  0  0
 19 20  1  0  0  0  0
 17 18  1  0  0  0  0
 17 19  2  0  0  0  0
 15 16  1  0  0  0  0
 15 17  1  0  0  0  0
 14 15  1  0  0  0  0
 14 20  2  0  0  0  0
 11 12  1  0  0  0  0
 11 13  1  0  0  0  0
 11 14  1  0  0  0  0
  9 10  1  0  0  0  0
  9 11  1  0  0  0  0
  9 22  1  0  0  0  0
  7  8  1  0  0  0  0
  7  9  1  0  0  0  0
 26 27  1  0  0  0  0
 26 28  1  0  0  0  0
 26 29  1  0  0  0  0
 24 25  1  0  0  0  0
 24 26  1  0  0  0  0
M  END
$$$$
default_name
  -OEChem-02102213163D

 29 29  0     1  0  0  0  0  0999 V2000
   -3.6042   -3.5728    1.4576 H   0  0  0  0  0  0  0  0  0  0  0  0
   -3.5202   -2.6488    0.8866 C   0  0  0  0  0  0  0  0  0  0  0  0
   -4.2052   -1.9048    1.2896 H   0  0  0  0  0  0  0  0  0  0  0  0
   -3.7552   -2.8428   -0.1584 H   0  0  0  0  0  0  0  0  0  0  0  0
   -2.1052   -2.1358    0.9946 C   0  0  0  0  0  0  0  0  0  0  0  0
   -1.2852   -2.7288    1.6826 O   0  0  0  0  0  0  0  0  0  0  0  0
   -1.8202   -1.0288    0.3146 N   0  0  0  0  0  0  0  0  0  0  0  0
   -2.5542   -0.5788   -0.2104 H   0  0  0  0  0  0  0  0  0  0  0  0
   -0.5102   -0.3728    0.3086 C   0  0  1  0  0  0  0  0  0  0  0  0
    0.0719   -0.7468    1.1521 H   0  0  0  0  0  0  0  0  0  0  0  0
    0.2338   -0.7427   -0.9878 C   0  0  0  0  0  0  0  0  0  0  0  0
    1.1544   -1.2708   -0.7332 H   0  0  0  0  0  0  0  0  0  0  0  0
   -0.3897   -1.4193   -1.5751 H   0  0  0  0  0  0  0  0  0  0  0  0
    0.5847    0.4472   -1.8430 C   0  0  0  0  0  0  0  0  0  0  0  0
    1.3797    1.5110   -1.4738 N   0  0  0  0  0  0  0  0  0  0  0  0
    1.7697    1.6725   -0.5573 H   0  0  0  0  0  0  0  0  0  0  0  0
    1.5414    2.3014   -2.5483 C   0  0  0  0  0  0  0  0  0  0  0  0
    2.1133    3.2211   -2.5686 H   0  0  0  0  0  0  0  0  0  0  0  0
    0.8938    1.7879   -3.6043 N   0  0  0  0  0  0  0  0  0  0  0  0
    0.2785    0.6118   -3.1675 C   0  0  0  0  0  0  0  0  0  0  0  0
   -0.3052   -0.0677   -3.7750 H   0  0  0  0  0  0  0  0  0  0  0  0
   -0.6600    1.1486    0.4782 C   0  0  0  0  0  0  0  0  0  0  0  0
   -1.5001    1.7648   -0.1771 O   0  0  0  0  0  0  0  0  0  0  0  0
    0.1634    1.7559    1.3418 N   0  0  0  0  0  0  0  0  0  0  0  0
    0.8618    1.1897    1.8008 H   0  0  0  0  0  0  0  0  0  0  0  0
    0.1509    3.1886    1.6256 C   0  0  0  0  0  0  0  0  0  0  0  0
   -0.8272    3.4794    2.0152 H   0  0  0  0  0  0  0  0  0  0  0  0
    0.9172    3.4314    2.3624 H   0  0  0  0  0  0  0  0  0  0  0  0
    0.3414    3.7499    0.7095 H   0  0  0  0  0  0  0  0  0  0  0  0
  5  6  2  0  0  0  0
  5  7  1  0  0  0  0
  2  3  1  0  0  0  0
  2  4  1  0  0  0  0
  2  5  1  0  0  0  0
  1  2  1  0  0  0  0
 22 23  2  0  0  0  0
 22 24  1  0  0  0  0
 20 21  1  0  0  0  0
 19 20  1  0  0  0  0
 17 18  1  0  0  0  0
 17 19  2  0  0  0  0
 15 16  1  0  0  0  0
 15 17  1  0  0  0  0
 14 15  1  0  0  0  0
 14 20  2  0  0  0  0
 11 12  1  0  0  0  0
 11 13  1  0  0  0  0
 11 14  1  0  0  0  0
  9 10  1  0  0  0  0
  9 11  1  0  0  0  0
  9 22  1  0  0  0  0
  7  8  1  0  0  0  0
  7  9  1  0  0  0  0
 26 27  1  0  0  0  0
 26 28  1  0  0  0  0
 26 29  1  0  0  0  0
 24 25  1  0  0  0  0
 24 26  1  0  0  0  0
M  END
$$$$
default_name
  -OEChem-02102213163D

 29 29  0     1  0  0  0  0  0999 V2000
   -3.6042   -3.5728    1.4576 H   0  0  0  0  0  0  0  0  0  0  0  0
   -3.5202   -2.6488    0.8866 C   0  0  0  0  0  0  0  0  0  0  0  0
   -4.2052   -1.9048    1.2896 H   0  0  0  0  0  0  0  0  0  0  0  0
   -3.7552   -2.8428   -0.1584 H   0  0  0  0  0  0  0  0  0  0  0  0
   -2.1052   -2.1358    0.9946 C   0  0  0  0  0  0  0  0  0  0  0  0
   -1.2852   -2.7288    1.6826 O   0  0  0  0  0  0  0  0  0  0  0  0
   -1.8202   -1.0288    0.3146 N   0  0  0  0  0  0  0  0  0  0  0  0
   -2.5542   -0.5788   -0.2104 H   0  0  0  0  0  0  0  0  0  0  0  0
   -0.5102   -0.3728    0.3086 C   0  0  1  0  0  0  0  0  0  0  0  0
    0.0719   -0.7468    1.1521 H   0  0  0  0  0  0  0  0  0  0  0  0
    0.2338   -0.7427   -0.9878 C   0  0  0  0  0  0  0  0  0  0  0  0
    1.1544   -1.2708   -0.7332 H   0  0  0  0  0  0  0  0  0  0  0  0
   -0.3897   -1.4193   -1.5751 H   0  0  0  0  0  0  0  0  0  0  0  0
    0.5847    0.4472   -1.8430 C   0  0  0  0  0  0  0  0  0  0  0  0
    1.5908    1.3577   -1.6006 N   0  0  0  0  0  0  0  0  0  0  0  0
    2.1761    1.3930   -0.7794 H   0  0  0  0  0  0  0  0  0  0  0  0
    1.6536    2.1964   -2.6484 C   0  0  0  0  0  0  0  0  0  0  0  0
    2.3439    3.0254   -2.7463 H   0  0  0  0  0  0  0  0  0  0  0  0
    0.7371    1.8603   -3.5679 N   0  0  0  0  0  0  0  0  0  0  0  0
    0.0488    0.7528   -3.0655 C   0  0  0  0  0  0  0  0  0  0  0  0
   -0.7416    0.2100   -3.5676 H   0  0  0  0  0  0  0  0  0  0  0  0
   -0.6600    1.1486    0.4782 C   0  0  0  0  0  0  0  0  0  0  0  0
   -1.5001    1.7648   -0.1771 O   0  0  0  0  0  0  0  0  0  0  0  0
    0.1634    1.7559    1.3418 N   0  0  0  0  0  0  0  0  0  0  0  0
    0.8618    1.1897    1.8008 H   0  0  0  0  0  0  0  0  0  0  0  0
    0.1509    3.1886    1.6256 C   0  0  0  0  0  0  0  0  0  0  0  0
   -0.8272    3.4794    2.0152 H   0  0  0  0  0  0  0  0  0  0  0  0
    0.9172    3.4314    2.3624 H   0  0  0  0  0  0  0  0  0  0  0  0
    0.3414    3.7499    0.7095 H   0  0  0  0  0  0  0  0  0  0  0  0
  5  6  2  0  0  0  0
  5  7  1  0  0  0  0
  2  3  1  0  0  0  0
  2  4  1  0  0  0  0
  2  5  1  0  0  0  0
  1  2  1  0  0  0  0
 22 23  2  0  0  0  0
 22 24  1  0  0  0  0
 20 21  1  0  0  0  0
 19 20  1  0  0  0  0
 17 18  1  0  0  0  0
 17 19  2  0  0  0  0
 15 16  1  0  0  0  0
 15 17  1  0  0  0  0
 14 15  1  0  0  0  0
 14 20  2  0  0  0  0
 11 12  1  0  0  0  0
 11 13  1  0  0  0  0
 11 14  1  0  0  0  0
  9 10  1  0  0  0  0
  9 11  1  0  0  0  0
  9 22  1  0  0  0  0
  7  8  1  0  0  0  0
  7  9  1  0  0  0  0
 26 27  1  0  0  0  0
 26 28  1  0  0  0  0
 26 29  1  0  0  0  0
 24 25  1  0  0  0  0
 24 26  1  0  0  0  0
M  END
$$$$
default_name
  -OEChem-02102213163D

 29 29  0     1  0  0  0  0  0999 V2000
   -3.6042   -3.5728    1.4576 H   0  0  0  0  0  0  0  0  0  0  0  0
   -3.5202   -2.6488    0.8866 C   0  0  0  0  0  0  0  0  0  0  0  0
   -4.2052   -1.9048    1.2896 H   0  0  0  0  0  0  0  0  0  0  0  0
   -3.7552   -2.8428   -0.1584 H   0  0  0  0  0  0  0  0  0  0  0  0
   -2.1052   -2.1358    0.9946 C   0  0  0  0  0  0  0  0  0  0  0  0
   -1.2852   -2.7288    1.6826 O   0  0  0  0  0  0  0  0  0  0  0  0
   -1.8202   -1.0288    0.3146 N   0  0  0  0  0  0  0  0  0  0  0  0
   -2.5542   -0.5788   -0.2104 H   0  0  0  0  0  0  0  0  0  0  0  0
   -0.5102   -0.3728    0.3086 C   0  0  1  0  0  0  0  0  0  0  0  0
    0.0719   -0.7468    1.1521 H   0  0  0  0  0  0  0  0  0  0  0  0
    0.2338   -0.7427   -0.9878 C   0  0  0  0  0  0  0  0  0  0  0  0
    1.1544   -1.2708   -0.7332 H   0  0  0  0  0  0  0  0  0  0  0  0
   -0.3897   -1.4193   -1.5751 H   0  0  0  0  0  0  0  0  0  0  0  0
    0.5847    0.4472   -1.8430 C   0  0  0  0  0  0  0  0  0  0  0  0
    1.7463    1.1862   -1.7754 N   0  0  0  0  0  0  0  0  0  0  0  0
    2.4823    1.0767   -1.0938 H   0  0  0  0  0  0  0  0  0  0  0  0
    1.7260    2.0845   -2.7744 C   0  0  0  0  0  0  0  0  0  0  0  0
    2.5015    2.8132   -2.9769 H   0  0  0  0  0  0  0  0  0  0  0  0
    0.6038    1.9511   -3.4962 N   0  0  0  0  0  0  0  0  0  0  0  0
   -0.1315    0.9166   -2.9116 C   0  0  0  0  0  0  0  0  0  0  0  0
   -1.0799    0.5299   -3.2614 H   0  0  0  0  0  0  0  0  0  0  0  0
   -0.6600    1.1486    0.4782 C   0  0  0  0  0  0  0  0  0  0  0  0
   -1.5001    1.7648   -0.1771 O   0  0  0  0  0  0  0  0  0  0  0  0
    0.1634    1.7559    1.3418 N   0  0  0  0  0  0  0  0  0  0  0  0
    0.8618    1.1897    1.8008 H   0  0  0  0  0  0  0  0  0  0  0  0
    0.1509    3.1886    1.6256 C   0  0  0  0  0  0  0  0  0  0  0  0
   -0.8272    3.4794    2.0152 H   0  0  0  0  0  0  0  0  0  0  0  0
    0.9172    3.4314    2.3624 H   0  0  0  0  0  0  0  0  0  0  0  0
    0.3414    3.7499    0.7095 H   0  0  0  0  0  0  0  0  0  0  0  0
  5  6  2  0  0  0  0
  5  7  1  0  0  0  0
  2  3  1  0  0  0  0
  2  4  1  0  0  0  0
  2  5  1  0  0  0  0
  1  2  1  0  0  0  0
 22 23  2  0  0  0  0
 22 24  1  0  0  0  0
 20 21  1  0  0  0  0
 19 20  1  0  0  0  0
 17 18  1  0  0  0  0
 17 19  2  0  0  0  0
 15 16  1  0  0  0  0
 15 17  1  0  0  0  0
 14 15  1  0  0  0  0
 14 20  2  0  0  0  0
 11 12  1  0  0  0  0
 11 13  1  0  0  0  0
 11 14  1  0  0  0  0
  9 10  1  0  0  0  0
  9 11  1  0  0  0  0
  9 22  1  0  0  0  0
  7  8  1  0  0  0  0
  7  9  1  0  0  0  0
 26 27  1  0  0  0  0
 26 28  1  0  0  0  0
 26 29  1  0  0  0  0
 24 25  1  0  0  0  0
 24 26  1  0  0  0  0
M  END
$$$$
default_name
  -OEChem-02102213163D

 29 29  0     1  0  0  0  0  0999 V2000
   -3.6042   -3.5728    1.4576 H   0  0  0  0  0  0  0  0  0  0  0  0
   -3.5202   -2.6488    0.8866 C   0  0  0  0  0  0  0  0  0  0  0  0
   -4.2052   -1.9048    1.2896 H   0  0  0  0  0  0  0  0  0  0  0  0
   -3.7552   -2.8428   -0.1584 H   0  0  0  0  0  0  0  0  0  0  0  0
   -2.1052   -2.1358    0.9946 C   0  0  0  0  0  0  0  0  0  0  0  0
   -1.2852   -2.7288    1.6826 O   0  0  0  0  0  0  0  0  0  0  0  0
   -1.8202   -1.0288    0.3146 N   0  0  0  0  0  0  0  0  0  0  0  0
   -2.5542   -0.5788   -0.2104 H   0  0  0  0  0  0  0  0  0  0  0  0
   -0.5102   -0.3728    0.3086 C   0  0  1  0  0  0  0  0  0  0  0  0
    0.0719   -0.7468    1.1521 H   0  0  0  0  0  0  0  0  0  0  0  0
    0.2338   -0.7427   -0.9878 C   0  0  0  0  0  0  0  0  0  0  0  0
    1.1544   -1.2708   -0.7332 H   0  0  0  0  0  0  0  0  0  0  0  0
   -0.3897   -1.4193   -1.5751 H   0  0  0  0  0  0  0  0  0  0  0  0
    0.5847    0.4472   -1.8430 C   0  0  0  0  0  0  0  0  0  0  0  0
    1.8356    1.0083   -1.9863 N   0  0  0  0  0  0  0  0  0  0  0  0
    2.6673    0.7452   -1.4792 H   0  0  0  0  0  0  0  0  0  0  0  0
    1.7538    1.9734   -2.9176 C   0  0  0  0  0  0  0  0  0  0  0  0
    2.5754    2.5989   -3.2446 H   0  0  0  0  0  0  0  0  0  0  0  0
    0.5030    2.0540   -3.3944 N   0  0  0  0  0  0  0  0  0  0  0  0
   -0.2501    1.0921   -2.7162 C   0  0  0  0  0  0  0  0  0  0  0  0
   -1.2971    0.8700   -2.8772 H   0  0  0  0  0  0  0  0  0  0  0  0
   -0.6600    1.1486    0.4782 C   0  0  0  0  0  0  0  0  0  0  0  0
   -1.5001    1.7648   -0.1771 O   0  0  0  0  0  0  0  0  0  0  0  0
    0.1634    1.7559    1.3418 N   0  0  0  0  0  0  0  0  0  0  0  0
    0.8618    1.1897    1.8008 H   0  0  0  0  0  0  0  0  0  0  0  0
    0.1509    3.1886    1.6256 C   0  0  0  0  0  0  0  0  0  0  0  0
   -0.8272    3.4794    2.0152 H   0  0  0  0  0  0  0  0  0  0  0  0
    0.9172    3.4314    2.3624 H   0  0  0  0  0  0  0  0  0  0  0  0
    0.3414    3.7499    0.7095 H   0  0  0  0  0  0  0  0  0  0  0  0
  5  6  2  0  0  0  0
  5  7  1  0  0  0  0
  2  3  1  0  0  0  0
  2  4  1  0  0  0  0
  2  5  1  0  0  0  0
  1  2  1  0  0  0  0
 22 23  2  0  0  0  0
 22 24  1  0  0  0  0
 20 21  1  0  0  0  0
 19 20  1  0  0  0  0
 17 18  1  0  0  0  0
 17 19  2  0  0  0  0
 15 16  1  0  0  0  0
 15 17  1  0  0  0  0
 14 15  1  0  0  0  0
 14 20  2  0  0  0  0
 11 12  1  0  0  0  0
 11 13  1  0  0  0  0
 11 14  1  0  0  0  0
  9 10  1  0  0  0  0
  9 11  1  0  0  0  0
  9 22  1  0  0  0  0
  7  8  1  0  0  0  0
  7  9  1  0  0  0  0
 26 27  1  0  0  0  0
 26 28  1  0  0  0  0
 26 29  1  0  0  0  0
 24 25  1  0  0  0  0
 24 26  1  0  0  0  0
M  END
$$$$
default_name
  -OEChem-02102213163D

 29 29  0     1  0  0  0  0  0999 V2000
   -3.6042   -3.5728    1.4576 H   0  0  0  0  0  0  0  0  0  0  0  0
   -3.5202   -2.6488    0.8866 C   0  0  0  0  0  0  0  0  0  0  0  0
   -4.2052   -1.9048    1.2896 H   0  0  0  0  0  0  0  0  0  0  0  0
   -3.7552   -2.8428   -0.1584 H   0  0  0  0  0  0  0  0  0  0  0  0
   -2.1052   -2.1358    0.9946 C   0  0  0  0  0  0  0  0  0  0  0  0
   -1.2852   -2.7288    1.6826 O   0  0  0  0  0  0  0  0  0  0  0  0
   -1.8202   -1.0288    0.3146 N   0  0  0  0  0  0  0  0  0  0  0  0
   -2.5542   -0.5788   -0.2104 H   0  0  0  0  0  0  0  0  0  0  0  0
   -0.5102   -0.3728    0.3086 C   0  0  1  0  0  0  0  0  0  0  0  0
    0.0719   -0.7468    1.1521 H   0  0  0  0  0  0  0  0  0  0  0  0
    0.2338   -0.7427   -0.9878 C   0  0  0  0  0  0  0  0  0  0  0  0
    1.1544   -1.2708   -0.7332 H   0  0  0  0  0  0  0  0  0  0  0  0
   -0.3897   -1.4193   -1.5751 H   0  0  0  0  0  0  0  0  0  0  0  0
    0.5847    0.4472   -1.8430 C   0  0  0  0  0  0  0  0  0  0  0  0
    1.8525    0.8360   -2.2191 N   0  0  0  0  0  0  0  0  0  0  0  0
    2.7185    0.4210   -1.9093 H   0  0  0  0  0  0  0  0  0  0  0  0
    1.7351    1.8706   -3.0684 C   0  0  0  0  0  0  0  0  0  0  0  0
    2.5606    2.3973   -3.5313 H   0  0  0  0  0  0  0  0  0  0  0  0
    0.4416    2.1621   -3.2691 N   0  0  0  0  0  0  0  0  0  0  0  0
   -0.2990    1.2672   -2.4926 C   0  0  0  0  0  0  0  0  0  0  0  0
   -1.3785    1.2074   -2.4412 H   0  0  0  0  0  0  0  0  0  0  0  0
   -0.6600    1.1486    0.4782 C   0  0  0  0  0  0  0  0  0  0  0  0
   -1.5001    1.7648   -0.1771 O   0  0  0  0  0  0  0  0  0  0  0  0
    0.1634    1.7559    1.3418 N   0  0  0  0  0  0  0  0  0  0  0  0
    0.8618    1.1897    1.8008 H   0  0  0  0  0  0  0  0  0  0  0  0
    0.1509    3.1886    1.6256 C   0  0  0  0  0  0  0  0  0  0  0  0
   -0.8272    3.4794    2.0152 H   0  0  0  0  0  0  0  0  0  0  0  0
    0.9172    3.4314    2.3624 H   0  0  0  0  0  0  0  0  0  0  0  0
    0.3414    3.7499    0.7095 H   0  0  0  0  0  0  0  0  0  0  0  0
  5  6  2  0  0  0  0
  5  7  1  0  0  0  0
  2  3  1  0  0  0  0
  2  4  1  0  0  0  0
  2  5  1  0  0  0  0
  1  2  1  0  0  0  0
 22 23  2  0  0  0  0
 22 24  1  0  0  0  0
 20 21  1  0  0  0  0
 19 20  1  0  0  0  0
 17 18  1  0  0  0  0
 17 19  2  0  0  0  0
 15 16  1  0  0  0  0
 15 17  1  0  0  0  0
 14 15  1  0  0  0  0
 14 20  2  0  0  0  0
 11 12  1  0  0  0  0
 11 13  1  0  0  0  0
 11 14  1  0  0  0  0
  9 10  1  0  0  0  0
  9 11  1  0  0  0  0
  9 22  1  0  0  0  0
  7  8  1  0  0  0  0
  7  9  1  0  0  0  0
 26 27  1  0  0  0  0
 26 28  1  0  0  0  0
 26 29  1  0  0  0  0
 24 25  1  0  0  0  0
 24 26  1  0  0  0  0
M  END
$$$$
default_name
  -OEChem-02102213163D

 29 29  0     1  0  0  0  0  0999 V2000
   -3.6042   -3.5728    1.4576 H   0  0  0  0  0  0  0  0  0  0  0  0
   -3.5202   -2.6488    0.8866 C   0  0  0  0  0  0  0  0  0  0  0  0
   -4.2052   -1.9048    1.2896 H   0  0  0  0  0  0  0  0  0  0  0  0
   -3.7552   -2.8428   -0.1584 H   0  0  0  0  0  0  0  0  0  0  0  0
   -2.1052   -2.1358    0.9946 C   0  0  0  0  0  0  0  0  0  0  0  0
   -1.2852   -2.7288    1.6826 O   0  0  0  0  0  0  0  0  0  0  0  0
   -1.8202   -1.0288    0.3146 N   0  0  0  0  0  0  0  0  0  0  0  0
   -2.5542   -0.5788   -0.2104 H   0  0  0  0  0  0  0  0  0  0  0  0
   -0.5102   -0.3728    0.3086 C   0  0  1  0  0  0  0  0  0  0  0  0
    0.0719   -0.7468    1.1521 H   0  0  0  0  0  0  0  0  0  0  0  0
    0.2338   -0.7427   -0.9878 C   0  0  0  0  0  0  0  0  0  0  0  0
    1.1544   -1.2708   -0.7332 H   0  0  0  0  0  0  0  0  0  0  0  0
   -0.3897   -1.4193   -1.5751 H   0  0  0  0  0  0  0  0  0  0  0  0
    0.5847    0.4472   -1.8430 C   0  0  0  0  0  0  0  0  0  0  0  0
    1.7961    0.6812   -2.4577 N   0  0  0  0  0  0  0  0  0  0  0  0
    2.6325    0.1263   -2.3547 H   0  0  0  0  0  0  0  0  0  0  0  0
    1.6711    1.7831   -3.2163 C   0  0  0  0  0  0  0  0  0  0  0  0
    2.4581    2.2220   -3.8173 H   0  0  0  0  0  0  0  0  0  0  0  0
    0.4238    2.2680   -3.1291 N   0  0  0  0  0  0  0  0  0  0  0  0
   -0.2748    1.4300   -2.2561 C   0  0  0  0  0  0  0  0  0  0  0  0
   -1.3183    1.5189   -1.9830 H   0  0  0  0  0  0  0  0  0  0  0  0
   -0.6600    1.1486    0.4782 C   0  0  0  0  0  0  0  0  0  0  0  0
   -1.5001    1.7648   -0.1771 O   0  0  0  0  0  0  0  0  0  0  0  0
    0.1634    1.7559    1.3418 N   0  0  0  0  0  0  0  0  0  0  0  0
    0.8618    1.1897    1.8008 H   0  0  0  0  0  0  0  0  0  0  0  0
    0.1509    3.1886    1.6256 C   0  0  0  0  0  0  0  0  0  0  0  0
   -0.8272    3.4794    2.0152 H   0  0  0  0  0  0  0  0  0  0  0  0
    0.9172    3.4314    2.3624 H   0  0  0  0  0  0  0  0  0  0  0  0
    0.3414    3.7499    0.7095 H   0  0  0  0  0  0  0  0  0  0  0  0
  5  6  2  0  0  0  0
  5  7  1  0  0  0  0
  2  3  1  0  0  0  0
  2  4  1  0  0  0  0
  2  5  1  0  0  0  0
  1  2  1  0  0  0  0
 22 23  2  0  0  0  0
 22 24  1  0  0  0  0
 20 21  1  0  0  0  0
 19 20  1  0  0  0  0
 17 18  1  0  0  0  0
 17 19  2  0  0  0  0
 15 16  1  0  0  0  0
 15 17  1  0  0  0  0
 14 15  1  0  0  0  0
 14 20  2  0  0  0  0
 11 12  1  0  0  0  0
 11 13  1  0  0  0  0
 11 14  1  0  0  0  0
  9 10  1  0  0  0  0
  9 11  1  0  0  0  0
  9 22  1  0  0  0  0
  7  8  1  0  0  0  0
  7  9  1  0  0  0  0
 26 27  1  0  0  0  0
 26 28  1  0  0  0  0
 26 29  1  0  0  0  0
 24 25  1  0  0  0  0
 24 26  1  0  0  0  0
M  END
$$$$
default_name
  -OEChem-02102213163D

 29 29  0     1  0  0  0  0  0999 V2000
   -3.6042   -3.5728    1.4576 H   0  0  0  0  0  0  0  0  0  0  0  0
   -3.5202   -2.6488    0.8866 C   0  0  0  0  0  0  0  0  0  0  0  0
   -4.2052   -1.9048    1.2896 H   0  0  0  0  0  0  0  0  0  0  0  0
   -3.7552   -2.8428   -0.1584 H   0  0  0  0  0  0  0  0  0  0  0  0
   -2.1052   -2.1358    0.9946 C   0  0  0  0  0  0  0  0  0  0  0  0
   -1.2852   -2.7288    1.6826 O   0  0  0  0  0  0  0  0  0  0  0  0
   -1.8202   -1.0288    0.3146 N   0  0  0  0  0  0  0  0  0  0  0  0
   -2.5542   -0.5788   -0.2104 H   0  0  0  0  0  0  0  0  0  0  0  0
   -0.5102   -0.3728    0.3086 C   0  0  1  0  0  0  0  0  0  0  0  0
    0.0719   -0.7468    1.1521 H   0  0  0  0  0  0  0  0  0  0  0  0
    0.2338   -0.7427   -0.9878 C   0  0  0  0  0  0  0  0  0  0  0  0
    1.1544   -1.2708   -0.7332 H   0  0  0  0  0  0  0  0  0  0  0  0
   -0.3897   -1.4193   -1.5751 H   0  0  0  0  0  0  0  0  0  0  0  0
    0.5847    0.4472   -1.8430 C   0  0  0  0  0  0  0  0  0  0  0  0
    1.6700    0.5543   -2.6860 N   0  0  0  0  0  0  0  0  0  0  0  0
    2.4151   -0.1189   -2.7851 H   0  0  0  0  0  0  0  0  0  0  0  0
    1.5662    1.7170   -3.3514 C   0  0  0  0  0  0  0  0  0  0  0  0
    2.2749    2.0849   -4.0832 H   0  0  0  0  0  0  0  0  0  0  0  0
    0.4508    2.3644   -2.9839 N   0  0  0  0  0  0  0  0  0  0  0  0
   -0.1792    1.5695   -2.0227 C   0  0  0  0  0  0  0  0  0  0  0  0
   -1.1209    1.7833   -1.5340 H   0  0  0  0  0  0  0  0  0  0  0  0
   -0.6600    1.1486    0.4782 C   0  0  0  0  0  0  0  0  0  0  0  0
   -1.5001    1.7648   -0.1771 O   0  0  0  0  0  0  0  0  0  0  0  0
    0.1634    1.7559    1.3418 N   0  0  0  0  0  0  0  0  0  0  0  0
    0.8618    1.1897    1.8008 H   0  0  0  0  0  0  0  0  0  0  0  0
    0.1509    3.1886    1.6256 C   0  0  0  0  0  0  0  0  0  0  0  0
   -0.8272    3.4794    2.0152 H   0  0  0  0  0  0  0  0  0  0  0  0
    0.9172    3.4314    2.3624 H   0  0  0  0  0  0  0  0  0  0  0  0
    0.3414    3.7499    0.7095 H   0  0  0  0  0  0  0  0  0  0  0  0
  5  6  2  0  0  0  0
  5  7  1  0  0  0  0
  2  3  1  0  0  0  0
  2  4  1  0  0  0  0
  2  5  1  0  0  0  0
  1  2  1  0  0  0  0
 22 23  2  0  0  0  0
 22 24  1  0  0  0  0
 20 21  1  0  0  0  0
 19 20  1  0  0  0  0
 17 18  1  0  0  0  0
 17 19  2  0  0  0  0
 15 16  1  0  0  0  0
 15 17  1  0  0  0  0
 14 15  1  0  0  0  0
 14 20  2  0  0  0  0
 11 12  1  0  0  0  0
 11 13  1  0  0  0  0
 11 14  1  0  0  0  0
  9 10  1  0  0  0  0
  9 11  1  0  0  0  0
  9 22  1  0  0  0  0
  7  8  1  0  0  0  0
  7  9  1  0  0  0  0
 26 27  1  0  0  0  0
 26 28  1  0  0  0  0
 26 29  1  0  0  0  0
 24 25  1  0  0  0  0
 24 26  1  0  0  0  0
M  END
$$$$
default_name
  -OEChem-02102213163D

 29 29  0     1  0  0  0  0  0999 V2000
   -3.6042   -3.5728    1.4576 H   0  0  0  0  0  0  0  0  0  0  0  0
   -3.5202   -2.6488    0.8866 C   0  0  0  0  0  0  0  0  0  0  0  0
   -4.2052   -1.9048    1.2896 H   0  0  0  0  0  0  0  0  0  0  0  0
   -3.7552   -2.8428   -0.1584 H   0  0  0  0  0  0  0  0  0  0  0  0
   -2.1052   -2.1358    0.9946 C   0  0  0  0  0  0  0  0  0  0  0  0
   -1.2852   -2.7288    1.6826 O   0  0  0  0  0  0  0  0  0  0  0  0
   -1.8202   -1.0288    0.3146 N   0  0  0  0  0  0  0  0  0  0  0  0
   -2.5542   -0.5788   -0.2104 H   0  0  0  0  0  0  0  0  0  0  0  0
   -0.5102   -0.3728    0.3086 C   0  0  1  0  0  0  0  0  0  0  0  0
    0.0719   -0.7468    1.1521 H   0  0  0  0  0  0  0  0  0  0  0  0
    0.2338   -0.7427   -0.9878 C   0  0  0  0  0  0  0  0  0  0  0  0
    1.1544   -1.2708   -0.7332 H   0  0  0  0  0  0  0  0  0  0  0  0
   -0.3897   -1.4193   -1.5751 H   0  0  0  0  0  0  0  0  0  0  0  0
    0.5847    0.4472   -1.8430 C   0  0  0  0  0  0  0  0  0  0  0  0
    1.4829    0.4640   -2.8885 N   0  0  0  0  0  0  0  0  0  0  0  0
    2.0811   -0.2978   -3.1712 H   0  0  0  0  0  0  0  0  0  0  0  0
    1.4275    1.6766   -3.4644 C   0  0  0  0  0  0  0  0  0  0  0  0
    2.0235    1.9955   -4.3108 H   0  0  0  0  0  0  0  0  0  0  0  0
    0.5207    2.4449   -2.8433 N   0  0  0  0  0  0  0  0  0  0  0  0
   -0.0186    1.6761   -1.8085 C   0  0  0  0  0  0  0  0  0  0  0  0
   -0.7995    1.9827   -1.1247 H   0  0  0  0  0  0  0  0  0  0  0  0
   -0.6600    1.1486    0.4782 C   0  0  0  0  0  0  0  0  0  0  0  0
   -1.5001    1.7648   -0.1771 O   0  0  0  0  0  0  0  0  0  0  0  0
    0.1634    1.7559    1.3418 N   0  0  0  0  0  0  0  0  0  0  0  0
    0.8618    1.1897    1.8008 H   0  0  0  0  0  0  0  0  0  0  0  0
    0.1509    3.1886    1.6256 C   0  0  0  0  0  0  0  0  0  0  0  0
   -0.8272    3.4794    2.0152 H   0  0  0  0  0  0  0  0  0  0  0  0
    0.9172    3.4314    2.3624 H   0  0  0  0  0  0  0  0  0  0  0  0
    0.3414    3.7499    0.7095 H   0  0  0  0  0  0  0  0  0  0  0  0
  5  6  2  0  0  0  0
  5  7  1  0  0  0  0
  2  3  1  0  0  0  0
  2  4  1  0  0  0  0
  2  5  1  0  0  0  0
  1  2  1  0  0  0  0
 22 23  2  0  0  0  0
 22 24  1  0  0  0  0
 20 21  1  0  0  0  0
 19 20  1  0  0  0  0
 17 18  1  0  0  0  0
 17 19  2  0  0  0  0
 15 16  1  0  0  0  0
 15 17  1  0  0  0  0
 14 15  1  0  0  0  0
 14 20  2  0  0  0  0
 11 12  1  0  0  0  0
 11 13  1  0  0  0  0
 11 14  1  0  0  0  0
  9 10  1  0  0  0  0
  9 11  1  0  0  0  0
  9 22  1  0  0  0  0
  7  8  1  0  0  0  0
  7  9  1  0  0  0  0
 26 27  1  0  0  0  0
 26 28  1  0  0  0  0
 26 29  1  0  0  0  0
 24 25  1  0  0  0  0
 24 26  1  0  0  0  0
M  END
$$$$
default_name
  -OEChem-02102213163D

 29 29  0     1  0  0  0  0  0999 V2000
   -3.6042   -3.5728    1.4576 H   0  0  0  0  0  0  0  0  0  0  0  0
   -3.5202   -2.6488    0.8866 C   0  0  0  0  0  0  0  0  0  0  0  0
   -4.2052   -1.9048    1.2896 H   0  0  0  0  0  0  0  0  0  0  0  0
   -3.7552   -2.8428   -0.1584 H   0  0  0  0  0  0  0  0  0  0  0  0
   -2.1052   -2.1358    0.9946 C   0  0  0  0  0  0  0  0  0  0  0  0
   -1.2852   -2.7288    1.6826 O   0  0  0  0  0  0  0  0  0  0  0  0
   -1.8202   -1.0288    0.3146 N   0  0  0  0  0  0  0  0  0  0  0  0
   -2.5542   -0.5788   -0.2104 H   0  0  0  0  0  0  0  0  0  0  0  0
   -0.5102   -0.3728    0.3086 C   0  0  1  0  0  0  0  0  0  0  0  0
    0.0719   -0.7468    1.1521 H   0  0  0  0  0  0  0  0  0  0  0  0
    0.2338   -0.7427   -0.9878 C   0  0  0  0  0  0  0  0  0  0  0  0
    0.9980   -1.4882   -0.7609 H   0  0  0  0  0  0  0  0  0  0  0  0
   -0.4735   -1.1899   -1.6887 H   0  0  0  0  0  0  0  0  0  0  0  0
    0.8951    0.4322   -1.6605 C   0  0  0  0  0  0  0  0  0  0  0  0
    1.6259    0.3982   -2.8288 N   0  0  0  0  0  0  0  0  0  0  0  0
    1.8799   -0.4291   -3.3478 H   0  0  0  0  0  0  0  0  0  0  0  0
    1.9473    1.6614   -3.1548 C   0  0  0  0  0  0  0  0  0  0  0  0
    2.5262    1.9563   -4.0215 H   0  0  0  0  0  0  0  0  0  0  0  0
    1.4445    2.5163   -2.2523 N   0  0  0  0  0  0  0  0  0  0  0  0
    0.7773    1.7468   -1.2955 C   0  0  0  0  0  0  0  0  0  0  0  0
    0.2331    2.1232   -0.4390 H   0  0  0  0  0  0  0  0  0  0  0  0
   -0.6600    1.1486    0.4782 C   0  0  0  0  0  0  0  0  0  0  0  0
   -1.5001    1.7648   -0.1771 O   0  0  0  0  0  0  0  0  0  0  0  0
    0.1634    1.7559    1.3418 N   0  0  0  0  0  0  0  0  0  0  0  0
    0.8618    1.1897    1.8008 H   0  0  0  0  0  0  0  0  0  0  0  0
    0.1509    3.1886    1.6256 C   0  0  0  0  0  0  0  0  0  0  0  0
   -0.8272    3.4794    2.0152 H   0  0  0  0  0  0  0  0  0  0  0  0
    0.9172    3.4314    2.3624 H   0  0  0  0  0  0  0  0  0  0  0  0
    0.3414    3.7499    0.7095 H   0  0  0  0  0  0  0  0  0  0  0  0
  5  6  2  0  0  0  0
  5  7  1  0  0  0  0
  2  3  1  0  0  0  0
  2  4  1  0  0  0  0
  2  5  1  0  0  0  0
  1  2  1  0  0  0  0
 22 23  2  0  0  0  0
 22 24  1  0  0  0  0
 20 21  1  0  0  0  0
 19 20  1  0  0  0  0
 17 18  1  0  0  0  0
 17 19  2  0  0  0  0
 15 16  1  0  0  0  0
 15 17  1  0  0  0  0
 14 15  1  0  0  0  0
 14 20  2  0  0  0  0
 11 12  1  0  0  0  0
 11 13  1  0  0  0  0
 11 14  1  0  0  0  0
  9 10  1  0  0  0  0
  9 11  1  0  0  0  0
  9 22  1  0  0  0  0
  7  8  1  0  0  0  0
  7  9  1  0  0  0  0
 26 27  1  0  0  0  0
 26 28  1  0  0  0  0
 26 29  1  0  0  0  0
 24 25  1  0  0  0  0
 24 26  1  0  0  0  0
M  END
$$$$
default_name
  -OEChem-02102213163D

 29 29  0     1  0  0  0  0  0999 V2000
   -3.6042   -3.5728    1.4576 H   0  0  0  0  0  0  0  0  0  0  0  0
   -3.5202   -2.6488    0.8866 C   0  0  0  0  0  0  0  0  0  0  0  0
   -4.2052   -1.9048    1.2896 H   0  0  0  0  0  0  0  0  0  0  0  0
   -3.7552   -2.8428   -0.1584 H   0  0  0  0  0  0  0  0  0  0  0  0
   -2.1052   -2.1358    0.9946 C   0  0  0  0  0  0  0  0  0  0  0  0
   -1.2852   -2.7288    1.6826 O   0  0  0  0  0  0  0  0  0  0  0  0
   -1.8202   -1.0288    0.3146 N   0  0  0  0  0  0  0  0  0  0  0  0
   -2.5542   -0.5788   -0.2104 H   0  0  0  0  0  0  0  0  0  0  0  0
   -0.5102   -0.3728    0.3086 C   0  0  1  0  0  0  0  0  0  0  0  0
    0.0719   -0.7468    1.1521 H   0  0  0  0  0  0  0  0  0  0  0  0
    0.2338   -0.7427   -0.9878 C   0  0  0  0  0  0  0  0  0  0  0  0
    0.9980   -1.4882   -0.7609 H   0  0  0  0  0  0  0  0  0  0  0  0
   -0.4735   -1.1899   -1.6887 H   0  0  0  0  0  0  0  0  0  0  0  0
    0.8951    0.4322   -1.6605 C   0  0  0  0  0  0  0  0  0  0  0  0
    1.3735    0.4693   -2.9527 N   0  0  0  0  0  0  0  0  0  0  0  0
    1.4140   -0.3082   -3.5947 H   0  0  0  0  0  0  0  0  0  0  0  0
    1.7831    1.7231   -3.2084 C   0  0  0  0  0  0  0  0  0  0  0  0
    2.2145    2.0627   -4.1421 H   0  0  0  0  0  0  0  0  0  0  0  0
    1.5790    2.5056   -2.1386 N   0  0  0  0  0  0  0  0  0  0  0  0
    1.0190    1.6957   -1.1472 C   0  0  0  0  0  0  0  0  0  0  0  0
    0.7048    2.0161   -0.1623 H   0  0  0  0  0  0  0  0  0  0  0  0
   -0.6600    1.1486    0.4782 C   0  0  0  0  0  0  0  0  0  0  0  0
   -1.5001    1.7648   -0.1771 O   0  0  0  0  0  0  0  0  0  0  0  0
    0.1634    1.7559    1.3418 N   0  0  0  0  0  0  0  0  0  0  0  0
    0.8618    1.1897    1.8008 H   0  0  0  0  0  0  0  0  0  0  0  0
    0.1509    3.1886    1.6256 C   0  0  0  0  0  0  0  0  0  0  0  0
   -0.8272    3.4794    2.0152 H   0  0  0  0  0  0  0  0  0  0  0  0
    0.9172    3.4314    2.3624 H   0  0  0  0  0  0  0  0  0  0  0  0
    0.3414    3.7499    0.7095 H   0  0  0  0  0  0  0  0  0  0  0  0
  5  6  2  0  0  0  0
  5  7  1  0  0  0  0
  2  3  1  0  0  0  0
  2  4  1  0  0  0  0
  2  5  1  0  0  0  0
  1  2  1  0  0  0  0
 22 23  2  0  0  0  0
 22 24  1  0  0  0  0
 20 21  1  0  0  0  0
 19 20  1  0  0  0  0
 17 18  1  0  0  0  0
 17 19  2  0  0  0  0
 15 16  1  0  0  0  0
 15 17  1  0  0  0  0
 14 15  1  0  0  0  0
 14 20  2  0  0  0  0
 11 12  1  0  0  0  0
 11 13  1  0  0  0  0
 11 14  1  0  0  0  0
  9 10  1  0  0  0  0
  9 11  1  0  0  0  0
  9 22  1  0  0  0  0
  7  8  1  0  0  0  0
  7  9  1  0  0  0  0
 26 27  1  0  0  0  0
 26 28  1  0  0  0  0
 26 29  1  0  0  0  0
 24 25  1  0  0  0  0
 24 26  1  0  0  0  0
M  END
$$$$
default_name
  -OEChem-02102213163D

 29 29  0     1  0  0  0  0  0999 V2000
   -3.6042   -3.5728    1.4576 H   0  0  0  0  0  0  0  0  0  0  0  0
   -3.5202   -2.6488    0.8866 C   0  0  0  0  0  0  0  0  0  0  0  0
   -4.2052   -1.9048    1.2896 H   0  0  0  0  0  0  0  0  0  0  0  0
   -3.7552   -2.8428   -0.1584 H   0  0  0  0  0  0  0  0  0  0  0  0
   -2.1052   -2.1358    0.9946 C   0  0  0  0  0  0  0  0  0  0  0  0
   -1.2852   -2.7288    1.6826 O   0  0  0  0  0  0  0  0  0  0  0  0
   -1.8202   -1.0288    0.3146 N   0  0  0  0  0  0  0  0  0  0  0  0
   -2.5542   -0.5788   -0.2104 H   0  0  0  0  0  0  0  0  0  0  0  0
   -0.5102   -0.3728    0.3086 C   0  0  1  0  0  0  0  0  0  0  0  0
    0.0719   -0.7468    1.1521 H   0  0  0  0  0  0  0  0  0  0  0  0
    0.2338   -0.7427   -0.9878 C   0  0  0  0  0  0  0  0  0  0  0  0
    0.9980   -1.4882   -0.7609 H   0  0  0  0  0  0  0  0  0  0  0  0
   -0.4735   -1.1899   -1.6887 H   0  0  0  0  0  0  0  0  0  0  0  0
    0.8951    0.4322   -1.6605 C   0  0  0  0  0  0  0  0  0  0  0  0
    1.1129    0.5812   -3.0134 N   0  0  0  0  0  0  0  0  0  0  0  0
    0.9281   -0.1095   -3.7254 H   0  0  0  0  0  0  0  0  0  0  0  0
    1.6209    1.8078   -3.2199 C   0  0  0  0  0  0  0  0  0  0  0  0
    1.9013    2.2152   -4.1836 H   0  0  0  0  0  0  0  0  0  0  0  0
    1.7307    2.4669   -2.0572 N   0  0  0  0  0  0  0  0  0  0  0  0
    1.2765    1.6015   -1.0585 C   0  0  0  0  0  0  0  0  0  0  0  0
    1.2039    1.8268   -0.0023 H   0  0  0  0  0  0  0  0  0  0  0  0
   -0.6600    1.1486    0.4782 C   0  0  0  0  0  0  0  0  0  0  0  0
   -1.5001    1.7648   -0.1771 O   0  0  0  0  0  0  0  0  0  0  0  0
    0.1634    1.7559    1.3418 N   0  0  0  0  0  0  0  0  0  0  0  0
    0.8618    1.1897    1.8008 H   0  0  0  0  0  0  0  0  0  0  0  0
    0.1509    3.1886    1.6256 C   0  0  0  0  0  0  0  0  0  0  0  0
   -0.8272    3.4794    2.0152 H   0  0  0  0  0  0  0  0  0  0  0  0
    0.9172    3.4314    2.3624 H   0  0  0  0  0  0  0  0  0  0  0  0
    0.3414    3.7499    0.7095 H   0  0  0  0  0  0  0  0  0  0  0  0
  5  6  2  0  0  0  0
  5  7  1  0  0  0  0
  2  3  1  0  0  0  0
  2  4  1  0  0  0  0
  2  5  1  0  0  0  0
  1  2  1  0  0  0  0
 22 23  2  0  0  0  0
 22 24  1  0  0  0  0
 20 21  1  0  0  0  0
 19 20  1  0  0  0  0
 17 18  1  0  0  0  0
 17 19  2  0  0  0  0
 15 16  1  0  0  0  0
 15 17  1  0  0  0  0
 14 15  1  0  0  0  0
 14 20  2  0  0  0  0
 11 12  1  0  0  0  0
 11 13  1  0  0  0  0
 11 14  1  0  0  0  0
  9 10  1  0  0  0  0
  9 11  1  0  0  0  0
  9 22  1  0  0  0  0
  7  8  1  0  0  0  0
  7  9  1  0  0  0  0
 26 27  1  0  0  0  0
 26 28  1  0  0  0  0
 26 29  1  0  0  0  0
 24 25  1  0  0  0  0
 24 26  1  0  0  0  0
M  END
$$$$
default_name
  -OEChem-02102213163D

 29 29  0     1  0  0  0  0  0999 V2000
   -3.6042   -3.5728    1.4576 H   0  0  0  0  0  0  0  0  0  0  0  0
   -3.5202   -2.6488    0.8866 C   0  0  0  0  0  0  0  0  0  0  0  0
   -4.2052   -1.9048    1.2896 H   0  0  0  0  0  0  0  0  0  0  0  0
   -3.7552   -2.8428   -0.1584 H   0  0  0  0  0  0  0  0  0  0  0  0
   -2.1052   -2.1358    0.9946 C   0  0  0  0  0  0  0  0  0  0  0  0
   -1.2852   -2.7288    1.6826 O   0  0  0  0  0  0  0  0  0  0  0  0
   -1.8202   -1.0288    0.3146 N   0  0  0  0  0  0  0  0  0  0  0  0
   -2.5542   -0.5788   -0.2104 H   0  0  0  0  0  0  0  0  0  0  0  0
   -0.5102   -0.3728    0.3086 C   0  0  1  0  0  0  0  0  0  0  0  0
    0.0719   -0.7468    1.1521 H   0  0  0  0  0  0  0  0  0  0  0  0
    0.2338   -0.7427   -0.9878 C   0  0  0  0  0  0  0  0  0  0  0  0
    0.9980   -1.4882   -0.7609 H   0  0  0  0  0  0  0  0  0  0  0  0
   -0.4735   -1.1899   -1.6887 H   0  0  0  0  0  0  0  0  0  0  0  0
    0.8951    0.4322   -1.6605 C   0  0  0  0  0  0  0  0  0  0  0  0
    0.8619    0.7263   -3.0068 N   0  0  0  0  0  0  0  0  0  0  0  0
    0.4553    0.1534   -3.7311 H   0  0  0  0  0  0  0  0  0  0  0  0
    1.4716    1.9097   -3.1888 C   0  0  0  0  0  0  0  0  0  0  0  0
    1.6081    2.4034   -4.1432 H   0  0  0  0  0  0  0  0  0  0  0  0
    1.8891    2.4027   -2.0136 N   0  0  0  0  0  0  0  0  0  0  0  0
    1.5323    1.4708   -1.0354 C   0  0  0  0  0  0  0  0  0  0  0  0
    1.6964    1.5680    0.0299 H   0  0  0  0  0  0  0  0  0  0  0  0
   -0.6600    1.1486    0.4782 C   0  0  0  0  0  0  0  0  0  0  0  0
   -1.5001    1.7648   -0.1771 O   0  0  0  0  0  0  0  0  0  0  0  0
    0.1634    1.7559    1.3418 N   0  0  0  0  0  0  0  0  0  0  0  0
    0.8618    1.1897    1.8008 H   0  0  0  0  0  0  0  0  0  0  0  0
    0.1509    3.1886    1.6256 C   0  0  0  0  0  0  0  0  0  0  0  0
   -0.8272    3.4794    2.0152 H   0  0  0  0  0  0  0  0  0  0  0  0
    0.9172    3.4314    2.3624 H   0  0  0  0  0  0  0  0  0  0  0  0
    0.3414    3.7499    0.7095 H   0  0  0  0  0  0  0  0  0  0  0  0
  5  6  2  0  0  0  0
  5  7  1  0  0  0  0
  2  3  1  0  0  0  0
  2  4  1  0  0  0  0
  2  5  1  0  0  0  0
  1  2  1  0  0  0  0
 22 23  2  0  0  0  0
 22 24  1  0  0  0  0
 20 21  1  0  0  0  0
 19 20  1  0  0  0  0
 17 18  1  0  0  0  0
 17 19  2  0  0  0  0
 15 16  1  0  0  0  0
 15 17  1  0  0  0  0
 14 15  1  0  0  0  0
 14 20  2  0  0  0  0
 11 12  1  0  0  0  0
 11 13  1  0  0  0  0
 11 14  1  0  0  0  0
  9 10  1  0  0  0  0
  9 11  1  0  0  0  0
  9 22  1  0  0  0  0
  7  8  1  0  0  0  0
  7  9  1  0  0  0  0
 26 27  1  0  0  0  0
 26 28  1  0  0  0  0
 26 29  1  0  0  0  0
 24 25  1  0  0  0  0
 24 26  1  0  0  0  0
M  END
$$$$
default_name
  -OEChem-02102213163D

 29 29  0     1  0  0  0  0  0999 V2000
   -3.6042   -3.5728    1.4576 H   0  0  0  0  0  0  0  0  0  0  0  0
   -3.5202   -2.6488    0.8866 C   0  0  0  0  0  0  0  0  0  0  0  0
   -4.2052   -1.9048    1.2896 H   0  0  0  0  0  0  0  0  0  0  0  0
   -3.7552   -2.8428   -0.1584 H   0  0  0  0  0  0  0  0  0  0  0  0
   -2.1052   -2.1358    0.9946 C   0  0  0  0  0  0  0  0  0  0  0  0
   -1.2852   -2.7288    1.6826 O   0  0  0  0  0  0  0  0  0  0  0  0
   -1.8202   -1.0288    0.3146 N   0  0  0  0  0  0  0  0  0  0  0  0
   -2.5542   -0.5788   -0.2104 H   0  0  0  0  0  0  0  0  0  0  0  0
   -0.5102   -0.3728    0.3086 C   0  0  1  0  0  0  0  0  0  0  0  0
    0.0719   -0.7468    1.1521 H   0  0  0  0  0  0  0  0  0  0  0  0
    0.2338   -0.7427   -0.9878 C   0  0  0  0  0  0  0  0  0  0  0  0
    0.9980   -1.4882   -0.7609 H   0  0  0  0  0  0  0  0  0  0  0  0
   -0.4735   -1.1899   -1.6887 H   0  0  0  0  0  0  0  0  0  0  0  0
    0.8951    0.4322   -1.6605 C   0  0  0  0  0  0  0  0  0  0  0  0
    0.6375    0.8948   -2.9332 N   0  0  0  0  0  0  0  0  0  0  0  0
    0.0279    0.4625   -3.6112 H   0  0  0  0  0  0  0  0  0  0  0  0
    1.3455    2.0218   -3.1169 C   0  0  0  0  0  0  0  0  0  0  0  0
    1.3548    2.6145   -4.0235 H   0  0  0  0  0  0  0  0  0  0  0  0
    2.0435    2.3174   -2.0107 N   0  0  0  0  0  0  0  0  0  0  0  0
    1.7688    1.3123   -1.0797 C   0  0  0  0  0  0  0  0  0  0  0  0
    2.1487    1.2575   -0.0677 H   0  0  0  0  0  0  0  0  0  0  0  0
   -0.6600    1.1486    0.4782 C   0  0  0  0  0  0  0  0  0  0  0  0
   -1.5001    1.7648   -0.1771 O   0  0  0  0  0  0  0  0  0  0  0  0
    0.1634    1.7559    1.3418 N   0  0  0  0  0  0  0  0  0  0  0  0
    0.8618    1.1897    1.8008 H   0  0  0  0  0  0  0  0  0  0  0  0
    0.1509    3.1886    1.6256 C   0  0  0  0  0  0  0  0  0  0  0  0
   -0.8272    3.4794    2.0152 H   0  0  0  0  0  0  0  0  0  0  0  0
    0.9172    3.4314    2.3624 H   0  0  0  0  0  0  0  0  0  0  0  0
    0.3414    3.7499    0.7095 H   0  0  0  0  0  0  0  0  0  0  0  0
  5  6  2  0  0  0  0
  5  7  1  0  0  0  0
  2  3  1  0  0  0  0
  2  4  1  0  0  0  0
  2  5  1  0  0  0  0
  1  2  1  0  0  0  0
 22 23  2  0  0  0  0
 22 24  1  0  0  0  0
 20 21  1  0  0  0  0
 19 20  1  0  0  0  0
 17 18  1  0  0  0  0
 17 19  2  0  0  0  0
 15 16  1  0  0  0  0
 15 17  1  0  0  0  0
 14 15  1  0  0  0  0
 14 20  2  0  0  0  0
 11 12  1  0  0  0  0
 11 13  1  0  0  0  0
 11 14  1  0  0  0  0
  9 10  1  0  0  0  0
  9 11  1  0  0  0  0
  9 22  1  0  0  0  0
  7  8  1  0  0  0  0
  7  9  1  0  0  0  0
 26 27  1  0  0  0  0
 26 28  1  0  0  0  0
 26 29  1  0  0  0  0
 24 25  1  0  0  0  0
 24 26  1  0  0  0  0
M  END
$$$$
default_name
  -OEChem-02102213163D

 29 29  0     1  0  0  0  0  0999 V2000
   -3.6042   -3.5728    1.4576 H   0  0  0  0  0  0  0  0  0  0  0  0
   -3.5202   -2.6488    0.8866 C   0  0  0  0  0  0  0  0  0  0  0  0
   -4.2052   -1.9048    1.2896 H   0  0  0  0  0  0  0  0  0  0  0  0
   -3.7552   -2.8428   -0.1584 H   0  0  0  0  0  0  0  0  0  0  0  0
   -2.1052   -2.1358    0.9946 C   0  0  0  0  0  0  0  0  0  0  0  0
   -1.2852   -2.7288    1.6826 O   0  0  0  0  0  0  0  0  0  0  0  0
   -1.8202   -1.0288    0.3146 N   0  0  0  0  0  0  0  0  0  0  0  0
   -2.5542   -0.5788   -0.2104 H   0  0  0  0  0  0  0  0  0  0  0  0
   -0.5102   -0.3728    0.3086 C   0  0  1  0  0  0  0  0  0  0  0  0
    0.0719   -0.7468    1.1521 H   0  0  0  0  0  0  0  0  0  0  0  0
    0.2338   -0.7427   -0.9878 C   0  0  0  0  0  0  0  0  0  0  0  0
    0.9980   -1.4882   -0.7609 H   0  0  0  0  0  0  0  0  0  0  0  0
   -0.4735   -1.1899   -1.6887 H   0  0  0  0  0  0  0  0  0  0  0  0
    0.8951    0.4322   -1.6605 C   0  0  0  0  0  0  0  0  0  0  0  0
    0.4551    1.0750   -2.7977 N   0  0  0  0  0  0  0  0  0  0  0  0
   -0.3251    0.7970   -3.3741 H   0  0  0  0  0  0  0  0  0  0  0  0
    1.2511    2.1366   -3.0094 C   0  0  0  0  0  0  0  0  0  0  0  0
    1.1586    2.8341   -3.8329 H   0  0  0  0  0  0  0  0  0  0  0  0
    2.1834    2.2168   -2.0488 N   0  0  0  0  0  0  0  0  0  0  0  0
    1.9701    1.1369   -1.1881 C   0  0  0  0  0  0  0  0  0  0  0  0
    2.5301    0.9164   -0.2885 H   0  0  0  0  0  0  0  0  0  0  0  0
   -0.6600    1.1486    0.4782 C   0  0  0  0  0  0  0  0  0  0  0  0
   -1.5001    1.7648   -0.1771 O   0  0  0  0  0  0  0  0  0  0  0  0
    0.1634    1.7559    1.3418 N   0  0  0  0  0  0  0  0  0  0  0  0
    0.8618    1.1897    1.8008 H   0  0  0  0  0  0  0  0  0  0  0  0
    0.1509    3.1886    1.6256 C   0  0  0  0  0  0  0  0  0  0  0  0
   -0.8272    3.4794    2.0152 H   0  0  0  0  0  0  0  0  0  0  0  0
    0.9172    3.4314    2.3624 H   0  0  0  0  0  0  0  0  0  0  0  0
    0.3414    3.7499    0.7095 H   0  0  0  0  0  0  0  0  0  0  0  0
  5  6  2  0  0  0  0
  5  7  1  0  0  0  0
  2  3  1  0  0  0  0
  2  4  1  0  0  0  0
  2  5  1  0  0  0  0
  1  2  1  0  0  0  0
 22 23  2  0  0  0  0
 22 24  1  0  0  0  0
 20 21  1  0  0  0  0
 19 20  1  0  0  0  0
 17 18  1  0  0  0  0
 17 19  2  0  0  0  0
 15 16  1  0  0  0  0
 15 17  1  0  0  0  0
 14 15  1  0  0  0  0
 14 20  2  0  0  0  0
 11 12  1  0  0  0  0
 11 13  1  0  0  0  0
 11 14  1  0  0  0  0
  9 10  1  0  0  0  0
  9 11  1  0  0  0  0
  9 22  1  0  0  0  0
  7  8  1  0  0  0  0
  7  9  1  0  0  0  0
 26 27  1  0  0  0  0
 26 28  1  0  0  0  0
 26 29  1  0  0  0  0
 24 25  1  0  0  0  0
 24 26  1  0  0  0  0
M  END
$$$$
default_name
  -OEChem-02102213163D

 29 29  0     1  0  0  0  0  0999 V2000
   -3.6042   -3.5728    1.4576 H   0  0  0  0  0  0  0  0  0  0  0  0
   -3.5202   -2.6488    0.8866 C   0  0  0  0  0  0  0  0  0  0  0  0
   -4.2052   -1.9048    1.2896 H   0  0  0  0  0  0  0  0  0  0  0  0
   -3.7552   -2.8428   -0.1584 H   0  0  0  0  0  0  0  0  0  0  0  0
   -2.1052   -2.1358    0.9946 C   0  0  0  0  0  0  0  0  0  0  0  0
   -1.2852   -2.7288    1.6826 O   0  0  0  0  0  0  0  0  0  0  0  0
   -1.8202   -1.0288    0.3146 N   0  0  0  0  0  0  0  0  0  0  0  0
   -2.5542   -0.5788   -0.2104 H   0  0  0  0  0  0  0  0  0  0  0  0
   -0.5102   -0.3728    0.3086 C   0  0  1  0  0  0  0  0  0  0  0  0
    0.0719   -0.7468    1.1521 H   0  0  0  0  0  0  0  0  0  0  0  0
    0.2338   -0.7427   -0.9878 C   0  0  0  0  0  0  0  0  0  0  0  0
    0.9980   -1.4882   -0.7609 H   0  0  0  0  0  0  0  0  0  0  0  0
   -0.4735   -1.1899   -1.6887 H   0  0  0  0  0  0  0  0  0  0  0  0
    0.8951    0.4322   -1.6605 C   0  0  0  0  0  0  0  0  0  0  0  0
    0.3270    1.2548   -2.6095 N   0  0  0  0  0  0  0  0  0  0  0  0
   -0.5795    1.1339   -3.0358 H   0  0  0  0  0  0  0  0  0  0  0  0
    1.1949    2.2460   -2.8734 C   0  0  0  0  0  0  0  0  0  0  0  0
    1.0330    3.0472   -3.5842 H   0  0  0  0  0  0  0  0  0  0  0  0
    2.2992    2.1079   -2.1252 N   0  0  0  0  0  0  0  0  0  0  0  0
    2.1224    0.9565   -1.3535 C   0  0  0  0  0  0  0  0  0  0  0  0
    2.8144    0.5680   -0.6176 H   0  0  0  0  0  0  0  0  0  0  0  0
   -0.6600    1.1486    0.4782 C   0  0  0  0  0  0  0  0  0  0  0  0
   -1.5001    1.7648   -0.1771 O   0  0  0  0  0  0  0  0  0  0  0  0
    0.1634    1.7559    1.3418 N   0  0  0  0  0  0  0  0  0  0  0  0
    0.8618    1.1897    1.8008 H   0  0  0  0  0  0  0  0  0  0  0  0
    0.1509    3.1886    1.6256 C   0  0  0  0  0  0  0  0  0  0  0  0
   -0.8272    3.4794    2.0152 H   0  0  0  0  0  0  0  0  0  0  0  0
    0.9172    3.4314    2.3624 H   0  0  0  0  0  0  0  0  0  0  0  0
    0.3414    3.7499    0.7095 H   0  0  0  0  0  0  0  0  0  0  0  0
  5  6  2  0  0  0  0
  5  7  1  0  0  0  0
  2  3  1  0  0  0  0
  2  4  1  0  0  0  0
  2  5  1  0  0  0  0
  1  2  1  0  0  0  0
 22 23  2  0  0  0  0
 22 24  1  0  0  0  0
 20 21  1  0  0  0  0
 19 20  1  0  0  0  0
 17 18  1  0  0  0  0
 17 19  2  0  0  0  0
 15 16  1  0  0  0  0
 15 17  1  0  0  0  0
 14 15  1  0  0  0  0
 14 20  2  0  0  0  0
 11 12  1  0  0  0  0
 11 13  1  0  0  0  0
 11 14  1  0  0  0  0
  9 10  1  0  0  0  0
  9 11  1  0  0  0  0
  9 22  1  0  0  0  0
  7  8  1  0  0  0  0
  7  9  1  0  0  0  0
 26 27  1  0  0  0  0
 26 28  1  0  0  0  0
 26 29  1  0  0  0  0
 24 25  1  0  0  0  0
 24 26  1  0  0  0  0
M  END
$$$$
default_name
  -OEChem-02102213163D

 29 29  0     1  0  0  0  0  0999 V2000
   -3.6042   -3.5728    1.4576 H   0  0  0  0  0  0  0  0  0  0  0  0
   -3.5202   -2.6488    0.8866 C   0  0  0  0  0  0  0  0  0  0  0  0
   -4.2052   -1.9048    1.2896 H   0  0  0  0  0  0  0  0  0  0  0  0
   -3.7552   -2.8428   -0.1584 H   0  0  0  0  0  0  0  0  0  0  0  0
   -2.1052   -2.1358    0.9946 C   0  0  0  0  0  0  0  0  0  0  0  0
   -1.2852   -2.7288    1.6826 O   0  0  0  0  0  0  0  0  0  0  0  0
   -1.8202   -1.0288    0.3146 N   0  0  0  0  0  0  0  0  0  0  0  0
   -2.5542   -0.5788   -0.2104 H   0  0  0  0  0  0  0  0  0  0  0  0
   -0.5102   -0.3728    0.3086 C   0  0  1  0  0  0  0  0  0  0  0  0
    0.0719   -0.7468    1.1521 H   0  0  0  0  0  0  0  0  0  0  0  0
    0.2338   -0.7427   -0.9878 C   0  0  0  0  0  0  0  0  0  0  0  0
    0.9980   -1.4882   -0.7609 H   0  0  0  0  0  0  0  0  0  0  0  0
   -0.4735   -1.1899   -1.6887 H   0  0  0  0  0  0  0  0  0  0  0  0
    0.8951    0.4322   -1.6605 C   0  0  0  0  0  0  0  0  0  0  0  0
    0.2621    1.4219   -2.3815 N   0  0  0  0  0  0  0  0  0  0  0  0
   -0.7180    1.4502   -2.6195 H   0  0  0  0  0  0  0  0  0  0  0  0
    1.1807    2.3428   -2.7183 C   0  0  0  0  0  0  0  0  0  0  0  0
    0.9865    3.2393   -3.2944 H   0  0  0  0  0  0  0  0  0  0  0  0
    2.3831    1.9979   -2.2348 N   0  0  0  0  0  0  0  0  0  0  0  0
    2.2152    0.7835   -1.5644 C   0  0  0  0  0  0  0  0  0  0  0  0
    2.9824    0.2359   -1.0324 H   0  0  0  0  0  0  0  0  0  0  0  0
   -0.6600    1.1486    0.4782 C   0  0  0  0  0  0  0  0  0  0  0  0
   -1.5001    1.7648   -0.1771 O   0  0  0  0  0  0  0  0  0  0  0  0
    0.1634    1.7559    1.3418 N   0  0  0  0  0  0  0  0  0  0  0  0
    0.8618    1.1897    1.8008 H   0  0  0  0  0  0  0  0  0  0  0  0
    0.1509    3.1886    1.6256 C   0  0  0  0  0  0  0  0  0  0  0  0
   -0.8272    3.4794    2.0152 H   0  0  0  0  0  0  0  0  0  0  0  0
    0.9172    3.4314    2.3624 H   0  0  0  0  0  0  0  0  0  0  0  0
    0.3414    3.7499    0.7095 H   0  0  0  0  0  0  0  0  0  0  0  0
  5  6  2  0  0  0  0
  5  7  1  0  0  0  0
  2  3  1  0  0  0  0
  2  4  1  0  0  0  0
  2  5  1  0  0  0  0
  1  2  1  0  0  0  0
 22 23  2  0  0  0  0
 22 24  1  0  0  0  0
 20 21  1  0  0  0  0
 19 20  1  0  0  0  0
 17 18  1  0  0  0  0
 17 19  2  0  0  0  0
 15 16  1  0  0  0  0
 15 17  1  0  0  0  0
 14 15  1  0  0  0  0
 14 20  2  0  0  0  0
 11 12  1  0  0  0  0
 11 13  1  0  0  0  0
 11 14  1  0  0  0  0
  9 10  1  0  0  0  0
  9 11  1  0  0  0  0
  9 22  1  0  0  0  0
  7  8  1  0  0  0  0
  7  9  1  0  0  0  0
 26 27  1  0  0  0  0
 26 28  1  0  0  0  0
 26 29  1  0  0  0  0
 24 25  1  0  0  0  0
 24 26  1  0  0  0  0
M  END
$$$$
default_name
  -OEChem-02102213163D

 29 29  0     1  0  0  0  0  0999 V2000
   -3.6042   -3.5728    1.4576 H   0  0  0  0  0  0  0  0  0  0  0  0
   -3.5202   -2.6488    0.8866 C   0  0  0  0  0  0  0  0  0  0  0  0
   -4.2052   -1.9048    1.2896 H   0  0  0  0  0  0  0  0  0  0  0  0
   -3.7552   -2.8428   -0.1584 H   0  0  0  0  0  0  0  0  0  0  0  0
   -2.1052   -2.1358    0.9946 C   0  0  0  0  0  0  0  0  0  0  0  0
   -1.2852   -2.7288    1.6826 O   0  0  0  0  0  0  0  0  0  0  0  0
   -1.8202   -1.0288    0.3146 N   0  0  0  0  0  0  0  0  0  0  0  0
   -2.5542   -0.5788   -0.2104 H   0  0  0  0  0  0  0  0  0  0  0  0
   -0.5102   -0.3728    0.3086 C   0  0  1  0  0  0  0  0  0  0  0  0
    0.0719   -0.7468    1.1521 H   0  0  0  0  0  0  0  0  0  0  0  0
    0.2338   -0.7427   -0.9878 C   0  0  0  0  0  0  0  0  0  0  0  0
    0.9980   -1.4882   -0.7609 H   0  0  0  0  0  0  0  0  0  0  0  0
   -0.4735   -1.1899   -1.6887 H   0  0  0  0  0  0  0  0  0  0  0  0
    0.8951    0.4322   -1.6605 C   0  0  0  0  0  0  0  0  0  0  0  0
    0.2648    1.5649   -2.1291 N   0  0  0  0  0  0  0  0  0  0  0  0
   -0.7313    1.7245   -2.1534 H   0  0  0  0  0  0  0  0  0  0  0  0
    1.2095    2.4204   -2.5546 C   0  0  0  0  0  0  0  0  0  0  0  0
    1.0222    3.3973   -2.9833 H   0  0  0  0  0  0  0  0  0  0  0  0
    2.4293    1.8945   -2.3701 N   0  0  0  0  0  0  0  0  0  0  0  0
    2.2424    0.6296   -1.8065 C   0  0  0  0  0  0  0  0  0  0  0  0
    3.0226   -0.0571   -1.5047 H   0  0  0  0  0  0  0  0  0  0  0  0
   -0.6600    1.1486    0.4782 C   0  0  0  0  0  0  0  0  0  0  0  0
   -1.5001    1.7648   -0.1771 O   0  0  0  0  0  0  0  0  0  0  0  0
    0.1634    1.7559    1.3418 N   0  0  0  0  0  0  0  0  0  0  0  0
    0.8618    1.1897    1.8008 H   0  0  0  0  0  0  0  0  0  0  0  0
    0.1509    3.1886    1.6256 C   0  0  0  0  0  0  0  0  0  0  0  0
   -0.8272    3.4794    2.0152 H   0  0  0  0  0  0  0  0  0  0  0  0
    0.9172    3.4314    2.3624 H   0  0  0  0  0  0  0  0  0  0  0  0
    0.3414    3.7499    0.7095 H   0  0  0  0  0  0  0  0  0  0  0  0
  5  6  2  0  0  0  0
  5  7  1  0  0  0  0
  2  3  1  0  0  0  0
  2  4  1  0  0  0  0
  2  5  1  0  0  0  0
  1  2  1  0  0  0  0
 22 23  2  0  0  0  0
 22 24  1  0  0  0  0
 20 21  1  0  0  0  0
 19 20  1  0  0  0  0
 17 18  1  0  0  0  0
 17 19  2  0  0  0  0
 15 16  1  0  0  0  0
 15 17  1  0  0  0  0
 14 15  1  0  0  0  0
 14 20  2  0  0  0  0
 11 12  1  0  0  0  0
 11 13  1  0  0  0  0
 11 14  1  0  0  0  0
  9 10  1  0  0  0  0
  9 11  1  0  0  0  0
  9 22  1  0  0  0  0
  7  8  1  0  0  0  0
  7  9  1  0  0  0  0
 26 27  1  0  0  0  0
 26 28  1  0  0  0  0
 26 29  1  0  0  0  0
 24 25  1  0  0  0  0
 24 26  1  0  0  0  0
M  END
$$$$
default_name
  -OEChem-02102213163D

 29 29  0     1  0  0  0  0  0999 V2000
   -3.6042   -3.5728    1.4576 H   0  0  0  0  0  0  0  0  0  0  0  0
   -3.5202   -2.6488    0.8866 C   0  0  0  0  0  0  0  0  0  0  0  0
   -4.2052   -1.9048    1.2896 H   0  0  0  0  0  0  0  0  0  0  0  0
   -3.7552   -2.8428   -0.1584 H   0  0  0  0  0  0  0  0  0  0  0  0
   -2.1052   -2.1358    0.9946 C   0  0  0  0  0  0  0  0  0  0  0  0
   -1.2852   -2.7288    1.6826 O   0  0  0  0  0  0  0  0  0  0  0  0
   -1.8202   -1.0288    0.3146 N   0  0  0  0  0  0  0  0  0  0  0  0
   -2.5542   -0.5788   -0.2104 H   0  0  0  0  0  0  0  0  0  0  0  0
   -0.5102   -0.3728    0.3086 C   0  0  1  0  0  0  0  0  0  0  0  0
    0.0719   -0.7468    1.1521 H   0  0  0  0  0  0  0  0  0  0  0  0
    0.2338   -0.7427   -0.9878 C   0  0  0  0  0  0  0  0  0  0  0  0
    0.9980   -1.4882   -0.7609 H   0  0  0  0  0  0  0  0  0  0  0  0
   -0.4735   -1.1899   -1.6887 H   0  0  0  0  0  0  0  0  0  0  0  0
    0.8951    0.4322   -1.6605 C   0  0  0  0  0  0  0  0  0  0  0  0
    0.3347    1.6741   -1.8697 N   0  0  0  0  0  0  0  0  0  0  0  0
   -0.6183    1.9381   -1.6694 H   0  0  0  0  0  0  0  0  0  0  0  0
    1.2793    2.4733   -2.3934 C   0  0  0  0  0  0  0  0  0  0  0  0
    1.1378    3.5104   -2.6720 H   0  0  0  0  0  0  0  0  0  0  0  0
    2.4346    1.8046   -2.5218 N   0  0  0  0  0  0  0  0  0  0  0  0
    2.2019    0.5053   -2.0633 C   0  0  0  0  0  0  0  0  0  0  0  0
    2.9322   -0.2911   -2.0023 H   0  0  0  0  0  0  0  0  0  0  0  0
   -0.6600    1.1486    0.4782 C   0  0  0  0  0  0  0  0  0  0  0  0
   -1.5001    1.7648   -0.1771 O   0  0  0  0  0  0  0  0  0  0  0  0
    0.1634    1.7559    1.3418 N   0  0  0  0  0  0  0  0  0  0  0  0
    0.8618    1.1897    1.8008 H   0  0  0  0  0  0  0  0  0  0  0  0
    0.1509    3.1886    1.6256 C   0  0  0  0  0  0  0  0  0  0  0  0
   -0.8272    3.4794    2.0152 H   0  0  0  0  0  0  0  0  0  0  0  0
    0.9172    3.4314    2.3624 H   0  0  0  0  0  0  0  0  0  0  0  0
    0.3414    3.7499    0.7095 H   0  0  0  0  0  0  0  0  0  0  0  0
  5  6  2  0  0  0  0
  5  7  1  0  0  0  0
  2  3  1  0  0  0  0
  2  4  1  0  0  0  0
  2  5  1  0  0  0  0
  1  2  1  0  0  0  0
 22 23  2  0  0  0  0
 22 24  1  0  0  0  0
 20 21  1  0  0  0  0
 19 20  1  0  0  0  0
 17 18  1  0  0  0  0
 17 19  2  0  0  0  0
 15 16  1  0  0  0  0
 15 17  1  0  0  0  0
 14 15  1  0  0  0  0
 14 20  2  0  0  0  0
 11 12  1  0  0  0  0
 11 13  1  0  0  0  0
 11 14  1  0  0  0  0
  9 10  1  0  0  0  0
  9 11  1  0  0  0  0
  9 22  1  0  0  0  0
  7  8  1  0  0  0  0
  7  9  1  0  0  0  0
 26 27  1  0  0  0  0
 26 28  1  0  0  0  0
 26 29  1  0  0  0  0
 24 25  1  0  0  0  0
 24 26  1  0  0  0  0
M  END
$$$$
default_name
  -OEChem-02102213163D

 29 29  0     1  0  0  0  0  0999 V2000
   -3.6042   -3.5728    1.4576 H   0  0  0  0  0  0  0  0  0  0  0  0
   -3.5202   -2.6488    0.8866 C   0  0  0  0  0  0  0  0  0  0  0  0
   -4.2052   -1.9048    1.2896 H   0  0  0  0  0  0  0  0  0  0  0  0
   -3.7552   -2.8428   -0.1584 H   0  0  0  0  0  0  0  0  0  0  0  0
   -2.1052   -2.1358    0.9946 C   0  0  0  0  0  0  0  0  0  0  0  0
   -1.2852   -2.7288    1.6826 O   0  0  0  0  0  0  0  0  0  0  0  0
   -1.8202   -1.0288    0.3146 N   0  0  0  0  0  0  0  0  0  0  0  0
   -2.5542   -0.5788   -0.2104 H   0  0  0  0  0  0  0  0  0  0  0  0
   -0.5102   -0.3728    0.3086 C   0  0  1  0  0  0  0  0  0  0  0  0
    0.0719   -0.7468    1.1521 H   0  0  0  0  0  0  0  0  0  0  0  0
    0.2338   -0.7427   -0.9878 C   0  0  0  0  0  0  0  0  0  0  0  0
    0.9980   -1.4882   -0.7609 H   0  0  0  0  0  0  0  0  0  0  0  0
   -0.4735   -1.1899   -1.6887 H   0  0  0  0  0  0  0  0  0  0  0  0
    0.8951    0.4322   -1.6605 C   0  0  0  0  0  0  0  0  0  0  0  0
    0.4673    1.7419   -1.6208 N   0  0  0  0  0  0  0  0  0  0  0  0
   -0.3868    2.0763   -1.2004 H   0  0  0  0  0  0  0  0  0  0  0  0
    1.3854    2.4981   -2.2459 C   0  0  0  0  0  0  0  0  0  0  0  0
    1.3253    3.5710   -2.3819 H   0  0  0  0  0  0  0  0  0  0  0  0
    2.3988    1.7344   -2.6796 N   0  0  0  0  0  0  0  0  0  0  0  0
    2.0967    0.4191   -2.3173 C   0  0  0  0  0  0  0  0  0  0  0  0
    2.7175   -0.4502   -2.4912 H   0  0  0  0  0  0  0  0  0  0  0  0
   -0.6600    1.1486    0.4782 C   0  0  0  0  0  0  0  0  0  0  0  0
   -1.5001    1.7648   -0.1771 O   0  0  0  0  0  0  0  0  0  0  0  0
    0.1634    1.7559    1.3418 N   0  0  0  0  0  0  0  0  0  0  0  0
    0.8618    1.1897    1.8008 H   0  0  0  0  0  0  0  0  0  0  0  0
    0.1509    3.1886    1.6256 C   0  0  0  0  0  0  0  0  0  0  0  0
   -0.8272    3.4794    2.0152 H   0  0  0  0  0  0  0  0  0  0  0  0
    0.9172    3.4314    2.3624 H   0  0  0  0  0  0  0  0  0  0  0  0
    0.3414    3.7499    0.7095 H   0  0  0  0  0  0  0  0  0  0  0  0
  5  6  2  0  0  0  0
  5  7  1  0  0  0  0
  2  3  1  0  0  0  0
  2  4  1  0  0  0  0
  2  5  1  0  0  0  0
  1  2  1  0  0  0  0
 22 23  2  0  0  0  0
 22 24  1  0  0  0  0
 20 21  1  0  0  0  0
 19 20  1  0  0  0  0
 17 18  1  0  0  0  0
 17 19  2  0  0  0  0
 15 16  1  0  0  0  0
 15 17  1  0  0  0  0
 14 15  1  0  0  0  0
 14 20  2  0  0  0  0
 11 12  1  0  0  0  0
 11 13  1  0  0  0  0
 11 14  1  0  0  0  0
  9 10  1  0  0  0  0
  9 11  1  0  0  0  0
  9 22  1  0  0  0  0
  7  8  1  0  0  0  0
  7  9  1  0  0  0  0
 26 27  1  0  0  0  0
 26 28  1  0  0  0  0
 26 29  1  0  0  0  0
 24 25  1  0  0  0  0
 24 26  1  0  0  0  0
M  END
$$$$
default_name
  -OEChem-02102213163D

 29 29  0     1  0  0  0  0  0999 V2000
   -3.6042   -3.5728    1.4576 H   0  0  0  0  0  0  0  0  0  0  0  0
   -3.5202   -2.6488    0.8866 C   0  0  0  0  0  0  0  0  0  0  0  0
   -4.2052   -1.9048    1.2896 H   0  0  0  0  0  0  0  0  0  0  0  0
   -3.7552   -2.8428   -0.1584 H   0  0  0  0  0  0  0  0  0  0  0  0
   -2.1052   -2.1358    0.9946 C   0  0  0  0  0  0  0  0  0  0  0  0
   -1.2852   -2.7288    1.6826 O   0  0  0  0  0  0  0  0  0  0  0  0
   -1.8202   -1.0288    0.3146 N   0  0  0  0  0  0  0  0  0  0  0  0
   -2.5542   -0.5788   -0.2104 H   0  0  0  0  0  0  0  0  0  0  0  0
   -0.5102   -0.3728    0.3086 C   0  0  1  0  0  0  0  0  0  0  0  0
    0.0719   -0.7468    1.1521 H   0  0  0  0  0  0  0  0  0  0  0  0
    0.2338   -0.7427   -0.9878 C   0  0  0  0  0  0  0  0  0  0  0  0
    0.9980   -1.4882   -0.7609 H   0  0  0  0  0  0  0  0  0  0  0  0
   -0.4735   -1.1899   -1.6887 H   0  0  0  0  0  0  0  0  0  0  0  0
    0.8951    0.4322   -1.6605 C   0  0  0  0  0  0  0  0  0  0  0  0
    0.6535    1.7639   -1.3994 N   0  0  0  0  0  0  0  0  0  0  0  0
   -0.0526    2.1298   -0.7784 H   0  0  0  0  0  0  0  0  0  0  0  0
    1.5205    2.4930   -2.1220 C   0  0  0  0  0  0  0  0  0  0  0  0
    1.5720    3.5749   -2.1325 H   0  0  0  0  0  0  0  0  0  0  0  0
    2.3242    1.6887   -2.8329 N   0  0  0  0  0  0  0  0  0  0  0  0
    1.9338    0.3769   -2.5513 C   0  0  0  0  0  0  0  0  0  0  0  0
    2.3930   -0.5235   -2.9383 H   0  0  0  0  0  0  0  0  0  0  0  0
   -0.6600    1.1486    0.4782 C   0  0  0  0  0  0  0  0  0  0  0  0
   -1.5001    1.7648   -0.1771 O   0  0  0  0  0  0  0  0  0  0  0  0
    0.1634    1.7559    1.3418 N   0  0  0  0  0  0  0  0  0  0  0  0
    0.8618    1.1897    1.8008 H   0  0  0  0  0  0  0  0  0  0  0  0
    0.1509    3.1886    1.6256 C   0  0  0  0  0  0  0  0  0  0  0  0
   -0.8272    3.4794    2.0152 H   0  0  0  0  0  0  0  0  0  0  0  0
    0.9172    3.4314    2.3624 H   0  0  0  0  0  0  0  0  0  0  0  0
    0.3414    3.7499    0.7095 H   0  0  0  0  0  0  0  0  0  0  0  0
  5  6  2  0  0  0  0
  5  7  1  0  0  0  0
  2  3  1  0  0  0  0
  2  4  1  0  0  0  0
  2  5  1  0  0  0  0
  1  2  1  0  0  0  0
 22 23  2  0  0  0  0
 22 24  1  0  0  0  0
 20 21  1  0  0  0  0
 19 20  1  0  0  0  0
 17 18  1  0  0  0  0
 17 19  2  0  0  0  0
 15 16  1  0  0  0  0
 15 17  1  0  0  0  0
 14 15  1  0  0  0  0
 14 20  2  0  0  0  0
 11 12  1  0  0  0  0
 11 13  1  0  0  0  0
 11 14  1  0  0  0  0
  9 10  1  0  0  0  0
  9 11  1  0  0  0  0
  9 22  1  0  0  0  0
  7  8  1  0  0  0  0
  7  9  1  0  0  0  0
 26 27  1  0  0  0  0
 26 28  1  0  0  0  0
 26 29  1  0  0  0  0
 24 25  1  0  0  0  0
 24 26  1  0  0  0  0
M  END
$$$$
default_name
  -OEChem-02102213163D

 29 29  0     1  0  0  0  0  0999 V2000
   -3.6042   -3.5728    1.4576 H   0  0  0  0  0  0  0  0  0  0  0  0
   -3.5202   -2.6488    0.8866 C   0  0  0  0  0  0  0  0  0  0  0  0
   -4.2052   -1.9048    1.2896 H   0  0  0  0  0  0  0  0  0  0  0  0
   -3.7552   -2.8428   -0.1584 H   0  0  0  0  0  0  0  0  0  0  0  0
   -2.1052   -2.1358    0.9946 C   0  0  0  0  0  0  0  0  0  0  0  0
   -1.2852   -2.7288    1.6826 O   0  0  0  0  0  0  0  0  0  0  0  0
   -1.8202   -1.0288    0.3146 N   0  0  0  0  0  0  0  0  0  0  0  0
   -2.5542   -0.5788   -0.2104 H   0  0  0  0  0  0  0  0  0  0  0  0
   -0.5102   -0.3728    0.3086 C   0  0  1  0  0  0  0  0  0  0  0  0
    0.0719   -0.7468    1.1521 H   0  0  0  0  0  0  0  0  0  0  0  0
    0.2338   -0.7427   -0.9878 C   0  0  0  0  0  0  0  0  0  0  0  0
    0.9980   -1.4882   -0.7609 H   0  0  0  0  0  0  0  0  0  0  0  0
   -0.4735   -1.1899   -1.6887 H   0  0  0  0  0  0  0  0  0  0  0  0
    0.8951    0.4322   -1.6605 C   0  0  0  0  0  0  0  0  0  0  0  0
    0.8805    1.7385   -1.2207 N   0  0  0  0  0  0  0  0  0  0  0  0
    0.3615    2.0949   -0.4321 H   0  0  0  0  0  0  0  0  0  0  0  0
    1.6754    2.4584   -2.0301 C   0  0  0  0  0  0  0  0  0  0  0  0
    1.8611    3.5218   -1.9410 H   0  0  0  0  0  0  0  0  0  0  0  0
    2.2160    1.6705   -2.9710 N   0  0  0  0  0  0  0  0  0  0  0  0
    1.7244    0.3815   -2.7491 C   0  0  0  0  0  0  0  0  0  0  0  0
    1.9809   -0.5061   -3.3130 H   0  0  0  0  0  0  0  0  0  0  0  0
   -0.6600    1.1486    0.4782 C   0  0  0  0  0  0  0  0  0  0  0  0
   -1.5001    1.7648   -0.1771 O   0  0  0  0  0  0  0  0  0  0  0  0
    0.1634    1.7559    1.3418 N   0  0  0  0  0  0  0  0  0  0  0  0
    0.8618    1.1897    1.8008 H   0  0  0  0  0  0  0  0  0  0  0  0
    0.1509    3.1886    1.6256 C   0  0  0  0  0  0  0  0  0  0  0  0
   -0.8272    3.4794    2.0152 H   0  0  0  0  0  0  0  0  0  0  0  0
    0.9172    3.4314    2.3624 H   0  0  0  0  0  0  0  0  0  0  0  0
    0.3414    3.7499    0.7095 H   0  0  0  0  0  0  0  0  0  0  0  0
  5  6  2  0  0  0  0
  5  7  1  0  0  0  0
  2  3  1  0  0  0  0
  2  4  1  0  0  0  0
  2  5  1  0  0  0  0
  1  2  1  0  0  0  0
 22 23  2  0  0  0  0
 22 24  1  0  0  0  0
 20 21  1  0  0  0  0
 19 20  1  0  0  0  0
 17 18  1  0  0  0  0
 17 19  2  0  0  0  0
 15 16  1  0  0  0  0
 15 17  1  0  0  0  0
 14 15  1  0  0  0  0
 14 20  2  0  0  0  0
 11 12  1  0  0  0  0
 11 13  1  0  0  0  0
 11 14  1  0  0  0  0
  9 10  1  0  0  0  0
  9 11  1  0  0  0  0
  9 22  1  0  0  0  0
  7  8  1  0  0  0  0
  7  9  1  0  0  0  0
 26 27  1  0  0  0  0
 26 28  1  0  0  0  0
 26 29  1  0  0  0  0
 24 25  1  0  0  0  0
 24 26  1  0  0  0  0
M  END
$$$$
default_name
  -OEChem-02102213163D

 29 29  0     1  0  0  0  0  0999 V2000
   -3.6042   -3.5728    1.4576 H   0  0  0  0  0  0  0  0  0  0  0  0
   -3.5202   -2.6488    0.8866 C   0  0  0  0  0  0  0  0  0  0  0  0
   -4.2052   -1.9048    1.2896 H   0  0  0  0  0  0  0  0  0  0  0  0
   -3.7552   -2.8428   -0.1584 H   0  0  0  0  0  0  0  0  0  0  0  0
   -2.1052   -2.1358    0.9946 C   0  0  0  0  0  0  0  0  0  0  0  0
   -1.2852   -2.7288    1.6826 O   0  0  0  0  0  0  0  0  0  0  0  0
   -1.8202   -1.0288    0.3146 N   0  0  0  0  0  0  0  0  0  0  0  0
   -2.5542   -0.5788   -0.2104 H   0  0  0  0  0  0  0  0  0  0  0  0
   -0.5102   -0.3728    0.3086 C   0  0  1  0  0  0  0  0  0  0  0  0
    0.0719   -0.7468    1.1521 H   0  0  0  0  0  0  0  0  0  0  0  0
    0.2338   -0.7427   -0.9878 C   0  0  0  0  0  0  0  0  0  0  0  0
    0.9980   -1.4882   -0.7609 H   0  0  0  0  0  0  0  0  0  0  0  0
   -0.4735   -1.1899   -1.6887 H   0  0  0  0  0  0  0  0  0  0  0  0
    0.8951    0.4322   -1.6605 C   0  0  0  0  0  0  0  0  0  0  0  0
    1.1329    1.6674   -1.0967 N   0  0  0  0  0  0  0  0  0  0  0  0
    0.8274    1.9740   -0.1852 H   0  0  0  0  0  0  0  0  0  0  0  0
    1.8396    2.3967   -1.9765 C   0  0  0  0  0  0  0  0  0  0  0  0
    2.1728    3.4154   -1.8204 H   0  0  0  0  0  0  0  0  0  0  0  0
    2.0814    1.6812   -3.0846 N   0  0  0  0  0  0  0  0  0  0  0  0
    1.4827    0.4326   -2.8975 C   0  0  0  0  0  0  0  0  0  0  0  0
    1.5092   -0.3990   -3.5897 H   0  0  0  0  0  0  0  0  0  0  0  0
   -0.6600    1.1486    0.4782 C   0  0  0  0  0  0  0  0  0  0  0  0
   -1.5001    1.7648   -0.1771 O   0  0  0  0  0  0  0  0  0  0  0  0
    0.1634    1.7559    1.3418 N   0  0  0  0  0  0  0  0  0  0  0  0
    0.8618    1.1897    1.8008 H   0  0  0  0  0  0  0  0  0  0  0  0
    0.1509    3.1886    1.6256 C   0  0  0  0  0  0  0  0  0  0  0  0
   -0.8272    3.4794    2.0152 H   0  0  0  0  0  0  0  0  0  0  0  0
    0.9172    3.4314    2.3624 H   0  0  0  0  0  0  0  0  0  0  0  0
    0.3414    3.7499    0.7095 H   0  0  0  0  0  0  0  0  0  0  0  0
  5  6  2  0  0  0  0
  5  7  1  0  0  0  0
  2  3  1  0  0  0  0
  2  4  1  0  0  0  0
  2  5  1  0  0  0  0
  1  2  1  0  0  0  0
 22 23  2  0  0  0  0
 22 24  1  0  0  0  0
 20 21  1  0  0  0  0
 19 20  1  0  0  0  0
 17 18  1  0  0  0  0
 17 19  2  0  0  0  0
 15 16  1  0  0  0  0
 15 17  1  0  0  0  0
 14 15  1  0  0  0  0
 14 20  2  0  0  0  0
 11 12  1  0  0  0  0
 11 13  1  0  0  0  0
 11 14  1  0  0  0  0
  9 10  1  0  0  0  0
  9 11  1  0  0  0  0
  9 22  1  0  0  0  0
  7  8  1  0  0  0  0
  7  9  1  0  0  0  0
 26 27  1  0  0  0  0
 26 28  1  0  0  0  0
 26 29  1  0  0  0  0
 24 25  1  0  0  0  0
 24 26  1  0  0  0  0
M  END
$$$$
default_name
  -OEChem-02102213163D

 29 29  0     1  0  0  0  0  0999 V2000
   -3.6042   -3.5728    1.4576 H   0  0  0  0  0  0  0  0  0  0  0  0
   -3.5202   -2.6488    0.8866 C   0  0  0  0  0  0  0  0  0  0  0  0
   -4.2052   -1.9048    1.2896 H   0  0  0  0  0  0  0  0  0  0  0  0
   -3.7552   -2.8428   -0.1584 H   0  0  0  0  0  0  0  0  0  0  0  0
   -2.1052   -2.1358    0.9946 C   0  0  0  0  0  0  0  0  0  0  0  0
   -1.2852   -2.7288    1.6826 O   0  0  0  0  0  0  0  0  0  0  0  0
   -1.8202   -1.0288    0.3146 N   0  0  0  0  0  0  0  0  0  0  0  0
   -2.5542   -0.5788   -0.2104 H   0  0  0  0  0  0  0  0  0  0  0  0
   -0.5102   -0.3728    0.3086 C   0  0  1  0  0  0  0  0  0  0  0  0
    0.0719   -0.7468    1.1521 H   0  0  0  0  0  0  0  0  0  0  0  0
    0.2338   -0.7427   -0.9878 C   0  0  0  0  0  0  0  0  0  0  0  0
    0.9980   -1.4882   -0.7609 H   0  0  0  0  0  0  0  0  0  0  0  0
   -0.4735   -1.1899   -1.6887 H   0  0  0  0  0  0  0  0  0  0  0  0
    0.8951    0.4322   -1.6605 C   0  0  0  0  0  0  0  0  0  0  0  0
    1.3935    1.5554   -1.0360 N   0  0  0  0  0  0  0  0  0  0  0  0
    1.3133    1.7754   -0.0545 H   0  0  0  0  0  0  0  0  0  0  0  0
    2.0018    2.3120   -1.9650 C   0  0  0  0  0  0  0  0  0  0  0  0
    2.4859    3.2629   -1.7790 H   0  0  0  0  0  0  0  0  0  0  0  0
    1.9298    1.7199   -3.1660 N   0  0  0  0  0  0  0  0  0  0  0  0
    1.2252    0.5267   -2.9862 C   0  0  0  0  0  0  0  0  0  0  0  0
    1.0101   -0.2097   -3.7497 H   0  0  0  0  0  0  0  0  0  0  0  0
   -0.6600    1.1486    0.4782 C   0  0  0  0  0  0  0  0  0  0  0  0
   -1.5001    1.7648   -0.1771 O   0  0  0  0  0  0  0  0  0  0  0  0
    0.1634    1.7559    1.3418 N   0  0  0  0  0  0  0  0  0  0  0  0
    0.8618    1.1897    1.8008 H   0  0  0  0  0  0  0  0  0  0  0  0
    0.1509    3.1886    1.6256 C   0  0  0  0  0  0  0  0  0  0  0  0
   -0.8272    3.4794    2.0152 H   0  0  0  0  0  0  0  0  0  0  0  0
    0.9172    3.4314    2.3624 H   0  0  0  0  0  0  0  0  0  0  0  0
    0.3414    3.7499    0.7095 H   0  0  0  0  0  0  0  0  0  0  0  0
  5  6  2  0  0  0  0
  5  7  1  0  0  0  0
  2  3  1  0  0  0  0
  2  4  1  0  0  0  0
  2  5  1  0  0  0  0
  1  2  1  0  0  0  0
 22 23  2  0  0  0  0
 22 24  1  0  0  0  0
 20 21  1  0  0  0  0
 19 20  1  0  0  0  0
 17 18  1  0  0  0  0
 17 19  2  0  0  0  0
 15 16  1  0  0  0  0
 15 17  1  0  0  0  0
 14 15  1  0  0  0  0
 14 20  2  0  0  0  0
 11 12  1  0  0  0  0
 11 13  1  0  0  0  0
 11 14  1  0  0  0  0
  9 10  1  0  0  0  0
  9 11  1  0  0  0  0
  9 22  1  0  0  0  0
  7  8  1  0  0  0  0
  7  9  1  0  0  0  0
 26 27  1  0  0  0  0
 26 28  1  0  0  0  0
 26 29  1  0  0  0  0
 24 25  1  0  0  0  0
 24 26  1  0  0  0  0
M  END
$$$$
default_name
  -OEChem-02102213163D

 29 29  0     1  0  0  0  0  0999 V2000
   -3.6042   -3.5728    1.4576 H   0  0  0  0  0  0  0  0  0  0  0  0
   -3.5202   -2.6488    0.8866 C   0  0  0  0  0  0  0  0  0  0  0  0
   -4.2052   -1.9048    1.2896 H   0  0  0  0  0  0  0  0  0  0  0  0
   -3.7552   -2.8428   -0.1584 H   0  0  0  0  0  0  0  0  0  0  0  0
   -2.1052   -2.1358    0.9946 C   0  0  0  0  0  0  0  0  0  0  0  0
   -1.2852   -2.7288    1.6826 O   0  0  0  0  0  0  0  0  0  0  0  0
   -1.8202   -1.0288    0.3146 N   0  0  0  0  0  0  0  0  0  0  0  0
   -2.5542   -0.5788   -0.2104 H   0  0  0  0  0  0  0  0  0  0  0  0
   -0.5102   -0.3728    0.3086 C   0  0  1  0  0  0  0  0  0  0  0  0
    0.0719   -0.7468    1.1521 H   0  0  0  0  0  0  0  0  0  0  0  0
    0.2338   -0.7427   -0.9878 C   0  0  0  0  0  0  0  0  0  0  0  0
    0.9980   -1.4882   -0.7609 H   0  0  0  0  0  0  0  0  0  0  0  0
   -0.4735   -1.1899   -1.6887 H   0  0  0  0  0  0  0  0  0  0  0  0
    0.8951    0.4322   -1.6605 C   0  0  0  0  0  0  0  0  0  0  0  0
    1.6445    1.4103   -1.0427 N   0  0  0  0  0  0  0  0  0  0  0  0
    1.7861    1.5125   -0.0488 H   0  0  0  0  0  0  0  0  0  0  0  0
    2.1511    2.2101   -1.9961 C   0  0  0  0  0  0  0  0  0  0  0  0
    2.7792    3.0747   -1.8194 H   0  0  0  0  0  0  0  0  0  0  0  0
    1.7713    1.7841   -3.2097 N   0  0  0  0  0  0  0  0  0  0  0  0
    0.9694    0.6575   -3.0092 C   0  0  0  0  0  0  0  0  0  0  0  0
    0.5176    0.0491   -3.7819 H   0  0  0  0  0  0  0  0  0  0  0  0
   -0.6600    1.1486    0.4782 C   0  0  0  0  0  0  0  0  0  0  0  0
   -1.5001    1.7648   -0.1771 O   0  0  0  0  0  0  0  0  0  0  0  0
    0.1634    1.7559    1.3418 N   0  0  0  0  0  0  0  0  0  0  0  0
    0.8618    1.1897    1.8008 H   0  0  0  0  0  0  0  0  0  0  0  0
    0.1509    3.1886    1.6256 C   0  0  0  0  0  0  0  0  0  0  0  0
   -0.8272    3.4794    2.0152 H   0  0  0  0  0  0  0  0  0  0  0  0
    0.9172    3.4314    2.3624 H   0  0  0  0  0  0  0  0  0  0  0  0
    0.3414    3.7499    0.7095 H   0  0  0  0  0  0  0  0  0  0  0  0
  5  6  2  0  0  0  0
  5  7  1  0  0  0  0
  2  3  1  0  0  0  0
  2  4  1  0  0  0  0
  2  5  1  0  0  0  0
  1  2  1  0  0  0  0
 22 23  2  0  0  0  0
 22 24  1  0  0  0  0
 20 21  1  0  0  0  0
 19 20  1  0  0  0  0
 17 18  1  0  0  0  0
 17 19  2  0  0  0  0
 15 16  1  0  0  0  0
 15 17  1  0  0  0  0
 14 15  1  0  0  0  0
 14 20  2  0  0  0  0
 11 12  1  0  0  0  0
 11 13  1  0  0  0  0
 11 14  1  0  0  0  0
  9 10  1  0  0  0  0
  9 11  1  0  0  0  0
  9 22  1  0  0  0  0
  7  8  1  0  0  0  0
  7  9  1  0  0  0  0
 26 27  1  0  0  0  0
 26 28  1  0  0  0  0
 26 29  1  0  0  0  0
 24 25  1  0  0  0  0
 24 26  1  0  0  0  0
M  END
$$$$
default_name
  -OEChem-02102213163D

 29 29  0     1  0  0  0  0  0999 V2000
   -3.6042   -3.5728    1.4576 H   0  0  0  0  0  0  0  0  0  0  0  0
   -3.5202   -2.6488    0.8866 C   0  0  0  0  0  0  0  0  0  0  0  0
   -4.2052   -1.9048    1.2896 H   0  0  0  0  0  0  0  0  0  0  0  0
   -3.7552   -2.8428   -0.1584 H   0  0  0  0  0  0  0  0  0  0  0  0
   -2.1052   -2.1358    0.9946 C   0  0  0  0  0  0  0  0  0  0  0  0
   -1.2852   -2.7288    1.6826 O   0  0  0  0  0  0  0  0  0  0  0  0
   -1.8202   -1.0288    0.3146 N   0  0  0  0  0  0  0  0  0  0  0  0
   -2.5542   -0.5788   -0.2104 H   0  0  0  0  0  0  0  0  0  0  0  0
   -0.5102   -0.3728    0.3086 C   0  0  1  0  0  0  0  0  0  0  0  0
    0.0719   -0.7468    1.1521 H   0  0  0  0  0  0  0  0  0  0  0  0
    0.2338   -0.7427   -0.9878 C   0  0  0  0  0  0  0  0  0  0  0  0
    0.9980   -1.4882   -0.7609 H   0  0  0  0  0  0  0  0  0  0  0  0
   -0.4735   -1.1899   -1.6887 H   0  0  0  0  0  0  0  0  0  0  0  0
    0.8951    0.4322   -1.6605 C   0  0  0  0  0  0  0  0  0  0  0  0
    1.8689    1.2419   -1.1163 N   0  0  0  0  0  0  0  0  0  0  0  0
    2.2135    1.2033   -0.1687 H   0  0  0  0  0  0  0  0  0  0  0  0
    2.2772    2.0980   -2.0680 C   0  0  0  0  0  0  0  0  0  0  0  0
    3.0325    2.8636   -1.9390 H   0  0  0  0  0  0  0  0  0  0  0  0
    1.6169    1.8694   -3.2125 N   0  0  0  0  0  0  0  0  0  0  0  0
    0.7329    0.8160   -2.9650 C   0  0  0  0  0  0  0  0  0  0  0  0
    0.0653    0.3596   -3.6843 H   0  0  0  0  0  0  0  0  0  0  0  0
   -0.6600    1.1486    0.4782 C   0  0  0  0  0  0  0  0  0  0  0  0
   -1.5001    1.7648   -0.1771 O   0  0  0  0  0  0  0  0  0  0  0  0
    0.1634    1.7559    1.3418 N   0  0  0  0  0  0  0  0  0  0  0  0
    0.8618    1.1897    1.8008 H   0  0  0  0  0  0  0  0  0  0  0  0
    0.1509    3.1886    1.6256 C   0  0  0  0  0  0  0  0  0  0  0  0
   -0.8272    3.4794    2.0152 H   0  0  0  0  0  0  0  0  0  0  0  0
    0.9172    3.4314    2.3624 H   0  0  0  0  0  0  0  0  0  0  0  0
    0.3414    3.7499    0.7095 H   0  0  0  0  0  0  0  0  0  0  0  0
  5  6  2  0  0  0  0
  5  7  1  0  0  0  0
  2  3  1  0  0  0  0
  2  4  1  0  0  0  0
  2  5  1  0  0  0  0
  1  2  1  0  0  0  0
 22 23  2  0  0  0  0
 22 24  1  0  0  0  0
 20 21  1  0  0  0  0
 19 20  1  0  0  0  0
 17 18  1  0  0  0  0
 17 19  2  0  0  0  0
 15 16  1  0  0  0  0
 15 17  1  0  0  0  0
 14 15  1  0  0  0  0
 14 20  2  0  0  0  0
 11 12  1  0  0  0  0
 11 13  1  0  0  0  0
 11 14  1  0  0  0  0
  9 10  1  0  0  0  0
  9 11  1  0  0  0  0
  9 22  1  0  0  0  0
  7  8  1  0  0  0  0
  7  9  1  0  0  0  0
 26 27  1  0  0  0  0
 26 28  1  0  0  0  0
 26 29  1  0  0  0  0
 24 25  1  0  0  0  0
 24 26  1  0  0  0  0
M  END
$$$$
default_name
  -OEChem-02102213163D

 29 29  0     1  0  0  0  0  0999 V2000
   -3.6042   -3.5728    1.4576 H   0  0  0  0  0  0  0  0  0  0  0  0
   -3.5202   -2.6488    0.8866 C   0  0  0  0  0  0  0  0  0  0  0  0
   -4.2052   -1.9048    1.2896 H   0  0  0  0  0  0  0  0  0  0  0  0
   -3.7552   -2.8428   -0.1584 H   0  0  0  0  0  0  0  0  0  0  0  0
   -2.1052   -2.1358    0.9946 C   0  0  0  0  0  0  0  0  0  0  0  0
   -1.2852   -2.7288    1.6826 O   0  0  0  0  0  0  0  0  0  0  0  0
   -1.8202   -1.0288    0.3146 N   0  0  0  0  0  0  0  0  0  0  0  0
   -2.5542   -0.5788   -0.2104 H   0  0  0  0  0  0  0  0  0  0  0  0
   -0.5102   -0.3728    0.3086 C   0  0  1  0  0  0  0  0  0  0  0  0
    0.0719   -0.7468    1.1521 H   0  0  0  0  0  0  0  0  0  0  0  0
    0.2338   -0.7427   -0.9878 C   0  0  0  0  0  0  0  0  0  0  0  0
    0.9980   -1.4882   -0.7609 H   0  0  0  0  0  0  0  0  0  0  0  0
   -0.4735   -1.1899   -1.6887 H   0  0  0  0  0  0  0  0  0  0  0  0
    0.8951    0.4322   -1.6605 C   0  0  0  0  0  0  0  0  0  0  0  0
    2.0513    1.0616   -1.2518 N   0  0  0  0  0  0  0  0  0  0  0  0
    2.5665    0.8689   -0.4058 H   0  0  0  0  0  0  0  0  0  0  0  0
    2.3716    1.9833   -2.1755 C   0  0  0  0  0  0  0  0  0  0  0  0
    3.2286    2.6440   -2.1297 H   0  0  0  0  0  0  0  0  0  0  0  0
    1.4770    1.9700   -3.1745 N   0  0  0  0  0  0  0  0  0  0  0  0
    0.5316    0.9914   -2.8565 C   0  0  0  0  0  0  0  0  0  0  0  0
   -0.3161    0.7007   -3.4635 H   0  0  0  0  0  0  0  0  0  0  0  0
   -0.6600    1.1486    0.4782 C   0  0  0  0  0  0  0  0  0  0  0  0
   -1.5001    1.7648   -0.1771 O   0  0  0  0  0  0  0  0  0  0  0  0
    0.1634    1.7559    1.3418 N   0  0  0  0  0  0  0  0  0  0  0  0
    0.8618    1.1897    1.8008 H   0  0  0  0  0  0  0  0  0  0  0  0
    0.1509    3.1886    1.6256 C   0  0  0  0  0  0  0  0  0  0  0  0
   -0.8272    3.4794    2.0152 H   0  0  0  0  0  0  0  0  0  0  0  0
    0.9172    3.4314    2.3624 H   0  0  0  0  0  0  0  0  0  0  0  0
    0.3414    3.7499    0.7095 H   0  0  0  0  0  0  0  0  0  0  0  0
  5  6  2  0  0  0  0
  5  7  1  0  0  0  0
  2  3  1  0  0  0  0
  2  4  1  0  0  0  0
  2  5  1  0  0  0  0
  1  2  1  0  0  0  0
 22 23  2  0  0  0  0
 22 24  1  0  0  0  0
 20 21  1  0  0  0  0
 19 20  1  0  0  0  0
 17 18  1  0  0  0  0
 17 19  2  0  0  0  0
 15 16  1  0  0  0  0
 15 17  1  0  0  0  0
 14 15  1  0  0  0  0
 14 20  2  0  0  0  0
 11 12  1  0  0  0  0
 11 13  1  0  0  0  0
 11 14  1  0  0  0  0
  9 10  1  0  0  0  0
  9 11  1  0  0  0  0
  9 22  1  0  0  0  0
  7  8  1  0  0  0  0
  7  9  1  0  0  0  0
 26 27  1  0  0  0  0
 26 28  1  0  0  0  0
 26 29  1  0  0  0  0
 24 25  1  0  0  0  0
 24 26  1  0  0  0  0
M  END
$$$$
default_name
  -OEChem-02102213163D

 29 29  0     1  0  0  0  0  0999 V2000
   -3.6042   -3.5728    1.4576 H   0  0  0  0  0  0  0  0  0  0  0  0
   -3.5202   -2.6488    0.8866 C   0  0  0  0  0  0  0  0  0  0  0  0
   -4.2052   -1.9048    1.2896 H   0  0  0  0  0  0  0  0  0  0  0  0
   -3.7552   -2.8428   -0.1584 H   0  0  0  0  0  0  0  0  0  0  0  0
   -2.1052   -2.1358    0.9946 C   0  0  0  0  0  0  0  0  0  0  0  0
   -1.2852   -2.7288    1.6826 O   0  0  0  0  0  0  0  0  0  0  0  0
   -1.8202   -1.0288    0.3146 N   0  0  0  0  0  0  0  0  0  0  0  0
   -2.5542   -0.5788   -0.2104 H   0  0  0  0  0  0  0  0  0  0  0  0
   -0.5102   -0.3728    0.3086 C   0  0  1  0  0  0  0  0  0  0  0  0
    0.0719   -0.7468    1.1521 H   0  0  0  0  0  0  0  0  0  0  0  0
    0.2338   -0.7427   -0.9878 C   0  0  0  0  0  0  0  0  0  0  0  0
    0.9980   -1.4882   -0.7609 H   0  0  0  0  0  0  0  0  0  0  0  0
   -0.4735   -1.1899   -1.6887 H   0  0  0  0  0  0  0  0  0  0  0  0
    0.8951    0.4322   -1.6605 C   0  0  0  0  0  0  0  0  0  0  0  0
    2.1794    0.8818   -1.4399 N   0  0  0  0  0  0  0  0  0  0  0  0
    2.8209    0.5320   -0.7441 H   0  0  0  0  0  0  0  0  0  0  0  0
    2.4278    1.8738   -2.3115 C   0  0  0  0  0  0  0  0  0  0  0  0
    3.3543    2.4309   -2.3784 H   0  0  0  0  0  0  0  0  0  0  0  0
    1.3612    2.0789   -3.0980 N   0  0  0  0  0  0  0  0  0  0  0  0
    0.3793    1.1717   -2.6912 C   0  0  0  0  0  0  0  0  0  0  0  0
   -0.6004    1.0491   -3.1344 H   0  0  0  0  0  0  0  0  0  0  0  0
   -0.6600    1.1486    0.4782 C   0  0  0  0  0  0  0  0  0  0  0  0
   -1.5001    1.7648   -0.1771 O   0  0  0  0  0  0  0  0  0  0  0  0
    0.1634    1.7559    1.3418 N   0  0  0  0  0  0  0  0  0  0  0  0
    0.8618    1.1897    1.8008 H   0  0  0  0  0  0  0  0  0  0  0  0
    0.1509    3.1886    1.6256 C   0  0  0  0  0  0  0  0  0  0  0  0
   -0.8272    3.4794    2.0152 H   0  0  0  0  0  0  0  0  0  0  0  0
    0.9172    3.4314    2.3624 H   0  0  0  0  0  0  0  0  0  0  0  0
    0.3414    3.7499    0.7095 H   0  0  0  0  0  0  0  0  0  0  0  0
  5  6  2  0  0  0  0
  5  7  1  0  0  0  0
  2  3  1  0  0  0  0
  2  4  1  0  0  0  0
  2  5  1  0  0  0  0
  1  2  1  0  0  0  0
 22 23  2  0  0  0  0
 22 24  1  0  0  0  0
 20 21  1  0  0  0  0
 19 20  1  0  0  0  0
 17 18  1  0  0  0  0
 17 19  2  0  0  0  0
 15 16  1  0  0  0  0
 15 17  1  0  0  0  0
 14 15  1  0  0  0  0
 14 20  2  0  0  0  0
 11 12  1  0  0  0  0
 11 13  1  0  0  0  0
 11 14  1  0  0  0  0
  9 10  1  0  0  0  0
  9 11  1  0  0  0  0
  9 22  1  0  0  0  0
  7  8  1  0  0  0  0
  7  9  1  0  0  0  0
 26 27  1  0  0  0  0
 26 28  1  0  0  0  0
 26 29  1  0  0  0  0
 24 25  1  0  0  0  0
 24 26  1  0  0  0  0
M  END
$$$$
default_name
  -OEChem-02102213163D

 29 29  0     1  0  0  0  0  0999 V2000
   -3.6042   -3.5728    1.4576 H   0  0  0  0  0  0  0  0  0  0  0  0
   -3.5202   -2.6488    0.8866 C   0  0  0  0  0  0  0  0  0  0  0  0
   -4.2052   -1.9048    1.2896 H   0  0  0  0  0  0  0  0  0  0  0  0
   -3.7552   -2.8428   -0.1584 H   0  0  0  0  0  0  0  0  0  0  0  0
   -2.1052   -2.1358    0.9946 C   0  0  0  0  0  0  0  0  0  0  0  0
   -1.2852   -2.7288    1.6826 O   0  0  0  0  0  0  0  0  0  0  0  0
   -1.8202   -1.0288    0.3146 N   0  0  0  0  0  0  0  0  0  0  0  0
   -2.5542   -0.5788   -0.2104 H   0  0  0  0  0  0  0  0  0  0  0  0
   -0.5102   -0.3728    0.3086 C   0  0  1  0  0  0  0  0  0  0  0  0
    0.0719   -0.7468    1.1521 H   0  0  0  0  0  0  0  0  0  0  0  0
    0.2338   -0.7427   -0.9878 C   0  0  0  0  0  0  0  0  0  0  0  0
    0.9980   -1.4882   -0.7609 H   0  0  0  0  0  0  0  0  0  0  0  0
   -0.4735   -1.1899   -1.6887 H   0  0  0  0  0  0  0  0  0  0  0  0
    0.8951    0.4322   -1.6605 C   0  0  0  0  0  0  0  0  0  0  0  0
    2.2443    0.7147   -1.6680 N   0  0  0  0  0  0  0  0  0  0  0  0
    2.9594    0.2156   -1.1604 H   0  0  0  0  0  0  0  0  0  0  0  0
    2.4420    1.7770   -2.4666 C   0  0  0  0  0  0  0  0  0  0  0  0
    3.4008    2.2388   -2.6682 H   0  0  0  0  0  0  0  0  0  0  0  0
    1.2773    2.1889   -2.9884 N   0  0  0  0  0  0  0  0  0  0  0  0
    0.2865    1.3448   -2.4803 C   0  0  0  0  0  0  0  0  0  0  0  0
   -0.7684    1.3812   -2.7196 H   0  0  0  0  0  0  0  0  0  0  0  0
   -0.6600    1.1486    0.4782 C   0  0  0  0  0  0  0  0  0  0  0  0
   -1.5001    1.7648   -0.1771 O   0  0  0  0  0  0  0  0  0  0  0  0
    0.1634    1.7559    1.3418 N   0  0  0  0  0  0  0  0  0  0  0  0
    0.8618    1.1897    1.8008 H   0  0  0  0  0  0  0  0  0  0  0  0
    0.1509    3.1886    1.6256 C   0  0  0  0  0  0  0  0  0  0  0  0
   -0.8272    3.4794    2.0152 H   0  0  0  0  0  0  0  0  0  0  0  0
    0.9172    3.4314    2.3624 H   0  0  0  0  0  0  0  0  0  0  0  0
    0.3414    3.7499    0.7095 H   0  0  0  0  0  0  0  0  0  0  0  0
  5  6  2  0  0  0  0
  5  7  1  0  0  0  0
  2  3  1  0  0  0  0
  2  4  1  0  0  0  0
  2  5  1  0  0  0  0
  1  2  1  0  0  0  0
 22 23  2  0  0  0  0
 22 24  1  0  0  0  0
 20 21  1  0  0  0  0
 19 20  1  0  0  0  0
 17 18  1  0  0  0  0
 17 19  2  0  0  0  0
 15 16  1  0  0  0  0
 15 17  1  0  0  0  0
 14 15  1  0  0  0  0
 14 20  2  0  0  0  0
 11 12  1  0  0  0  0
 11 13  1  0  0  0  0
 11 14  1  0  0  0  0
  9 10  1  0  0  0  0
  9 11  1  0  0  0  0
  9 22  1  0  0  0  0
  7  8  1  0  0  0  0
  7  9  1  0  0  0  0
 26 27  1  0  0  0  0
 26 28  1  0  0  0  0
 26 29  1  0  0  0  0
 24 25  1  0  0  0  0
 24 26  1  0  0  0  0
M  END
$$$$
default_name
  -OEChem-02102213163D

 29 29  0     1  0  0  0  0  0999 V2000
   -3.6042   -3.5728    1.4576 H   0  0  0  0  0  0  0  0  0  0  0  0
   -3.5202   -2.6488    0.8866 C   0  0  0  0  0  0  0  0  0  0  0  0
   -4.2052   -1.9048    1.2896 H   0  0  0  0  0  0  0  0  0  0  0  0
   -3.7552   -2.8428   -0.1584 H   0  0  0  0  0  0  0  0  0  0  0  0
   -2.1052   -2.1358    0.9946 C   0  0  0  0  0  0  0  0  0  0  0  0
   -1.2852   -2.7288    1.6826 O   0  0  0  0  0  0  0  0  0  0  0  0
   -1.8202   -1.0288    0.3146 N   0  0  0  0  0  0  0  0  0  0  0  0
   -2.5542   -0.5788   -0.2104 H   0  0  0  0  0  0  0  0  0  0  0  0
   -0.5102   -0.3728    0.3086 C   0  0  1  0  0  0  0  0  0  0  0  0
    0.0719   -0.7468    1.1521 H   0  0  0  0  0  0  0  0  0  0  0  0
    0.2338   -0.7427   -0.9878 C   0  0  0  0  0  0  0  0  0  0  0  0
    0.9980   -1.4882   -0.7609 H   0  0  0  0  0  0  0  0  0  0  0  0
   -0.4735   -1.1899   -1.6887 H   0  0  0  0  0  0  0  0  0  0  0  0
    0.8951    0.4322   -1.6605 C   0  0  0  0  0  0  0  0  0  0  0  0
    2.2416    0.5717   -1.9203 N   0  0  0  0  0  0  0  0  0  0  0  0
    2.9727   -0.0587   -1.6265 H   0  0  0  0  0  0  0  0  0  0  0  0
    2.4132    1.6995   -2.6303 C   0  0  0  0  0  0  0  0  0  0  0  0
    3.3650    2.0808   -2.9793 H   0  0  0  0  0  0  0  0  0  0  0  0
    1.2312    2.2923   -2.8532 N   0  0  0  0  0  0  0  0  0  0  0  0
    0.2593    1.4987   -2.2382 C   0  0  0  0  0  0  0  0  0  0  0  0
   -0.8086    1.6742   -2.2473 H   0  0  0  0  0  0  0  0  0  0  0  0
   -0.6600    1.1486    0.4782 C   0  0  0  0  0  0  0  0  0  0  0  0
   -1.5001    1.7648   -0.1771 O   0  0  0  0  0  0  0  0  0  0  0  0
    0.1634    1.7559    1.3418 N   0  0  0  0  0  0  0  0  0  0  0  0
    0.8618    1.1897    1.8008 H   0  0  0  0  0  0  0  0  0  0  0  0
    0.1509    3.1886    1.6256 C   0  0  0  0  0  0  0  0  0  0  0  0
   -0.8272    3.4794    2.0152 H   0  0  0  0  0  0  0  0  0  0  0  0
    0.9172    3.4314    2.3624 H   0  0  0  0  0  0  0  0  0  0  0  0
    0.3414    3.7499    0.7095 H   0  0  0  0  0  0  0  0  0  0  0  0
  5  6  2  0  0  0  0
  5  7  1  0  0  0  0
  2  3  1  0  0  0  0
  2  4  1  0  0  0  0
  2  5  1  0  0  0  0
  1  2  1  0  0  0  0
 22 23  2  0  0  0  0
 22 24  1  0  0  0  0
 20 21  1  0  0  0  0
 19 20  1  0  0  0  0
 17 18  1  0  0  0  0
 17 19  2  0  0  0  0
 15 16  1  0  0  0  0
 15 17  1  0  0  0  0
 14 15  1  0  0  0  0
 14 20  2  0  0  0  0
 11 12  1  0  0  0  0
 11 13  1  0  0  0  0
 11 14  1  0  0  0  0
  9 10  1  0  0  0  0
  9 11  1  0  0  0  0
  9 22  1  0  0  0  0
  7  8  1  0  0  0  0
  7  9  1  0  0  0  0
 26 27  1  0  0  0  0
 26 28  1  0  0  0  0
 26 29  1  0  0  0  0
 24 25  1  0  0  0  0
 24 26  1  0  0  0  0
M  END
$$$$
default_name
  -OEChem-02102213163D

 29 29  0     1  0  0  0  0  0999 V2000
   -3.6042   -3.5728    1.4576 H   0  0  0  0  0  0  0  0  0  0  0  0
   -3.5202   -2.6488    0.8866 C   0  0  0  0  0  0  0  0  0  0  0  0
   -4.2052   -1.9048    1.2896 H   0  0  0  0  0  0  0  0  0  0  0  0
   -3.7552   -2.8428   -0.1584 H   0  0  0  0  0  0  0  0  0  0  0  0
   -2.1052   -2.1358    0.9946 C   0  0  0  0  0  0  0  0  0  0  0  0
   -1.2852   -2.7288    1.6826 O   0  0  0  0  0  0  0  0  0  0  0  0
   -1.8202   -1.0288    0.3146 N   0  0  0  0  0  0  0  0  0  0  0  0
   -2.5542   -0.5788   -0.2104 H   0  0  0  0  0  0  0  0  0  0  0  0
   -0.5102   -0.3728    0.3086 C   0  0  1  0  0  0  0  0  0  0  0  0
    0.0719   -0.7468    1.1521 H   0  0  0  0  0  0  0  0  0  0  0  0
    0.2338   -0.7427   -0.9878 C   0  0  0  0  0  0  0  0  0  0  0  0
    0.9980   -1.4882   -0.7609 H   0  0  0  0  0  0  0  0  0  0  0  0
   -0.4735   -1.1899   -1.6887 H   0  0  0  0  0  0  0  0  0  0  0  0
    0.8951    0.4322   -1.6605 C   0  0  0  0  0  0  0  0  0  0  0  0
    2.1717    0.4625   -2.1798 N   0  0  0  0  0  0  0  0  0  0  0  0
    2.8597   -0.2722   -2.1105 H   0  0  0  0  0  0  0  0  0  0  0  0
    2.3434    1.6465   -2.7915 C   0  0  0  0  0  0  0  0  0  0  0  0
    3.2495    1.9677   -3.2905 H   0  0  0  0  0  0  0  0  0  0  0  0
    1.2258    2.3822   -2.7014 N   0  0  0  0  0  0  0  0  0  0  0  0
    0.2998    1.6229   -1.9814 C   0  0  0  0  0  0  0  0  0  0  0  0
   -0.7183    1.9082   -1.7497 H   0  0  0  0  0  0  0  0  0  0  0  0
   -0.6600    1.1486    0.4782 C   0  0  0  0  0  0  0  0  0  0  0  0
   -1.5001    1.7648   -0.1771 O   0  0  0  0  0  0  0  0  0  0  0  0
    0.1634    1.7559    1.3418 N   0  0  0  0  0  0  0  0  0  0  0  0
    0.8618    1.1897    1.8008 H   0  0  0  0  0  0  0  0  0  0  0  0
    0.1509    3.1886    1.6256 C   0  0  0  0  0  0  0  0  0  0  0  0
   -0.8272    3.4794    2.0152 H   0  0  0  0  0  0  0  0  0  0  0  0
    0.9172    3.4314    2.3624 H   0  0  0  0  0  0  0  0  0  0  0  0
    0.3414    3.7499    0.7095 H   0  0  0  0  0  0  0  0  0  0  0  0
  5  6  2  0  0  0  0
  5  7  1  0  0  0  0
  2  3  1  0  0  0  0
  2  4  1  0  0  0  0
  2  5  1  0  0  0  0
  1  2  1  0  0  0  0
 22 23  2  0  0  0  0
 22 24  1  0  0  0  0
 20 21  1  0  0  0  0
 19 20  1  0  0  0  0
 17 18  1  0  0  0  0
 17 19  2  0  0  0  0
 15 16  1  0  0  0  0
 15 17  1  0  0  0  0
 14 15  1  0  0  0  0
 14 20  2  0  0  0  0
 11 12  1  0  0  0  0
 11 13  1  0  0  0  0
 11 14  1  0  0  0  0
  9 10  1  0  0  0  0
  9 11  1  0  0  0  0
  9 22  1  0  0  0  0
  7  8  1  0  0  0  0
  7  9  1  0  0  0  0
 26 27  1  0  0  0  0
 26 28  1  0  0  0  0
 26 29  1  0  0  0  0
 24 25  1  0  0  0  0
 24 26  1  0  0  0  0
M  END
$$$$
default_name
  -OEChem-02102213163D

 29 29  0     1  0  0  0  0  0999 V2000
   -3.6042   -3.5728    1.4576 H   0  0  0  0  0  0  0  0  0  0  0  0
   -3.5202   -2.6488    0.8866 C   0  0  0  0  0  0  0  0  0  0  0  0
   -4.2052   -1.9048    1.2896 H   0  0  0  0  0  0  0  0  0  0  0  0
   -3.7552   -2.8428   -0.1584 H   0  0  0  0  0  0  0  0  0  0  0  0
   -2.1052   -2.1358    0.9946 C   0  0  0  0  0  0  0  0  0  0  0  0
   -1.2852   -2.7288    1.6826 O   0  0  0  0  0  0  0  0  0  0  0  0
   -1.8202   -1.0288    0.3146 N   0  0  0  0  0  0  0  0  0  0  0  0
   -2.5542   -0.5788   -0.2104 H   0  0  0  0  0  0  0  0  0  0  0  0
   -0.5102   -0.3728    0.3086 C   0  0  1  0  0  0  0  0  0  0  0  0
    0.0719   -0.7468    1.1521 H   0  0  0  0  0  0  0  0  0  0  0  0
    0.2338   -0.7427   -0.9878 C   0  0  0  0  0  0  0  0  0  0  0  0
    0.9980   -1.4882   -0.7609 H   0  0  0  0  0  0  0  0  0  0  0  0
   -0.4735   -1.1899   -1.6887 H   0  0  0  0  0  0  0  0  0  0  0  0
    0.8951    0.4322   -1.6605 C   0  0  0  0  0  0  0  0  0  0  0  0
    2.0391    0.3947   -2.4287 N   0  0  0  0  0  0  0  0  0  0  0  0
    2.6283   -0.4105   -2.5795 H   0  0  0  0  0  0  0  0  0  0  0  0
    2.2373    1.6217   -2.9390 C   0  0  0  0  0  0  0  0  0  0  0  0
    3.0620    1.9071   -3.5807 H   0  0  0  0  0  0  0  0  0  0  0  0
    1.2616    2.4524   -2.5436 N   0  0  0  0  0  0  0  0  0  0  0  0
    0.4050    1.7091   -1.7273 C   0  0  0  0  0  0  0  0  0  0  0  0
   -0.5035    2.0673   -1.2608 H   0  0  0  0  0  0  0  0  0  0  0  0
   -0.6600    1.1486    0.4782 C   0  0  0  0  0  0  0  0  0  0  0  0
   -1.5001    1.7648   -0.1771 O   0  0  0  0  0  0  0  0  0  0  0  0
    0.1634    1.7559    1.3418 N   0  0  0  0  0  0  0  0  0  0  0  0
    0.8618    1.1897    1.8008 H   0  0  0  0  0  0  0  0  0  0  0  0
    0.1509    3.1886    1.6256 C   0  0  0  0  0  0  0  0  0  0  0  0
   -0.8272    3.4794    2.0152 H   0  0  0  0  0  0  0  0  0  0  0  0
    0.9172    3.4314    2.3624 H   0  0  0  0  0  0  0  0  0  0  0  0
    0.3414    3.7499    0.7095 H   0  0  0  0  0  0  0  0  0  0  0  0
  5  6  2  0  0  0  0
  5  7  1  0  0  0  0
  2  3  1  0  0  0  0
  2  4  1  0  0  0  0
  2  5  1  0  0  0  0
  1  2  1  0  0  0  0
 22 23  2  0  0  0  0
 22 24  1  0  0  0  0
 20 21  1  0  0  0  0
 19 20  1  0  0  0  0
 17 18  1  0  0  0  0
 17 19  2  0  0  0  0
 15 16  1  0  0  0  0
 15 17  1  0  0  0  0
 14 15  1  0  0  0  0
 14 20  2  0  0  0  0
 11 12  1  0  0  0  0
 11 13  1  0  0  0  0
 11 14  1  0  0  0  0
  9 10  1  0  0  0  0
  9 11  1  0  0  0  0
  9 22  1  0  0  0  0
  7  8  1  0  0  0  0
  7  9  1  0  0  0  0
 26 27  1  0  0  0  0
 26 28  1  0  0  0  0
 26 29  1  0  0  0  0
 24 25  1  0  0  0  0
 24 26  1  0  0  0  0
M  END
$$$$
default_name
  -OEChem-02102213163D

 29 29  0     1  0  0  0  0  0999 V2000
   -3.6042   -3.5728    1.4576 H   0  0  0  0  0  0  0  0  0  0  0  0
   -3.5202   -2.6488    0.8866 C   0  0  0  0  0  0  0  0  0  0  0  0
   -4.2052   -1.9048    1.2896 H   0  0  0  0  0  0  0  0  0  0  0  0
   -3.7552   -2.8428   -0.1584 H   0  0  0  0  0  0  0  0  0  0  0  0
   -2.1052   -2.1358    0.9946 C   0  0  0  0  0  0  0  0  0  0  0  0
   -1.2852   -2.7288    1.6826 O   0  0  0  0  0  0  0  0  0  0  0  0
   -1.8202   -1.0288    0.3146 N   0  0  0  0  0  0  0  0  0  0  0  0
   -2.5542   -0.5788   -0.2104 H   0  0  0  0  0  0  0  0  0  0  0  0
   -0.5102   -0.3728    0.3086 C   0  0  1  0  0  0  0  0  0  0  0  0
    0.0719   -0.7468    1.1521 H   0  0  0  0  0  0  0  0  0  0  0  0
    0.2338   -0.7427   -0.9878 C   0  0  0  0  0  0  0  0  0  0  0  0
    0.9980   -1.4882   -0.7609 H   0  0  0  0  0  0  0  0  0  0  0  0
   -0.4735   -1.1899   -1.6887 H   0  0  0  0  0  0  0  0  0  0  0  0
    0.8951    0.4322   -1.6605 C   0  0  0  0  0  0  0  0  0  0  0  0
    1.8529    0.3727   -2.6500 N   0  0  0  0  0  0  0  0  0  0  0  0
    2.2940   -0.4640   -3.0015 H   0  0  0  0  0  0  0  0  0  0  0  0
    2.1022    1.6268   -3.0629 C   0  0  0  0  0  0  0  0  0  0  0  0
    2.8153    1.9032   -3.8300 H   0  0  0  0  0  0  0  0  0  0  0  0
    1.3362    2.4981   -2.3904 N   0  0  0  0  0  0  0  0  0  0  0  0
    0.5679    1.7514   -1.4934 C   0  0  0  0  0  0  0  0  0  0  0  0
   -0.1790    2.1406   -0.8137 H   0  0  0  0  0  0  0  0  0  0  0  0
   -0.6600    1.1486    0.4782 C   0  0  0  0  0  0  0  0  0  0  0  0
   -1.5001    1.7648   -0.1771 O   0  0  0  0  0  0  0  0  0  0  0  0
    0.1634    1.7559    1.3418 N   0  0  0  0  0  0  0  0  0  0  0  0
    0.8618    1.1897    1.8008 H   0  0  0  0  0  0  0  0  0  0  0  0
    0.1509    3.1886    1.6256 C   0  0  0  0  0  0  0  0  0  0  0  0
   -0.8272    3.4794    2.0152 H   0  0  0  0  0  0  0  0  0  0  0  0
    0.9172    3.4314    2.3624 H   0  0  0  0  0  0  0  0  0  0  0  0
    0.3414    3.7499    0.7095 H   0  0  0  0  0  0  0  0  0  0  0  0
  5  6  2  0  0  0  0
  5  7  1  0  0  0  0
  2  3  1  0  0  0  0
  2  4  1  0  0  0  0
  2  5  1  0  0  0  0
  1  2  1  0  0  0  0
 22 23  2  0  0  0  0
 22 24  1  0  0  0  0
 20 21  1  0  0  0  0
 19 20  1  0  0  0  0
 17 18  1  0  0  0  0
 17 19  2  0  0  0  0
 15 16  1  0  0  0  0
 15 17  1  0  0  0  0
 14 15  1  0  0  0  0
 14 20  2  0  0  0  0
 11 12  1  0  0  0  0
 11 13  1  0  0  0  0
 11 14  1  0  0  0  0
  9 10  1  0  0  0  0
  9 11  1  0  0  0  0
  9 22  1  0  0  0  0
  7  8  1  0  0  0  0
  7  9  1  0  0  0  0
 26 27  1  0  0  0  0
 26 28  1  0  0  0  0
 26 29  1  0  0  0  0
 24 25  1  0  0  0  0
 24 26  1  0  0  0  0
M  END
$$$$
default_name
  -OEChem-02102213163D

 29 29  0     1  0  0  0  0  0999 V2000
   -3.6042   -3.5728    1.4576 H   0  0  0  0  0  0  0  0  0  0  0  0
   -3.5202   -2.6488    0.8866 C   0  0  0  0  0  0  0  0  0  0  0  0
   -4.2052   -1.9048    1.2896 H   0  0  0  0  0  0  0  0  0  0  0  0
   -3.7552   -2.8428   -0.1584 H   0  0  0  0  0  0  0  0  0  0  0  0
   -2.1052   -2.1358    0.9946 C   0  0  0  0  0  0  0  0  0  0  0  0
   -1.2852   -2.7288    1.6826 O   0  0  0  0  0  0  0  0  0  0  0  0
   -1.8202   -1.0288    0.3146 N   0  0  0  0  0  0  0  0  0  0  0  0
   -2.5542   -0.5788   -0.2104 H   0  0  0  0  0  0  0  0  0  0  0  0
   -0.5102   -0.3728    0.3086 C   0  0  1  0  0  0  0  0  0  0  0  0
    0.0719   -0.7468    1.1521 H   0  0  0  0  0  0  0  0  0  0  0  0
    0.2338   -0.7427   -0.9878 C   0  0  0  0  0  0  0  0  0  0  0  0
    0.8013   -1.6606   -0.8246 H   0  0  0  0  0  0  0  0  0  0  0  0
   -0.4974   -0.9358   -1.7749 H   0  0  0  0  0  0  0  0  0  0  0  0
    1.1804    0.3272   -1.4669 C   0  0  0  0  0  0  0  0  0  0  0  0
    1.9736    0.2702   -2.5927 N   0  0  0  0  0  0  0  0  0  0  0  0
    2.0834   -0.5255   -3.2034 H   0  0  0  0  0  0  0  0  0  0  0  0
    2.5817    1.4601   -2.7333 C   0  0  0  0  0  0  0  0  0  0  0  0
    3.2745    1.7195   -3.5245 H   0  0  0  0  0  0  0  0  0  0  0  0
    2.2062    2.2925   -1.7512 N   0  0  0  0  0  0  0  0  0  0  0  0
    1.3192    1.5826   -0.9377 C   0  0  0  0  0  0  0  0  0  0  0  0
    0.8045    1.9665   -0.0663 H   0  0  0  0  0  0  0  0  0  0  0  0
   -0.6600    1.1486    0.4782 C   0  0  0  0  0  0  0  0  0  0  0  0
   -1.5001    1.7648   -0.1771 O   0  0  0  0  0  0  0  0  0  0  0  0
    0.1634    1.7559    1.3418 N   0  0  0  0  0  0  0  0  0  0  0  0
    0.8618    1.1897    1.8008 H   0  0  0  0  0  0  0  0  0  0  0  0
    0.1509    3.1886    1.6256 C   0  0  0  0  0  0  0  0  0  0  0  0
   -0.8272    3.4794    2.0152 H   0  0  0  0  0  0  0  0  0  0  0  0
    0.9172    3.4314    2.3624 H   0  0  0  0  0  0  0  0  0  0  0  0
    0.3414    3.7499    0.7095 H   0  0  0  0  0  0  0  0  0  0  0  0
  5  6  2  0  0  0  0
  5  7  1  0  0  0  0
  2  3  1  0  0  0  0
  2  4  1  0  0  0  0
  2  5  1  0  0  0  0
  1  2  1  0  0  0  0
 22 23  2  0  0  0  0
 22 24  1  0  0  0  0
 20 21  1  0  0  0  0
 19 20  1  0  0  0  0
 17 18  1  0  0  0  0
 17 19  2  0  0  0  0
 15 16  1  0  0  0  0
 15 17  1  0  0  0  0
 14 15  1  0  0  0  0
 14 20  2  0  0  0  0
 11 12  1  0  0  0  0
 11 13  1  0  0  0  0
 11 14  1  0  0  0  0
  9 10  1  0  0  0  0
  9 11  1  0  0  0  0
  9 22  1  0  0  0  0
  7  8  1  0  0  0  0
  7  9  1  0  0  0  0
 26 27  1  0  0  0  0
 26 28  1  0  0  0  0
 26 29  1  0  0  0  0
 24 25  1  0  0  0  0
 24 26  1  0  0  0  0
M  END
$$$$
default_name
  -OEChem-02102213163D

 29 29  0     1  0  0  0  0  0999 V2000
   -3.6042   -3.5728    1.4576 H   0  0  0  0  0  0  0  0  0  0  0  0
   -3.5202   -2.6488    0.8866 C   0  0  0  0  0  0  0  0  0  0  0  0
   -4.2052   -1.9048    1.2896 H   0  0  0  0  0  0  0  0  0  0  0  0
   -3.7552   -2.8428   -0.1584 H   0  0  0  0  0  0  0  0  0  0  0  0
   -2.1052   -2.1358    0.9946 C   0  0  0  0  0  0  0  0  0  0  0  0
   -1.2852   -2.7288    1.6826 O   0  0  0  0  0  0  0  0  0  0  0  0
   -1.8202   -1.0288    0.3146 N   0  0  0  0  0  0  0  0  0  0  0  0
   -2.5542   -0.5788   -0.2104 H   0  0  0  0  0  0  0  0  0  0  0  0
   -0.5102   -0.3728    0.3086 C   0  0  1  0  0  0  0  0  0  0  0  0
    0.0719   -0.7468    1.1521 H   0  0  0  0  0  0  0  0  0  0  0  0
    0.2338   -0.7427   -0.9878 C   0  0  0  0  0  0  0  0  0  0  0  0
    0.8013   -1.6606   -0.8246 H   0  0  0  0  0  0  0  0  0  0  0  0
   -0.4974   -0.9358   -1.7749 H   0  0  0  0  0  0  0  0  0  0  0  0
    1.1804    0.3272   -1.4669 C   0  0  0  0  0  0  0  0  0  0  0  0
    1.7525    0.4097   -2.7182 N   0  0  0  0  0  0  0  0  0  0  0  0
    1.6743   -0.2759   -3.4545 H   0  0  0  0  0  0  0  0  0  0  0  0
    2.4391    1.5626   -2.7861 C   0  0  0  0  0  0  0  0  0  0  0  0
    3.0028    1.9059   -3.6449 H   0  0  0  0  0  0  0  0  0  0  0  0
    2.3263    2.2389   -1.6336 N   0  0  0  0  0  0  0  0  0  0  0  0
    1.5323    1.4620   -0.7859 C   0  0  0  0  0  0  0  0  0  0  0  0
    1.2200    1.7255    0.2163 H   0  0  0  0  0  0  0  0  0  0  0  0
   -0.6600    1.1486    0.4782 C   0  0  0  0  0  0  0  0  0  0  0  0
   -1.5001    1.7648   -0.1771 O   0  0  0  0  0  0  0  0  0  0  0  0
    0.1634    1.7559    1.3418 N   0  0  0  0  0  0  0  0  0  0  0  0
    0.8618    1.1897    1.8008 H   0  0  0  0  0  0  0  0  0  0  0  0
    0.1509    3.1886    1.6256 C   0  0  0  0  0  0  0  0  0  0  0  0
   -0.8272    3.4794    2.0152 H   0  0  0  0  0  0  0  0  0  0  0  0
    0.9172    3.4314    2.3624 H   0  0  0  0  0  0  0  0  0  0  0  0
    0.3414    3.7499    0.7095 H   0  0  0  0  0  0  0  0  0  0  0  0
  5  6  2  0  0  0  0
  5  7  1  0  0  0  0
  2  3  1  0  0  0  0
  2  4  1  0  0  0  0
  2  5  1  0  0  0  0
  1  2  1  0  0  0  0
 22 23  2  0  0  0  0
 22 24  1  0  0  0  0
 20 21  1  0  0  0  0
 19 20  1  0  0  0  0
 17 18  1  0  0  0  0
 17 19  2  0  0  0  0
 15 16  1  0  0  0  0
 15 17  1  0  0  0  0
 14 15  1  0  0  0  0
 14 20  2  0  0  0  0
 11 12  1  0  0  0  0
 11 13  1  0  0  0  0
 11 14  1  0  0  0  0
  9 10  1  0  0  0  0
  9 11  1  0  0  0  0
  9 22  1  0  0  0  0
  7  8  1  0  0  0  0
  7  9  1  0  0  0  0
 26 27  1  0  0  0  0
 26 28  1  0  0  0  0
 26 29  1  0  0  0  0
 24 25  1  0  0  0  0
 24 26  1  0  0  0  0
M  END
$$$$
default_name
  -OEChem-02102213163D

 29 29  0     1  0  0  0  0  0999 V2000
   -3.6042   -3.5728    1.4576 H   0  0  0  0  0  0  0  0  0  0  0  0
   -3.5202   -2.6488    0.8866 C   0  0  0  0  0  0  0  0  0  0  0  0
   -4.2052   -1.9048    1.2896 H   0  0  0  0  0  0  0  0  0  0  0  0
   -3.7552   -2.8428   -0.1584 H   0  0  0  0  0  0  0  0  0  0  0  0
   -2.1052   -2.1358    0.9946 C   0  0  0  0  0  0  0  0  0  0  0  0
   -1.2852   -2.7288    1.6826 O   0  0  0  0  0  0  0  0  0  0  0  0
   -1.8202   -1.0288    0.3146 N   0  0  0  0  0  0  0  0  0  0  0  0
   -2.5542   -0.5788   -0.2104 H   0  0  0  0  0  0  0  0  0  0  0  0
   -0.5102   -0.3728    0.3086 C   0  0  1  0  0  0  0  0  0  0  0  0
    0.0719   -0.7468    1.1521 H   0  0  0  0  0  0  0  0  0  0  0  0
    0.2338   -0.7427   -0.9878 C   0  0  0  0  0  0  0  0  0  0  0  0
    0.8013   -1.6606   -0.8246 H   0  0  0  0  0  0  0  0  0  0  0  0
   -0.4974   -0.9358   -1.7749 H   0  0  0  0  0  0  0  0  0  0  0  0
    1.1804    0.3272   -1.4669 C   0  0  0  0  0  0  0  0  0  0  0  0
    1.5272    0.5830   -2.7762 N   0  0  0  0  0  0  0  0  0  0  0  0
    1.2536    0.0396   -3.5811 H   0  0  0  0  0  0  0  0  0  0  0  0
    2.3001    1.6820   -2.7942 C   0  0  0  0  0  0  0  0  0  0  0  0
    2.7336    2.1279   -3.6810 H   0  0  0  0  0  0  0  0  0  0  0  0
    2.4596    2.1581   -1.5508 N   0  0  0  0  0  0  0  0  0  0  0  0
    1.7562    1.3033   -0.6980 C   0  0  0  0  0  0  0  0  0  0  0  0
    1.6533    1.4126    0.3738 H   0  0  0  0  0  0  0  0  0  0  0  0
   -0.6600    1.1486    0.4782 C   0  0  0  0  0  0  0  0  0  0  0  0
   -1.5001    1.7648   -0.1771 O   0  0  0  0  0  0  0  0  0  0  0  0
    0.1634    1.7559    1.3418 N   0  0  0  0  0  0  0  0  0  0  0  0
    0.8618    1.1897    1.8008 H   0  0  0  0  0  0  0  0  0  0  0  0
    0.1509    3.1886    1.6256 C   0  0  0  0  0  0  0  0  0  0  0  0
   -0.8272    3.4794    2.0152 H   0  0  0  0  0  0  0  0  0  0  0  0
    0.9172    3.4314    2.3624 H   0  0  0  0  0  0  0  0  0  0  0  0
    0.3414    3.7499    0.7095 H   0  0  0  0  0  0  0  0  0  0  0  0
  5  6  2  0  0  0  0
  5  7  1  0  0  0  0
  2  3  1  0  0  0  0
  2  4  1  0  0  0  0
  2  5  1  0  0  0  0
  1  2  1  0  0  0  0
 22 23  2  0  0  0  0
 22 24  1  0  0  0  0
 20 21  1  0  0  0  0
 19 20  1  0  0  0  0
 17 18  1  0  0  0  0
 17 19  2  0  0  0  0
 15 16  1  0  0  0  0
 15 17  1  0  0  0  0
 14 15  1  0  0  0  0
 14 20  2  0  0  0  0
 11 12  1  0  0  0  0
 11 13  1  0  0  0  0
 11 14  1  0  0  0  0
  9 10  1  0  0  0  0
  9 11  1  0  0  0  0
  9 22  1  0  0  0  0
  7  8  1  0  0  0  0
  7  9  1  0  0  0  0
 26 27  1  0  0  0  0
 26 28  1  0  0  0  0
 26 29  1  0  0  0  0
 24 25  1  0  0  0  0
 24 26  1  0  0  0  0
M  END
$$$$
default_name
  -OEChem-02102213163D

 29 29  0     1  0  0  0  0  0999 V2000
   -3.6042   -3.5728    1.4576 H   0  0  0  0  0  0  0  0  0  0  0  0
   -3.5202   -2.6488    0.8866 C   0  0  0  0  0  0  0  0  0  0  0  0
   -4.2052   -1.9048    1.2896 H   0  0  0  0  0  0  0  0  0  0  0  0
   -3.7552   -2.8428   -0.1584 H   0  0  0  0  0  0  0  0  0  0  0  0
   -2.1052   -2.1358    0.9946 C   0  0  0  0  0  0  0  0  0  0  0  0
   -1.2852   -2.7288    1.6826 O   0  0  0  0  0  0  0  0  0  0  0  0
   -1.8202   -1.0288    0.3146 N   0  0  0  0  0  0  0  0  0  0  0  0
   -2.5542   -0.5788   -0.2104 H   0  0  0  0  0  0  0  0  0  0  0  0
   -0.5102   -0.3728    0.3086 C   0  0  1  0  0  0  0  0  0  0  0  0
    0.0719   -0.7468    1.1521 H   0  0  0  0  0  0  0  0  0  0  0  0
    0.2338   -0.7427   -0.9878 C   0  0  0  0  0  0  0  0  0  0  0  0
    0.8013   -1.6606   -0.8246 H   0  0  0  0  0  0  0  0  0  0  0  0
   -0.4974   -0.9358   -1.7749 H   0  0  0  0  0  0  0  0  0  0  0  0
    1.1804    0.3272   -1.4669 C   0  0  0  0  0  0  0  0  0  0  0  0
    1.3133    0.7784   -2.7626 N   0  0  0  0  0  0  0  0  0  0  0  0
    0.8498    0.3996   -3.5749 H   0  0  0  0  0  0  0  0  0  0  0  0
    2.1741    1.8100   -2.7571 C   0  0  0  0  0  0  0  0  0  0  0  0
    2.4853    2.3704   -3.6303 H   0  0  0  0  0  0  0  0  0  0  0  0
    2.5968    2.0556   -1.5084 N   0  0  0  0  0  0  0  0  0  0  0  0
    1.9755    1.1173   -0.6802 C   0  0  0  0  0  0  0  0  0  0  0  0
    2.0752    1.0491    0.3954 H   0  0  0  0  0  0  0  0  0  0  0  0
   -0.6600    1.1486    0.4782 C   0  0  0  0  0  0  0  0  0  0  0  0
   -1.5001    1.7648   -0.1771 O   0  0  0  0  0  0  0  0  0  0  0  0
    0.1634    1.7559    1.3418 N   0  0  0  0  0  0  0  0  0  0  0  0
    0.8618    1.1897    1.8008 H   0  0  0  0  0  0  0  0  0  0  0  0
    0.1509    3.1886    1.6256 C   0  0  0  0  0  0  0  0  0  0  0  0
   -0.8272    3.4794    2.0152 H   0  0  0  0  0  0  0  0  0  0  0  0
    0.9172    3.4314    2.3624 H   0  0  0  0  0  0  0  0  0  0  0  0
    0.3414    3.7499    0.7095 H   0  0  0  0  0  0  0  0  0  0  0  0
  5  6  2  0  0  0  0
  5  7  1  0  0  0  0
  2  3  1  0  0  0  0
  2  4  1  0  0  0  0
  2  5  1  0  0  0  0
  1  2  1  0  0  0  0
 22 23  2  0  0  0  0
 22 24  1  0  0  0  0
 20 21  1  0  0  0  0
 19 20  1  0  0  0  0
 17 18  1  0  0  0  0
 17 19  2  0  0  0  0
 15 16  1  0  0  0  0
 15 17  1  0  0  0  0
 14 15  1  0  0  0  0
 14 20  2  0  0  0  0
 11 12  1  0  0  0  0
 11 13  1  0  0  0  0
 11 14  1  0  0  0  0
  9 10  1  0  0  0  0
  9 11  1  0  0  0  0
  9 22  1  0  0  0  0
  7  8  1  0  0  0  0
  7  9  1  0  0  0  0
 26 27  1  0  0  0  0
 26 28  1  0  0  0  0
 26 29  1  0  0  0  0
 24 25  1  0  0  0  0
 24 26  1  0  0  0  0
M  END
$$$$
default_name
  -OEChem-02102213163D

 29 29  0     1  0  0  0  0  0999 V2000
   -3.6042   -3.5728    1.4576 H   0  0  0  0  0  0  0  0  0  0  0  0
   -3.5202   -2.6488    0.8866 C   0  0  0  0  0  0  0  0  0  0  0  0
   -4.2052   -1.9048    1.2896 H   0  0  0  0  0  0  0  0  0  0  0  0
   -3.7552   -2.8428   -0.1584 H   0  0  0  0  0  0  0  0  0  0  0  0
   -2.1052   -2.1358    0.9946 C   0  0  0  0  0  0  0  0  0  0  0  0
   -1.2852   -2.7288    1.6826 O   0  0  0  0  0  0  0  0  0  0  0  0
   -1.8202   -1.0288    0.3146 N   0  0  0  0  0  0  0  0  0  0  0  0
   -2.5542   -0.5788   -0.2104 H   0  0  0  0  0  0  0  0  0  0  0  0
   -0.5102   -0.3728    0.3086 C   0  0  1  0  0  0  0  0  0  0  0  0
    0.0719   -0.7468    1.1521 H   0  0  0  0  0  0  0  0  0  0  0  0
    0.2338   -0.7427   -0.9878 C   0  0  0  0  0  0  0  0  0  0  0  0
    0.8013   -1.6606   -0.8246 H   0  0  0  0  0  0  0  0  0  0  0  0
   -0.4974   -0.9358   -1.7749 H   0  0  0  0  0  0  0  0  0  0  0  0
    1.1804    0.3272   -1.4669 C   0  0  0  0  0  0  0  0  0  0  0  0
    1.1252    0.9825   -2.6783 N   0  0  0  0  0  0  0  0  0  0  0  0
    0.4906    0.7795   -3.4361 H   0  0  0  0  0  0  0  0  0  0  0  0
    2.0698    1.9380   -2.6773 C   0  0  0  0  0  0  0  0  0  0  0  0
    2.2746    2.6167   -3.4963 H   0  0  0  0  0  0  0  0  0  0  0  0
    2.7287    1.9385   -1.5093 N   0  0  0  0  0  0  0  0  0  0  0  0
    2.1754    0.9166   -0.7334 C   0  0  0  0  0  0  0  0  0  0  0  0
    2.4567    0.6597    0.2797 H   0  0  0  0  0  0  0  0  0  0  0  0
   -0.6600    1.1486    0.4782 C   0  0  0  0  0  0  0  0  0  0  0  0
   -1.5001    1.7648   -0.1771 O   0  0  0  0  0  0  0  0  0  0  0  0
    0.1634    1.7559    1.3418 N   0  0  0  0  0  0  0  0  0  0  0  0
    0.8618    1.1897    1.8008 H   0  0  0  0  0  0  0  0  0  0  0  0
    0.1509    3.1886    1.6256 C   0  0  0  0  0  0  0  0  0  0  0  0
   -0.8272    3.4794    2.0152 H   0  0  0  0  0  0  0  0  0  0  0  0
    0.9172    3.4314    2.3624 H   0  0  0  0  0  0  0  0  0  0  0  0
    0.3414    3.7499    0.7095 H   0  0  0  0  0  0  0  0  0  0  0  0
  5  6  2  0  0  0  0
  5  7  1  0  0  0  0
  2  3  1  0  0  0  0
  2  4  1  0  0  0  0
  2  5  1  0  0  0  0
  1  2  1  0  0  0  0
 22 23  2  0  0  0  0
 22 24  1  0  0  0  0
 20 21  1  0  0  0  0
 19 20  1  0  0  0  0
 17 18  1  0  0  0  0
 17 19  2  0  0  0  0
 15 16  1  0  0  0  0
 15 17  1  0  0  0  0
 14 15  1  0  0  0  0
 14 20  2  0  0  0  0
 11 12  1  0  0  0  0
 11 13  1  0  0  0  0
 11 14  1  0  0  0  0
  9 10  1  0  0  0  0
  9 11  1  0  0  0  0
  9 22  1  0  0  0  0
  7  8  1  0  0  0  0
  7  9  1  0  0  0  0
 26 27  1  0  0  0  0
 26 28  1  0  0  0  0
 26 29  1  0  0  0  0
 24 25  1  0  0  0  0
 24 26  1  0  0  0  0
M  END
$$$$
default_name
  -OEChem-02102213163D

 29 29  0     1  0  0  0  0  0999 V2000
   -3.6042   -3.5728    1.4576 H   0  0  0  0  0  0  0  0  0  0  0  0
   -3.5202   -2.6488    0.8866 C   0  0  0  0  0  0  0  0  0  0  0  0
   -4.2052   -1.9048    1.2896 H   0  0  0  0  0  0  0  0  0  0  0  0
   -3.7552   -2.8428   -0.1584 H   0  0  0  0  0  0  0  0  0  0  0  0
   -2.1052   -2.1358    0.9946 C   0  0  0  0  0  0  0  0  0  0  0  0
   -1.2852   -2.7288    1.6826 O   0  0  0  0  0  0  0  0  0  0  0  0
   -1.8202   -1.0288    0.3146 N   0  0  0  0  0  0  0  0  0  0  0  0
   -2.5542   -0.5788   -0.2104 H   0  0  0  0  0  0  0  0  0  0  0  0
   -0.5102   -0.3728    0.3086 C   0  0  1  0  0  0  0  0  0  0  0  0
    0.0719   -0.7468    1.1521 H   0  0  0  0  0  0  0  0  0  0  0  0
    0.2338   -0.7427   -0.9878 C   0  0  0  0  0  0  0  0  0  0  0  0
    0.8013   -1.6606   -0.8246 H   0  0  0  0  0  0  0  0  0  0  0  0
   -0.4974   -0.9358   -1.7749 H   0  0  0  0  0  0  0  0  0  0  0  0
    1.1804    0.3272   -1.4669 C   0  0  0  0  0  0  0  0  0  0  0  0
    0.9758    1.1814   -2.5292 N   0  0  0  0  0  0  0  0  0  0  0  0
    0.2004    1.1535   -3.1743 H   0  0  0  0  0  0  0  0  0  0  0  0
    1.9943    2.0573   -2.5602 C   0  0  0  0  0  0  0  0  0  0  0  0
    2.1161    2.8502   -3.2880 H   0  0  0  0  0  0  0  0  0  0  0  0
    2.8463    1.8147   -1.5535 N   0  0  0  0  0  0  0  0  0  0  0  0
    2.3421    0.7150   -0.8542 C   0  0  0  0  0  0  0  0  0  0  0  0
    2.7719    0.2711    0.0344 H   0  0  0  0  0  0  0  0  0  0  0  0
   -0.6600    1.1486    0.4782 C   0  0  0  0  0  0  0  0  0  0  0  0
   -1.5001    1.7648   -0.1771 O   0  0  0  0  0  0  0  0  0  0  0  0
    0.1634    1.7559    1.3418 N   0  0  0  0  0  0  0  0  0  0  0  0
    0.8618    1.1897    1.8008 H   0  0  0  0  0  0  0  0  0  0  0  0
    0.1509    3.1886    1.6256 C   0  0  0  0  0  0  0  0  0  0  0  0
   -0.8272    3.4794    2.0152 H   0  0  0  0  0  0  0  0  0  0  0  0
    0.9172    3.4314    2.3624 H   0  0  0  0  0  0  0  0  0  0  0  0
    0.3414    3.7499    0.7095 H   0  0  0  0  0  0  0  0  0  0  0  0
  5  6  2  0  0  0  0
  5  7  1  0  0  0  0
  2  3  1  0  0  0  0
  2  4  1  0  0  0  0
  2  5  1  0  0  0  0
  1  2  1  0  0  0  0
 22 23  2  0  0  0  0
 22 24  1  0  0  0  0
 20 21  1  0  0  0  0
 19 20  1  0  0  0  0
 17 18  1  0  0  0  0
 17 19  2  0  0  0  0
 15 16  1  0  0  0  0
 15 17  1  0  0  0  0
 14 15  1  0  0  0  0
 14 20  2  0  0  0  0
 11 12  1  0  0  0  0
 11 13  1  0  0  0  0
 11 14  1  0  0  0  0
  9 10  1  0  0  0  0
  9 11  1  0  0  0  0
  9 22  1  0  0  0  0
  7  8  1  0  0  0  0
  7  9  1  0  0  0  0
 26 27  1  0  0  0  0
 26 28  1  0  0  0  0
 26 29  1  0  0  0  0
 24 25  1  0  0  0  0
 24 26  1  0  0  0  0
M  END
$$$$
default_name
  -OEChem-02102213163D

 29 29  0     1  0  0  0  0  0999 V2000
   -3.6042   -3.5728    1.4576 H   0  0  0  0  0  0  0  0  0  0  0  0
   -3.5202   -2.6488    0.8866 C   0  0  0  0  0  0  0  0  0  0  0  0
   -4.2052   -1.9048    1.2896 H   0  0  0  0  0  0  0  0  0  0  0  0
   -3.7552   -2.8428   -0.1584 H   0  0  0  0  0  0  0  0  0  0  0  0
   -2.1052   -2.1358    0.9946 C   0  0  0  0  0  0  0  0  0  0  0  0
   -1.2852   -2.7288    1.6826 O   0  0  0  0  0  0  0  0  0  0  0  0
   -1.8202   -1.0288    0.3146 N   0  0  0  0  0  0  0  0  0  0  0  0
   -2.5542   -0.5788   -0.2104 H   0  0  0  0  0  0  0  0  0  0  0  0
   -0.5102   -0.3728    0.3086 C   0  0  1  0  0  0  0  0  0  0  0  0
    0.0719   -0.7468    1.1521 H   0  0  0  0  0  0  0  0  0  0  0  0
    0.2338   -0.7427   -0.9878 C   0  0  0  0  0  0  0  0  0  0  0  0
    0.8013   -1.6606   -0.8246 H   0  0  0  0  0  0  0  0  0  0  0  0
   -0.4974   -0.9358   -1.7749 H   0  0  0  0  0  0  0  0  0  0  0  0
    1.1804    0.3272   -1.4669 C   0  0  0  0  0  0  0  0  0  0  0  0
    0.8753    1.3616   -2.3253 N   0  0  0  0  0  0  0  0  0  0  0  0
   -0.0010    1.4960   -2.8072 H   0  0  0  0  0  0  0  0  0  0  0  0
    1.9526    2.1597   -2.4139 C   0  0  0  0  0  0  0  0  0  0  0  0
    2.0204    3.0550   -3.0197 H   0  0  0  0  0  0  0  0  0  0  0  0
    2.9416    1.6925   -1.6380 N   0  0  0  0  0  0  0  0  0  0  0  0
    2.4644    0.5262   -1.0344 C   0  0  0  0  0  0  0  0  0  0  0  0
    2.9993   -0.0904   -0.3236 H   0  0  0  0  0  0  0  0  0  0  0  0
   -0.6600    1.1486    0.4782 C   0  0  0  0  0  0  0  0  0  0  0  0
   -1.5001    1.7648   -0.1771 O   0  0  0  0  0  0  0  0  0  0  0  0
    0.1634    1.7559    1.3418 N   0  0  0  0  0  0  0  0  0  0  0  0
    0.8618    1.1897    1.8008 H   0  0  0  0  0  0  0  0  0  0  0  0
    0.1509    3.1886    1.6256 C   0  0  0  0  0  0  0  0  0  0  0  0
   -0.8272    3.4794    2.0152 H   0  0  0  0  0  0  0  0  0  0  0  0
    0.9172    3.4314    2.3624 H   0  0  0  0  0  0  0  0  0  0  0  0
    0.3414    3.7499    0.7095 H   0  0  0  0  0  0  0  0  0  0  0  0
  5  6  2  0  0  0  0
  5  7  1  0  0  0  0
  2  3  1  0  0  0  0
  2  4  1  0  0  0  0
  2  5  1  0  0  0  0
  1  2  1  0  0  0  0
 22 23  2  0  0  0  0
 22 24  1  0  0  0  0
 20 21  1  0  0  0  0
 19 20  1  0  0  0  0
 17 18  1  0  0  0  0
 17 19  2  0  0  0  0
 15 16  1  0  0  0  0
 15 17  1  0  0  0  0
 14 15  1  0  0  0  0
 14 20  2  0  0  0  0
 11 12  1  0  0  0  0
 11 13  1  0  0  0  0
 11 14  1  0  0  0  0
  9 10  1  0  0  0  0
  9 11  1  0  0  0  0
  9 22  1  0  0  0  0
  7  8  1  0  0  0  0
  7  9  1  0  0  0  0
 26 27  1  0  0  0  0
 26 28  1  0  0  0  0
 26 29  1  0  0  0  0
 24 25  1  0  0  0  0
 24 26  1  0  0  0  0
M  END
$$$$
default_name
  -OEChem-02102213163D

 29 29  0     1  0  0  0  0  0999 V2000
   -3.6042   -3.5728    1.4576 H   0  0  0  0  0  0  0  0  0  0  0  0
   -3.5202   -2.6488    0.8866 C   0  0  0  0  0  0  0  0  0  0  0  0
   -4.2052   -1.9048    1.2896 H   0  0  0  0  0  0  0  0  0  0  0  0
   -3.7552   -2.8428   -0.1584 H   0  0  0  0  0  0  0  0  0  0  0  0
   -2.1052   -2.1358    0.9946 C   0  0  0  0  0  0  0  0  0  0  0  0
   -1.2852   -2.7288    1.6826 O   0  0  0  0  0  0  0  0  0  0  0  0
   -1.8202   -1.0288    0.3146 N   0  0  0  0  0  0  0  0  0  0  0  0
   -2.5542   -0.5788   -0.2104 H   0  0  0  0  0  0  0  0  0  0  0  0
   -0.5102   -0.3728    0.3086 C   0  0  1  0  0  0  0  0  0  0  0  0
    0.0719   -0.7468    1.1521 H   0  0  0  0  0  0  0  0  0  0  0  0
    0.2338   -0.7427   -0.9878 C   0  0  0  0  0  0  0  0  0  0  0  0
    0.8013   -1.6606   -0.8246 H   0  0  0  0  0  0  0  0  0  0  0  0
   -0.4974   -0.9358   -1.7749 H   0  0  0  0  0  0  0  0  0  0  0  0
    1.1804    0.3272   -1.4669 C   0  0  0  0  0  0  0  0  0  0  0  0
    0.8305    1.5108   -2.0806 N   0  0  0  0  0  0  0  0  0  0  0  0
   -0.0999    1.7838   -2.3599 H   0  0  0  0  0  0  0  0  0  0  0  0
    1.9477    2.2382   -2.2482 C   0  0  0  0  0  0  0  0  0  0  0  0
    1.9942    3.2170   -2.7097 H   0  0  0  0  0  0  0  0  0  0  0  0
    3.0081    1.5805   -1.7570 N   0  0  0  0  0  0  0  0  0  0  0  0
    2.5339    0.3630   -1.2615 C   0  0  0  0  0  0  0  0  0  0  0  0
    3.1234   -0.4000   -0.7700 H   0  0  0  0  0  0  0  0  0  0  0  0
   -0.6600    1.1486    0.4782 C   0  0  0  0  0  0  0  0  0  0  0  0
   -1.5001    1.7648   -0.1771 O   0  0  0  0  0  0  0  0  0  0  0  0
    0.1634    1.7559    1.3418 N   0  0  0  0  0  0  0  0  0  0  0  0
    0.8618    1.1897    1.8008 H   0  0  0  0  0  0  0  0  0  0  0  0
    0.1509    3.1886    1.6256 C   0  0  0  0  0  0  0  0  0  0  0  0
   -0.8272    3.4794    2.0152 H   0  0  0  0  0  0  0  0  0  0  0  0
    0.9172    3.4314    2.3624 H   0  0  0  0  0  0  0  0  0  0  0  0
    0.3414    3.7499    0.7095 H   0  0  0  0  0  0  0  0  0  0  0  0
  5  6  2  0  0  0  0
  5  7  1  0  0  0  0
  2  3  1  0  0  0  0
  2  4  1  0  0  0  0
  2  5  1  0  0  0  0
  1  2  1  0  0  0  0
 22 23  2  0  0  0  0
 22 24  1  0  0  0  0
 20 21  1  0  0  0  0
 19 20  1  0  0  0  0
 17 18  1  0  0  0  0
 17 19  2  0  0  0  0
 15 16  1  0  0  0  0
 15 17  1  0  0  0  0
 14 15  1  0  0  0  0
 14 20  2  0  0  0  0
 11 12  1  0  0  0  0
 11 13  1  0  0  0  0
 11 14  1  0  0  0  0
  9 10  1  0  0  0  0
  9 11  1  0  0  0  0
  9 22  1  0  0  0  0
  7  8  1  0  0  0  0
  7  9  1  0  0  0  0
 26 27  1  0  0  0  0
 26 28  1  0  0  0  0
 26 29  1  0  0  0  0
 24 25  1  0  0  0  0
 24 26  1  0  0  0  0
M  END
$$$$
default_name
  -OEChem-02102213163D

 29 29  0     1  0  0  0  0  0999 V2000
   -3.6042   -3.5728    1.4576 H   0  0  0  0  0  0  0  0  0  0  0  0
   -3.5202   -2.6488    0.8866 C   0  0  0  0  0  0  0  0  0  0  0  0
   -4.2052   -1.9048    1.2896 H   0  0  0  0  0  0  0  0  0  0  0  0
   -3.7552   -2.8428   -0.1584 H   0  0  0  0  0  0  0  0  0  0  0  0
   -2.1052   -2.1358    0.9946 C   0  0  0  0  0  0  0  0  0  0  0  0
   -1.2852   -2.7288    1.6826 O   0  0  0  0  0  0  0  0  0  0  0  0
   -1.8202   -1.0288    0.3146 N   0  0  0  0  0  0  0  0  0  0  0  0
   -2.5542   -0.5788   -0.2104 H   0  0  0  0  0  0  0  0  0  0  0  0
   -0.5102   -0.3728    0.3086 C   0  0  1  0  0  0  0  0  0  0  0  0
    0.0719   -0.7468    1.1521 H   0  0  0  0  0  0  0  0  0  0  0  0
    0.2338   -0.7427   -0.9878 C   0  0  0  0  0  0  0  0  0  0  0  0
    0.8013   -1.6606   -0.8246 H   0  0  0  0  0  0  0  0  0  0  0  0
   -0.4974   -0.9358   -1.7749 H   0  0  0  0  0  0  0  0  0  0  0  0
    1.1804    0.3272   -1.4669 C   0  0  0  0  0  0  0  0  0  0  0  0
    0.8444    1.6188   -1.8118 N   0  0  0  0  0  0  0  0  0  0  0  0
   -0.0896    1.9972   -1.8629 H   0  0  0  0  0  0  0  0  0  0  0  0
    1.9799    2.2875   -2.0745 C   0  0  0  0  0  0  0  0  0  0  0  0
    2.0391    3.3252   -2.3791 H   0  0  0  0  0  0  0  0  0  0  0  0
    3.0413    1.4861   -1.9023 N   0  0  0  0  0  0  0  0  0  0  0  0
    2.5458    0.2367   -1.5202 C   0  0  0  0  0  0  0  0  0  0  0  0
    3.1357   -0.6368   -1.2743 H   0  0  0  0  0  0  0  0  0  0  0  0
   -0.6600    1.1486    0.4782 C   0  0  0  0  0  0  0  0  0  0  0  0
   -1.5001    1.7648   -0.1771 O   0  0  0  0  0  0  0  0  0  0  0  0
    0.1634    1.7559    1.3418 N   0  0  0  0  0  0  0  0  0  0  0  0
    0.8618    1.1897    1.8008 H   0  0  0  0  0  0  0  0  0  0  0  0
    0.1509    3.1886    1.6256 C   0  0  0  0  0  0  0  0  0  0  0  0
   -0.8272    3.4794    2.0152 H   0  0  0  0  0  0  0  0  0  0  0  0
    0.9172    3.4314    2.3624 H   0  0  0  0  0  0  0  0  0  0  0  0
    0.3414    3.7499    0.7095 H   0  0  0  0  0  0  0  0  0  0  0  0
  5  6  2  0  0  0  0
  5  7  1  0  0  0  0
  2  3  1  0  0  0  0
  2  4  1  0  0  0  0
  2  5  1  0  0  0  0
  1  2  1  0  0  0  0
 22 23  2  0  0  0  0
 22 24  1  0  0  0  0
 20 21  1  0  0  0  0
 19 20  1  0  0  0  0
 17 18  1  0  0  0  0
 17 19  2  0  0  0  0
 15 16  1  0  0  0  0
 15 17  1  0  0  0  0
 14 15  1  0  0  0  0
 14 20  2  0  0  0  0
 11 12  1  0  0  0  0
 11 13  1  0  0  0  0
 11 14  1  0  0  0  0
  9 10  1  0  0  0  0
  9 11  1  0  0  0  0
  9 22  1  0  0  0  0
  7  8  1  0  0  0  0
  7  9  1  0  0  0  0
 26 27  1  0  0  0  0
 26 28  1  0  0  0  0
 26 29  1  0  0  0  0
 24 25  1  0  0  0  0
 24 26  1  0  0  0  0
M  END
$$$$
default_name
  -OEChem-02102213163D

 29 29  0     1  0  0  0  0  0999 V2000
   -3.6042   -3.5728    1.4576 H   0  0  0  0  0  0  0  0  0  0  0  0
   -3.5202   -2.6488    0.8866 C   0  0  0  0  0  0  0  0  0  0  0  0
   -4.2052   -1.9048    1.2896 H   0  0  0  0  0  0  0  0  0  0  0  0
   -3.7552   -2.8428   -0.1584 H   0  0  0  0  0  0  0  0  0  0  0  0
   -2.1052   -2.1358    0.9946 C   0  0  0  0  0  0  0  0  0  0  0  0
   -1.2852   -2.7288    1.6826 O   0  0  0  0  0  0  0  0  0  0  0  0
   -1.8202   -1.0288    0.3146 N   0  0  0  0  0  0  0  0  0  0  0  0
   -2.5542   -0.5788   -0.2104 H   0  0  0  0  0  0  0  0  0  0  0  0
   -0.5102   -0.3728    0.3086 C   0  0  1  0  0  0  0  0  0  0  0  0
    0.0719   -0.7468    1.1521 H   0  0  0  0  0  0  0  0  0  0  0  0
    0.2338   -0.7427   -0.9878 C   0  0  0  0  0  0  0  0  0  0  0  0
    0.8013   -1.6606   -0.8246 H   0  0  0  0  0  0  0  0  0  0  0  0
   -0.4974   -0.9358   -1.7749 H   0  0  0  0  0  0  0  0  0  0  0  0
    1.1804    0.3272   -1.4669 C   0  0  0  0  0  0  0  0  0  0  0  0
    0.9162    1.6783   -1.5371 N   0  0  0  0  0  0  0  0  0  0  0  0
    0.0293    2.1216   -1.3500 H   0  0  0  0  0  0  0  0  0  0  0  0
    2.0470    2.3042   -1.9046 C   0  0  0  0  0  0  0  0  0  0  0  0
    2.1522    3.3723   -2.0504 H   0  0  0  0  0  0  0  0  0  0  0  0
    3.0388    1.4158   -2.0641 N   0  0  0  0  0  0  0  0  0  0  0  0
    2.4993    0.1557   -1.7928 C   0  0  0  0  0  0  0  0  0  0  0  0
    3.0355   -0.7844   -1.8022 H   0  0  0  0  0  0  0  0  0  0  0  0
   -0.6600    1.1486    0.4782 C   0  0  0  0  0  0  0  0  0  0  0  0
   -1.5001    1.7648   -0.1771 O   0  0  0  0  0  0  0  0  0  0  0  0
    0.1634    1.7559    1.3418 N   0  0  0  0  0  0  0  0  0  0  0  0
    0.8618    1.1897    1.8008 H   0  0  0  0  0  0  0  0  0  0  0  0
    0.1509    3.1886    1.6256 C   0  0  0  0  0  0  0  0  0  0  0  0
   -0.8272    3.4794    2.0152 H   0  0  0  0  0  0  0  0  0  0  0  0
    0.9172    3.4314    2.3624 H   0  0  0  0  0  0  0  0  0  0  0  0
    0.3414    3.7499    0.7095 H   0  0  0  0  0  0  0  0  0  0  0  0
  5  6  2  0  0  0  0
  5  7  1  0  0  0  0
  2  3  1  0  0  0  0
  2  4  1  0  0  0  0
  2  5  1  0  0  0  0
  1  2  1  0  0  0  0
 22 23  2  0  0  0  0
 22 24  1  0  0  0  0
 20 21  1  0  0  0  0
 19 20  1  0  0  0  0
 17 18  1  0  0  0  0
 17 19  2  0  0  0  0
 15 16  1  0  0  0  0
 15 17  1  0  0  0  0
 14 15  1  0  0  0  0
 14 20  2  0  0  0  0
 11 12  1  0  0  0  0
 11 13  1  0  0  0  0
 11 14  1  0  0  0  0
  9 10  1  0  0  0  0
  9 11  1  0  0  0  0
  9 22  1  0  0  0  0
  7  8  1  0  0  0  0
  7  9  1  0  0  0  0
 26 27  1  0  0  0  0
 26 28  1  0  0  0  0
 26 29  1  0  0  0  0
 24 25  1  0  0  0  0
 24 26  1  0  0  0  0
M  END
$$$$
default_name
  -OEChem-02102213163D

 29 29  0     1  0  0  0  0  0999 V2000
   -3.6042   -3.5728    1.4576 H   0  0  0  0  0  0  0  0  0  0  0  0
   -3.5202   -2.6488    0.8866 C   0  0  0  0  0  0  0  0  0  0  0  0
   -4.2052   -1.9048    1.2896 H   0  0  0  0  0  0  0  0  0  0  0  0
   -3.7552   -2.8428   -0.1584 H   0  0  0  0  0  0  0  0  0  0  0  0
   -2.1052   -2.1358    0.9946 C   0  0  0  0  0  0  0  0  0  0  0  0
   -1.2852   -2.7288    1.6826 O   0  0  0  0  0  0  0  0  0  0  0  0
   -1.8202   -1.0288    0.3146 N   0  0  0  0  0  0  0  0  0  0  0  0
   -2.5542   -0.5788   -0.2104 H   0  0  0  0  0  0  0  0  0  0  0  0
   -0.5102   -0.3728    0.3086 C   0  0  1  0  0  0  0  0  0  0  0  0
    0.0719   -0.7468    1.1521 H   0  0  0  0  0  0  0  0  0  0  0  0
    0.2338   -0.7427   -0.9878 C   0  0  0  0  0  0  0  0  0  0  0  0
    0.8013   -1.6606   -0.8246 H   0  0  0  0  0  0  0  0  0  0  0  0
   -0.4974   -0.9358   -1.7749 H   0  0  0  0  0  0  0  0  0  0  0  0
    1.1804    0.3272   -1.4669 C   0  0  0  0  0  0  0  0  0  0  0  0
    1.0409    1.6851   -1.2754 N   0  0  0  0  0  0  0  0  0  0  0  0
    0.2486    2.1486   -0.8563 H   0  0  0  0  0  0  0  0  0  0  0  0
    2.1443    2.2872   -1.7501 C   0  0  0  0  0  0  0  0  0  0  0  0
    2.3257    3.3551   -1.7461 H   0  0  0  0  0  0  0  0  0  0  0  0
    3.0009    1.3745   -2.2314 N   0  0  0  0  0  0  0  0  0  0  0  0
    2.3977    0.1256   -2.0608 C   0  0  0  0  0  0  0  0  0  0  0  0
    2.8295   -0.8330   -2.3177 H   0  0  0  0  0  0  0  0  0  0  0  0
   -0.6600    1.1486    0.4782 C   0  0  0  0  0  0  0  0  0  0  0  0
   -1.5001    1.7648   -0.1771 O   0  0  0  0  0  0  0  0  0  0  0  0
    0.1634    1.7559    1.3418 N   0  0  0  0  0  0  0  0  0  0  0  0
    0.8618    1.1897    1.8008 H   0  0  0  0  0  0  0  0  0  0  0  0
    0.1509    3.1886    1.6256 C   0  0  0  0  0  0  0  0  0  0  0  0
   -0.8272    3.4794    2.0152 H   0  0  0  0  0  0  0  0  0  0  0  0
    0.9172    3.4314    2.3624 H   0  0  0  0  0  0  0  0  0  0  0  0
    0.3414    3.7499    0.7095 H   0  0  0  0  0  0  0  0  0  0  0  0
  5  6  2  0  0  0  0
  5  7  1  0  0  0  0
  2  3  1  0  0  0  0
  2  4  1  0  0  0  0
  2  5  1  0  0  0  0
  1  2  1  0  0  0  0
 22 23  2  0  0  0  0
 22 24  1  0  0  0  0
 20 21  1  0  0  0  0
 19 20  1  0  0  0  0
 17 18  1  0  0  0  0
 17 19  2  0  0  0  0
 15 16  1  0  0  0  0
 15 17  1  0  0  0  0
 14 15  1  0  0  0  0
 14 20  2  0  0  0  0
 11 12  1  0  0  0  0
 11 13  1  0  0  0  0
 11 14  1  0  0  0  0
  9 10  1  0  0  0  0
  9 11  1  0  0  0  0
  9 22  1  0  0  0  0
  7  8  1  0  0  0  0
  7  9  1  0  0  0  0
 26 27  1  0  0  0  0
 26 28  1  0  0  0  0
 26 29  1  0  0  0  0
 24 25  1  0  0  0  0
 24 26  1  0  0  0  0
M  END
$$$$
default_name
  -OEChem-02102213163D

 29 29  0     1  0  0  0  0  0999 V2000
   -3.6042   -3.5728    1.4576 H   0  0  0  0  0  0  0  0  0  0  0  0
   -3.5202   -2.6488    0.8866 C   0  0  0  0  0  0  0  0  0  0  0  0
   -4.2052   -1.9048    1.2896 H   0  0  0  0  0  0  0  0  0  0  0  0
   -3.7552   -2.8428   -0.1584 H   0  0  0  0  0  0  0  0  0  0  0  0
   -2.1052   -2.1358    0.9946 C   0  0  0  0  0  0  0  0  0  0  0  0
   -1.2852   -2.7288    1.6826 O   0  0  0  0  0  0  0  0  0  0  0  0
   -1.8202   -1.0288    0.3146 N   0  0  0  0  0  0  0  0  0  0  0  0
   -2.5542   -0.5788   -0.2104 H   0  0  0  0  0  0  0  0  0  0  0  0
   -0.5102   -0.3728    0.3086 C   0  0  1  0  0  0  0  0  0  0  0  0
    0.0719   -0.7468    1.1521 H   0  0  0  0  0  0  0  0  0  0  0  0
    0.2338   -0.7427   -0.9878 C   0  0  0  0  0  0  0  0  0  0  0  0
    0.8013   -1.6606   -0.8246 H   0  0  0  0  0  0  0  0  0  0  0  0
   -0.4974   -0.9358   -1.7749 H   0  0  0  0  0  0  0  0  0  0  0  0
    1.1804    0.3272   -1.4669 C   0  0  0  0  0  0  0  0  0  0  0  0
    1.2101    1.6389   -1.0443 N   0  0  0  0  0  0  0  0  0  0  0  0
    0.5535    2.0764   -0.4153 H   0  0  0  0  0  0  0  0  0  0  0  0
    2.2654    2.2377   -1.6216 C   0  0  0  0  0  0  0  0  0  0  0  0
    2.5478    3.2746   -1.4868 H   0  0  0  0  0  0  0  0  0  0  0  0
    2.9301    1.3649   -2.3927 N   0  0  0  0  0  0  0  0  0  0  0  0
    2.2478    0.1485   -2.3059 C   0  0  0  0  0  0  0  0  0  0  0  0
    2.5318   -0.7791   -2.7857 H   0  0  0  0  0  0  0  0  0  0  0  0
   -0.6600    1.1486    0.4782 C   0  0  0  0  0  0  0  0  0  0  0  0
   -1.5001    1.7648   -0.1771 O   0  0  0  0  0  0  0  0  0  0  0  0
    0.1634    1.7559    1.3418 N   0  0  0  0  0  0  0  0  0  0  0  0
    0.8618    1.1897    1.8008 H   0  0  0  0  0  0  0  0  0  0  0  0
    0.1509    3.1886    1.6256 C   0  0  0  0  0  0  0  0  0  0  0  0
   -0.8272    3.4794    2.0152 H   0  0  0  0  0  0  0  0  0  0  0  0
    0.9172    3.4314    2.3624 H   0  0  0  0  0  0  0  0  0  0  0  0
    0.3414    3.7499    0.7095 H   0  0  0  0  0  0  0  0  0  0  0  0
  5  6  2  0  0  0  0
  5  7  1  0  0  0  0
  2  3  1  0  0  0  0
  2  4  1  0  0  0  0
  2  5  1  0  0  0  0
  1  2  1  0  0  0  0
 22 23  2  0  0  0  0
 22 24  1  0  0  0  0
 20 21  1  0  0  0  0
 19 20  1  0  0  0  0
 17 18  1  0  0  0  0
 17 19  2  0  0  0  0
 15 16  1  0  0  0  0
 15 17  1  0  0  0  0
 14 15  1  0  0  0  0
 14 20  2  0  0  0  0
 11 12  1  0  0  0  0
 11 13  1  0  0  0  0
 11 14  1  0  0  0  0
  9 10  1  0  0  0  0
  9 11  1  0  0  0  0
  9 22  1  0  0  0  0
  7  8  1  0  0  0  0
  7  9  1  0  0  0  0
 26 27  1  0  0  0  0
 26 28  1  0  0  0  0
 26 29  1  0  0  0  0
 24 25  1  0  0  0  0
 24 26  1  0  0  0  0
M  END
$$$$
default_name
  -OEChem-02102213163D

 29 29  0     1  0  0  0  0  0999 V2000
   -3.6042   -3.5728    1.4576 H   0  0  0  0  0  0  0  0  0  0  0  0
   -3.5202   -2.6488    0.8866 C   0  0  0  0  0  0  0  0  0  0  0  0
   -4.2052   -1.9048    1.2896 H   0  0  0  0  0  0  0  0  0  0  0  0
   -3.7552   -2.8428   -0.1584 H   0  0  0  0  0  0  0  0  0  0  0  0
   -2.1052   -2.1358    0.9946 C   0  0  0  0  0  0  0  0  0  0  0  0
   -1.2852   -2.7288    1.6826 O   0  0  0  0  0  0  0  0  0  0  0  0
   -1.8202   -1.0288    0.3146 N   0  0  0  0  0  0  0  0  0  0  0  0
   -2.5542   -0.5788   -0.2104 H   0  0  0  0  0  0  0  0  0  0  0  0
   -0.5102   -0.3728    0.3086 C   0  0  1  0  0  0  0  0  0  0  0  0
    0.0719   -0.7468    1.1521 H   0  0  0  0  0  0  0  0  0  0  0  0
    0.2338   -0.7427   -0.9878 C   0  0  0  0  0  0  0  0  0  0  0  0
    0.8013   -1.6606   -0.8246 H   0  0  0  0  0  0  0  0  0  0  0  0
   -0.4974   -0.9358   -1.7749 H   0  0  0  0  0  0  0  0  0  0  0  0
    1.1804    0.3272   -1.4669 C   0  0  0  0  0  0  0  0  0  0  0  0
    1.4121    1.5428   -0.8597 N   0  0  0  0  0  0  0  0  0  0  0  0
    0.9230    1.9098   -0.0570 H   0  0  0  0  0  0  0  0  0  0  0  0
    2.4019    2.1590   -1.5277 C   0  0  0  0  0  0  0  0  0  0  0  0
    2.8034    3.1365   -1.2902 H   0  0  0  0  0  0  0  0  0  0  0  0
    2.8313    1.3876   -2.5371 N   0  0  0  0  0  0  0  0  0  0  0  0
    2.0599    0.2228   -2.5113 C   0  0  0  0  0  0  0  0  0  0  0  0
    2.1627   -0.6265   -3.1743 H   0  0  0  0  0  0  0  0  0  0  0  0
   -0.6600    1.1486    0.4782 C   0  0  0  0  0  0  0  0  0  0  0  0
   -1.5001    1.7648   -0.1771 O   0  0  0  0  0  0  0  0  0  0  0  0
    0.1634    1.7559    1.3418 N   0  0  0  0  0  0  0  0  0  0  0  0
    0.8618    1.1897    1.8008 H   0  0  0  0  0  0  0  0  0  0  0  0
    0.1509    3.1886    1.6256 C   0  0  0  0  0  0  0  0  0  0  0  0
   -0.8272    3.4794    2.0152 H   0  0  0  0  0  0  0  0  0  0  0  0
    0.9172    3.4314    2.3624 H   0  0  0  0  0  0  0  0  0  0  0  0
    0.3414    3.7499    0.7095 H   0  0  0  0  0  0  0  0  0  0  0  0
  5  6  2  0  0  0  0
  5  7  1  0  0  0  0
  2  3  1  0  0  0  0
  2  4  1  0  0  0  0
  2  5  1  0  0  0  0
  1  2  1  0  0  0  0
 22 23  2  0  0  0  0
 22 24  1  0  0  0  0
 20 21  1  0  0  0  0
 19 20  1  0  0  0  0
 17 18  1  0  0  0  0
 17 19  2  0  0  0  0
 15 16  1  0  0  0  0
 15 17  1  0  0  0  0
 14 15  1  0  0  0  0
 14 20  2  0  0  0  0
 11 12  1  0  0  0  0
 11 13  1  0  0  0  0
 11 14  1  0  0  0  0
  9 10  1  0  0  0  0
  9 11  1  0  0  0  0
  9 22  1  0  0  0  0
  7  8  1  0  0  0  0
  7  9  1  0  0  0  0
 26 27  1  0  0  0  0
 26 28  1  0  0  0  0
 26 29  1  0  0  0  0
 24 25  1  0  0  0  0
 24 26  1  0  0  0  0
M  END
$$$$
default_name
  -OEChem-02102213163D

 29 29  0     1  0  0  0  0  0999 V2000
   -3.6042   -3.5728    1.4576 H   0  0  0  0  0  0  0  0  0  0  0  0
   -3.5202   -2.6488    0.8866 C   0  0  0  0  0  0  0  0  0  0  0  0
   -4.2052   -1.9048    1.2896 H   0  0  0  0  0  0  0  0  0  0  0  0
   -3.7552   -2.8428   -0.1584 H   0  0  0  0  0  0  0  0  0  0  0  0
   -2.1052   -2.1358    0.9946 C   0  0  0  0  0  0  0  0  0  0  0  0
   -1.2852   -2.7288    1.6826 O   0  0  0  0  0  0  0  0  0  0  0  0
   -1.8202   -1.0288    0.3146 N   0  0  0  0  0  0  0  0  0  0  0  0
   -2.5542   -0.5788   -0.2104 H   0  0  0  0  0  0  0  0  0  0  0  0
   -0.5102   -0.3728    0.3086 C   0  0  1  0  0  0  0  0  0  0  0  0
    0.0719   -0.7468    1.1521 H   0  0  0  0  0  0  0  0  0  0  0  0
    0.2338   -0.7427   -0.9878 C   0  0  0  0  0  0  0  0  0  0  0  0
    0.8013   -1.6606   -0.8246 H   0  0  0  0  0  0  0  0  0  0  0  0
   -0.4974   -0.9358   -1.7749 H   0  0  0  0  0  0  0  0  0  0  0  0
    1.1804    0.3272   -1.4669 C   0  0  0  0  0  0  0  0  0  0  0  0
    1.6333    1.4034   -0.7342 N   0  0  0  0  0  0  0  0  0  0  0  0
    1.3321    1.6602    0.1940 H   0  0  0  0  0  0  0  0  0  0  0  0
    2.5445    2.0565   -1.4749 C   0  0  0  0  0  0  0  0  0  0  0  0
    3.0751    2.9501   -1.1698 H   0  0  0  0  0  0  0  0  0  0  0  0
    2.7112    1.4412   -2.6547 N   0  0  0  0  0  0  0  0  0  0  0  0
    1.8467    0.3434   -2.6631 C   0  0  0  0  0  0  0  0  0  0  0  0
    1.7473   -0.3855   -3.4569 H   0  0  0  0  0  0  0  0  0  0  0  0
   -0.6600    1.1486    0.4782 C   0  0  0  0  0  0  0  0  0  0  0  0
   -1.5001    1.7648   -0.1771 O   0  0  0  0  0  0  0  0  0  0  0  0
    0.1634    1.7559    1.3418 N   0  0  0  0  0  0  0  0  0  0  0  0
    0.8618    1.1897    1.8008 H   0  0  0  0  0  0  0  0  0  0  0  0
    0.1509    3.1886    1.6256 C   0  0  0  0  0  0  0  0  0  0  0  0
   -0.8272    3.4794    2.0152 H   0  0  0  0  0  0  0  0  0  0  0  0
    0.9172    3.4314    2.3624 H   0  0  0  0  0  0  0  0  0  0  0  0
    0.3414    3.7499    0.7095 H   0  0  0  0  0  0  0  0  0  0  0  0
  5  6  2  0  0  0  0
  5  7  1  0  0  0  0
  2  3  1  0  0  0  0
  2  4  1  0  0  0  0
  2  5  1  0  0  0  0
  1  2  1  0  0  0  0
 22 23  2  0  0  0  0
 22 24  1  0  0  0  0
 20 21  1  0  0  0  0
 19 20  1  0  0  0  0
 17 18  1  0  0  0  0
 17 19  2  0  0  0  0
 15 16  1  0  0  0  0
 15 17  1  0  0  0  0
 14 15  1  0  0  0  0
 14 20  2  0  0  0  0
 11 12  1  0  0  0  0
 11 13  1  0  0  0  0
 11 14  1  0  0  0  0
  9 10  1  0  0  0  0
  9 11  1  0  0  0  0
  9 22  1  0  0  0  0
  7  8  1  0  0  0  0
  7  9  1  0  0  0  0
 26 27  1  0  0  0  0
 26 28  1  0  0  0  0
 26 29  1  0  0  0  0
 24 25  1  0  0  0  0
 24 26  1  0  0  0  0
M  END
$$$$
default_name
  -OEChem-02102213163D

 29 29  0     1  0  0  0  0  0999 V2000
   -3.6042   -3.5728    1.4576 H   0  0  0  0  0  0  0  0  0  0  0  0
   -3.5202   -2.6488    0.8866 C   0  0  0  0  0  0  0  0  0  0  0  0
   -4.2052   -1.9048    1.2896 H   0  0  0  0  0  0  0  0  0  0  0  0
   -3.7552   -2.8428   -0.1584 H   0  0  0  0  0  0  0  0  0  0  0  0
   -2.1052   -2.1358    0.9946 C   0  0  0  0  0  0  0  0  0  0  0  0
   -1.2852   -2.7288    1.6826 O   0  0  0  0  0  0  0  0  0  0  0  0
   -1.8202   -1.0288    0.3146 N   0  0  0  0  0  0  0  0  0  0  0  0
   -2.5542   -0.5788   -0.2104 H   0  0  0  0  0  0  0  0  0  0  0  0
   -0.5102   -0.3728    0.3086 C   0  0  1  0  0  0  0  0  0  0  0  0
    0.0719   -0.7468    1.1521 H   0  0  0  0  0  0  0  0  0  0  0  0
    0.2338   -0.7427   -0.9878 C   0  0  0  0  0  0  0  0  0  0  0  0
    0.8013   -1.6606   -0.8246 H   0  0  0  0  0  0  0  0  0  0  0  0
   -0.4974   -0.9358   -1.7749 H   0  0  0  0  0  0  0  0  0  0  0  0
    1.1804    0.3272   -1.4669 C   0  0  0  0  0  0  0  0  0  0  0  0
    1.8585    1.2300   -0.6762 N   0  0  0  0  0  0  0  0  0  0  0  0
    1.7529    1.3447    0.3207 H   0  0  0  0  0  0  0  0  0  0  0  0
    2.6835    1.9371   -1.4668 C   0  0  0  0  0  0  0  0  0  0  0  0
    3.3443    2.7281   -1.1337 H   0  0  0  0  0  0  0  0  0  0  0  0
    2.5780    1.5220   -2.7375 N   0  0  0  0  0  0  0  0  0  0  0  0
    1.6228    0.5022   -2.7510 C   0  0  0  0  0  0  0  0  0  0  0  0
    1.3139   -0.0726   -3.6144 H   0  0  0  0  0  0  0  0  0  0  0  0
   -0.6600    1.1486    0.4782 C   0  0  0  0  0  0  0  0  0  0  0  0
   -1.5001    1.7648   -0.1771 O   0  0  0  0  0  0  0  0  0  0  0  0
    0.1634    1.7559    1.3418 N   0  0  0  0  0  0  0  0  0  0  0  0
    0.8618    1.1897    1.8008 H   0  0  0  0  0  0  0  0  0  0  0  0
    0.1509    3.1886    1.6256 C   0  0  0  0  0  0  0  0  0  0  0  0
   -0.8272    3.4794    2.0152 H   0  0  0  0  0  0  0  0  0  0  0  0
    0.9172    3.4314    2.3624 H   0  0  0  0  0  0  0  0  0  0  0  0
    0.3414    3.7499    0.7095 H   0  0  0  0  0  0  0  0  0  0  0  0
  5  6  2  0  0  0  0
  5  7  1  0  0  0  0
  2  3  1  0  0  0  0
  2  4  1  0  0  0  0
  2  5  1  0  0  0  0
  1  2  1  0  0  0  0
 22 23  2  0  0  0  0
 22 24  1  0  0  0  0
 20 21  1  0  0  0  0
 19 20  1  0  0  0  0
 17 18  1  0  0  0  0
 17 19  2  0  0  0  0
 15 16  1  0  0  0  0
 15 17  1  0  0  0  0
 14 15  1  0  0  0  0
 14 20  2  0  0  0  0
 11 12  1  0  0  0  0
 11 13  1  0  0  0  0
 11 14  1  0  0  0  0
  9 10  1  0  0  0  0
  9 11  1  0  0  0  0
  9 22  1  0  0  0  0
  7  8  1  0  0  0  0
  7  9  1  0  0  0  0
 26 27  1  0  0  0  0
 26 28  1  0  0  0  0
 26 29  1  0  0  0  0
 24 25  1  0  0  0  0
 24 26  1  0  0  0  0
M  END
$$$$
default_name
  -OEChem-02102213163D

 29 29  0     1  0  0  0  0  0999 V2000
   -3.6042   -3.5728    1.4576 H   0  0  0  0  0  0  0  0  0  0  0  0
   -3.5202   -2.6488    0.8866 C   0  0  0  0  0  0  0  0  0  0  0  0
   -4.2052   -1.9048    1.2896 H   0  0  0  0  0  0  0  0  0  0  0  0
   -3.7552   -2.8428   -0.1584 H   0  0  0  0  0  0  0  0  0  0  0  0
   -2.1052   -2.1358    0.9946 C   0  0  0  0  0  0  0  0  0  0  0  0
   -1.2852   -2.7288    1.6826 O   0  0  0  0  0  0  0  0  0  0  0  0
   -1.8202   -1.0288    0.3146 N   0  0  0  0  0  0  0  0  0  0  0  0
   -2.5542   -0.5788   -0.2104 H   0  0  0  0  0  0  0  0  0  0  0  0
   -0.5102   -0.3728    0.3086 C   0  0  1  0  0  0  0  0  0  0  0  0
    0.0719   -0.7468    1.1521 H   0  0  0  0  0  0  0  0  0  0  0  0
    0.2338   -0.7427   -0.9878 C   0  0  0  0  0  0  0  0  0  0  0  0
    0.8013   -1.6606   -0.8246 H   0  0  0  0  0  0  0  0  0  0  0  0
   -0.4974   -0.9358   -1.7749 H   0  0  0  0  0  0  0  0  0  0  0  0
    1.1804    0.3272   -1.4669 C   0  0  0  0  0  0  0  0  0  0  0  0
    2.0725    1.0347   -0.6899 N   0  0  0  0  0  0  0  0  0  0  0  0
    2.1566    0.9847    0.3144 H   0  0  0  0  0  0  0  0  0  0  0  0
    2.8094    1.8091   -1.5039 C   0  0  0  0  0  0  0  0  0  0  0  0
    3.5926    2.4857   -1.1845 H   0  0  0  0  0  0  0  0  0  0  0  0
    2.4407    1.6244   -2.7799 N   0  0  0  0  0  0  0  0  0  0  0  0
    1.4035    0.6882   -2.7689 C   0  0  0  0  0  0  0  0  0  0  0  0
    0.8921    0.2909   -3.6360 H   0  0  0  0  0  0  0  0  0  0  0  0
   -0.6600    1.1486    0.4782 C   0  0  0  0  0  0  0  0  0  0  0  0
   -1.5001    1.7648   -0.1771 O   0  0  0  0  0  0  0  0  0  0  0  0
    0.1634    1.7559    1.3418 N   0  0  0  0  0  0  0  0  0  0  0  0
    0.8618    1.1897    1.8008 H   0  0  0  0  0  0  0  0  0  0  0  0
    0.1509    3.1886    1.6256 C   0  0  0  0  0  0  0  0  0  0  0  0
   -0.8272    3.4794    2.0152 H   0  0  0  0  0  0  0  0  0  0  0  0
    0.9172    3.4314    2.3624 H   0  0  0  0  0  0  0  0  0  0  0  0
    0.3414    3.7499    0.7095 H   0  0  0  0  0  0  0  0  0  0  0  0
  5  6  2  0  0  0  0
  5  7  1  0  0  0  0
  2  3  1  0  0  0  0
  2  4  1  0  0  0  0
  2  5  1  0  0  0  0
  1  2  1  0  0  0  0
 22 23  2  0  0  0  0
 22 24  1  0  0  0  0
 20 21  1  0  0  0  0
 19 20  1  0  0  0  0
 17 18  1  0  0  0  0
 17 19  2  0  0  0  0
 15 16  1  0  0  0  0
 15 17  1  0  0  0  0
 14 15  1  0  0  0  0
 14 20  2  0  0  0  0
 11 12  1  0  0  0  0
 11 13  1  0  0  0  0
 11 14  1  0  0  0  0
  9 10  1  0  0  0  0
  9 11  1  0  0  0  0
  9 22  1  0  0  0  0
  7  8  1  0  0  0  0
  7  9  1  0  0  0  0
 26 27  1  0  0  0  0
 26 28  1  0  0  0  0
 26 29  1  0  0  0  0
 24 25  1  0  0  0  0
 24 26  1  0  0  0  0
M  END
$$$$
default_name
  -OEChem-02102213163D

 29 29  0     1  0  0  0  0  0999 V2000
   -3.6042   -3.5728    1.4576 H   0  0  0  0  0  0  0  0  0  0  0  0
   -3.5202   -2.6488    0.8866 C   0  0  0  0  0  0  0  0  0  0  0  0
   -4.2052   -1.9048    1.2896 H   0  0  0  0  0  0  0  0  0  0  0  0
   -3.7552   -2.8428   -0.1584 H   0  0  0  0  0  0  0  0  0  0  0  0
   -2.1052   -2.1358    0.9946 C   0  0  0  0  0  0  0  0  0  0  0  0
   -1.2852   -2.7288    1.6826 O   0  0  0  0  0  0  0  0  0  0  0  0
   -1.8202   -1.0288    0.3146 N   0  0  0  0  0  0  0  0  0  0  0  0
   -2.5542   -0.5788   -0.2104 H   0  0  0  0  0  0  0  0  0  0  0  0
   -0.5102   -0.3728    0.3086 C   0  0  1  0  0  0  0  0  0  0  0  0
    0.0719   -0.7468    1.1521 H   0  0  0  0  0  0  0  0  0  0  0  0
    0.2338   -0.7427   -0.9878 C   0  0  0  0  0  0  0  0  0  0  0  0
    0.8013   -1.6606   -0.8246 H   0  0  0  0  0  0  0  0  0  0  0  0
   -0.4974   -0.9358   -1.7749 H   0  0  0  0  0  0  0  0  0  0  0  0
    1.1804    0.3272   -1.4669 C   0  0  0  0  0  0  0  0  0  0  0  0
    2.2606    0.8306   -0.7741 N   0  0  0  0  0  0  0  0  0  0  0  0
    2.5159    0.6048    0.1756 H   0  0  0  0  0  0  0  0  0  0  0  0
    2.9137    1.6811   -1.5837 C   0  0  0  0  0  0  0  0  0  0  0  0
    3.8033    2.2393   -1.3185 H   0  0  0  0  0  0  0  0  0  0  0  0
    2.3088    1.7416   -2.7790 N   0  0  0  0  0  0  0  0  0  0  0  0
    1.2037    0.8889   -2.7156 C   0  0  0  0  0  0  0  0  0  0  0  0
    0.5105    0.6802   -3.5203 H   0  0  0  0  0  0  0  0  0  0  0  0
   -0.6600    1.1486    0.4782 C   0  0  0  0  0  0  0  0  0  0  0  0
   -1.5001    1.7648   -0.1771 O   0  0  0  0  0  0  0  0  0  0  0  0
    0.1634    1.7559    1.3418 N   0  0  0  0  0  0  0  0  0  0  0  0
    0.8618    1.1897    1.8008 H   0  0  0  0  0  0  0  0  0  0  0  0
    0.1509    3.1886    1.6256 C   0  0  0  0  0  0  0  0  0  0  0  0
   -0.8272    3.4794    2.0152 H   0  0  0  0  0  0  0  0  0  0  0  0
    0.9172    3.4314    2.3624 H   0  0  0  0  0  0  0  0  0  0  0  0
    0.3414    3.7499    0.7095 H   0  0  0  0  0  0  0  0  0  0  0  0
  5  6  2  0  0  0  0
  5  7  1  0  0  0  0
  2  3  1  0  0  0  0
  2  4  1  0  0  0  0
  2  5  1  0  0  0  0
  1  2  1  0  0  0  0
 22 23  2  0  0  0  0
 22 24  1  0  0  0  0
 20 21  1  0  0  0  0
 19 20  1  0  0  0  0
 17 18  1  0  0  0  0
 17 19  2  0  0  0  0
 15 16  1  0  0  0  0
 15 17  1  0  0  0  0
 14 15  1  0  0  0  0
 14 20  2  0  0  0  0
 11 12  1  0  0  0  0
 11 13  1  0  0  0  0
 11 14  1  0  0  0  0
  9 10  1  0  0  0  0
  9 11  1  0  0  0  0
  9 22  1  0  0  0  0
  7  8  1  0  0  0  0
  7  9  1  0  0  0  0
 26 27  1  0  0  0  0
 26 28  1  0  0  0  0
 26 29  1  0  0  0  0
 24 25  1  0  0  0  0
 24 26  1  0  0  0  0
M  END
$$$$
default_name
  -OEChem-02102213163D

 29 29  0     1  0  0  0  0  0999 V2000
   -3.6042   -3.5728    1.4576 H   0  0  0  0  0  0  0  0  0  0  0  0
   -3.5202   -2.6488    0.8866 C   0  0  0  0  0  0  0  0  0  0  0  0
   -4.2052   -1.9048    1.2896 H   0  0  0  0  0  0  0  0  0  0  0  0
   -3.7552   -2.8428   -0.1584 H   0  0  0  0  0  0  0  0  0  0  0  0
   -2.1052   -2.1358    0.9946 C   0  0  0  0  0  0  0  0  0  0  0  0
   -1.2852   -2.7288    1.6826 O   0  0  0  0  0  0  0  0  0  0  0  0
   -1.8202   -1.0288    0.3146 N   0  0  0  0  0  0  0  0  0  0  0  0
   -2.5542   -0.5788   -0.2104 H   0  0  0  0  0  0  0  0  0  0  0  0
   -0.5102   -0.3728    0.3086 C   0  0  1  0  0  0  0  0  0  0  0  0
    0.0719   -0.7468    1.1521 H   0  0  0  0  0  0  0  0  0  0  0  0
    0.2338   -0.7427   -0.9878 C   0  0  0  0  0  0  0  0  0  0  0  0
    0.8013   -1.6606   -0.8246 H   0  0  0  0  0  0  0  0  0  0  0  0
   -0.4974   -0.9358   -1.7749 H   0  0  0  0  0  0  0  0  0  0  0  0
    1.1804    0.3272   -1.4669 C   0  0  0  0  0  0  0  0  0  0  0  0
    2.4100    0.6316   -0.9232 N   0  0  0  0  0  0  0  0  0  0  0  0
    2.8061    0.2308   -0.0862 H   0  0  0  0  0  0  0  0  0  0  0  0
    2.9893    1.5618   -1.7008 C   0  0  0  0  0  0  0  0  0  0  0  0
    3.9618    2.0058   -1.5268 H   0  0  0  0  0  0  0  0  0  0  0  0
    2.1912    1.8654   -2.7348 N   0  0  0  0  0  0  0  0  0  0  0  0
    1.0369    1.0905   -2.5948 C   0  0  0  0  0  0  0  0  0  0  0  0
    0.1953    1.0689   -3.2750 H   0  0  0  0  0  0  0  0  0  0  0  0
   -0.6600    1.1486    0.4782 C   0  0  0  0  0  0  0  0  0  0  0  0
   -1.5001    1.7648   -0.1771 O   0  0  0  0  0  0  0  0  0  0  0  0
    0.1634    1.7559    1.3418 N   0  0  0  0  0  0  0  0  0  0  0  0
    0.8618    1.1897    1.8008 H   0  0  0  0  0  0  0  0  0  0  0  0
    0.1509    3.1886    1.6256 C   0  0  0  0  0  0  0  0  0  0  0  0
   -0.8272    3.4794    2.0152 H   0  0  0  0  0  0  0  0  0  0  0  0
    0.9172    3.4314    2.3624 H   0  0  0  0  0  0  0  0  0  0  0  0
    0.3414    3.7499    0.7095 H   0  0  0  0  0  0  0  0  0  0  0  0
  5  6  2  0  0  0  0
  5  7  1  0  0  0  0
  2  3  1  0  0  0  0
  2  4  1  0  0  0  0
  2  5  1  0  0  0  0
  1  2  1  0  0  0  0
 22 23  2  0  0  0  0
 22 24  1  0  0  0  0
 20 21  1  0  0  0  0
 19 20  1  0  0  0  0
 17 18  1  0  0  0  0
 17 19  2  0  0  0  0
 15 16  1  0  0  0  0
 15 17  1  0  0  0  0
 14 15  1  0  0  0  0
 14 20  2  0  0  0  0
 11 12  1  0  0  0  0
 11 13  1  0  0  0  0
 11 14  1  0  0  0  0
  9 10  1  0  0  0  0
  9 11  1  0  0  0  0
  9 22  1  0  0  0  0
  7  8  1  0  0  0  0
  7  9  1  0  0  0  0
 26 27  1  0  0  0  0
 26 28  1  0  0  0  0
 26 29  1  0  0  0  0
 24 25  1  0  0  0  0
 24 26  1  0  0  0  0
M  END
$$$$
default_name
  -OEChem-02102213163D

 29 29  0     1  0  0  0  0  0999 V2000
   -3.6042   -3.5728    1.4576 H   0  0  0  0  0  0  0  0  0  0  0  0
   -3.5202   -2.6488    0.8866 C   0  0  0  0  0  0  0  0  0  0  0  0
   -4.2052   -1.9048    1.2896 H   0  0  0  0  0  0  0  0  0  0  0  0
   -3.7552   -2.8428   -0.1584 H   0  0  0  0  0  0  0  0  0  0  0  0
   -2.1052   -2.1358    0.9946 C   0  0  0  0  0  0  0  0  0  0  0  0
   -1.2852   -2.7288    1.6826 O   0  0  0  0  0  0  0  0  0  0  0  0
   -1.8202   -1.0288    0.3146 N   0  0  0  0  0  0  0  0  0  0  0  0
   -2.5542   -0.5788   -0.2104 H   0  0  0  0  0  0  0  0  0  0  0  0
   -0.5102   -0.3728    0.3086 C   0  0  1  0  0  0  0  0  0  0  0  0
    0.0719   -0.7468    1.1521 H   0  0  0  0  0  0  0  0  0  0  0  0
    0.2338   -0.7427   -0.9878 C   0  0  0  0  0  0  0  0  0  0  0  0
    0.8013   -1.6606   -0.8246 H   0  0  0  0  0  0  0  0  0  0  0  0
   -0.4974   -0.9358   -1.7749 H   0  0  0  0  0  0  0  0  0  0  0  0
    1.1804    0.3272   -1.4669 C   0  0  0  0  0  0  0  0  0  0  0  0
    2.5105    0.4514   -1.1271 N   0  0  0  0  0  0  0  0  0  0  0  0
    3.0075   -0.1117   -0.4533 H   0  0  0  0  0  0  0  0  0  0  0  0
    3.0309    1.4594   -1.8471 C   0  0  0  0  0  0  0  0  0  0  0  0
    4.0575    1.8011   -1.7950 H   0  0  0  0  0  0  0  0  0  0  0  0
    2.0959    1.9876   -2.6503 N   0  0  0  0  0  0  0  0  0  0  0  0
    0.9147    1.2793   -2.4147 C   0  0  0  0  0  0  0  0  0  0  0  0
   -0.0321    1.4303   -2.9170 H   0  0  0  0  0  0  0  0  0  0  0  0
   -0.6600    1.1486    0.4782 C   0  0  0  0  0  0  0  0  0  0  0  0
   -1.5001    1.7648   -0.1771 O   0  0  0  0  0  0  0  0  0  0  0  0
    0.1634    1.7559    1.3418 N   0  0  0  0  0  0  0  0  0  0  0  0
    0.8618    1.1897    1.8008 H   0  0  0  0  0  0  0  0  0  0  0  0
    0.1509    3.1886    1.6256 C   0  0  0  0  0  0  0  0  0  0  0  0
   -0.8272    3.4794    2.0152 H   0  0  0  0  0  0  0  0  0  0  0  0
    0.9172    3.4314    2.3624 H   0  0  0  0  0  0  0  0  0  0  0  0
    0.3414    3.7499    0.7095 H   0  0  0  0  0  0  0  0  0  0  0  0
  5  6  2  0  0  0  0
  5  7  1  0  0  0  0
  2  3  1  0  0  0  0
  2  4  1  0  0  0  0
  2  5  1  0  0  0  0
  1  2  1  0  0  0  0
 22 23  2  0  0  0  0
 22 24  1  0  0  0  0
 20 21  1  0  0  0  0
 19 20  1  0  0  0  0
 17 18  1  0  0  0  0
 17 19  2  0  0  0  0
 15 16  1  0  0  0  0
 15 17  1  0  0  0  0
 14 15  1  0  0  0  0
 14 20  2  0  0  0  0
 11 12  1  0  0  0  0
 11 13  1  0  0  0  0
 11 14  1  0  0  0  0
  9 10  1  0  0  0  0
  9 11  1  0  0  0  0
  9 22  1  0  0  0  0
  7  8  1  0  0  0  0
  7  9  1  0  0  0  0
 26 27  1  0  0  0  0
 26 28  1  0  0  0  0
 26 29  1  0  0  0  0
 24 25  1  0  0  0  0
 24 26  1  0  0  0  0
M  END
$$$$
default_name
  -OEChem-02102213163D

 29 29  0     1  0  0  0  0  0999 V2000
   -3.6042   -3.5728    1.4576 H   0  0  0  0  0  0  0  0  0  0  0  0
   -3.5202   -2.6488    0.8866 C   0  0  0  0  0  0  0  0  0  0  0  0
   -4.2052   -1.9048    1.2896 H   0  0  0  0  0  0  0  0  0  0  0  0
   -3.7552   -2.8428   -0.1584 H   0  0  0  0  0  0  0  0  0  0  0  0
   -2.1052   -2.1358    0.9946 C   0  0  0  0  0  0  0  0  0  0  0  0
   -1.2852   -2.7288    1.6826 O   0  0  0  0  0  0  0  0  0  0  0  0
   -1.8202   -1.0288    0.3146 N   0  0  0  0  0  0  0  0  0  0  0  0
   -2.5542   -0.5788   -0.2104 H   0  0  0  0  0  0  0  0  0  0  0  0
   -0.5102   -0.3728    0.3086 C   0  0  1  0  0  0  0  0  0  0  0  0
    0.0719   -0.7468    1.1521 H   0  0  0  0  0  0  0  0  0  0  0  0
    0.2338   -0.7427   -0.9878 C   0  0  0  0  0  0  0  0  0  0  0  0
    0.8013   -1.6606   -0.8246 H   0  0  0  0  0  0  0  0  0  0  0  0
   -0.4974   -0.9358   -1.7749 H   0  0  0  0  0  0  0  0  0  0  0  0
    1.1804    0.3272   -1.4669 C   0  0  0  0  0  0  0  0  0  0  0  0
    2.5553    0.3022   -1.3718 N   0  0  0  0  0  0  0  0  0  0  0  0
    3.1064   -0.3995   -0.9006 H   0  0  0  0  0  0  0  0  0  0  0  0
    3.0358    1.3809   -2.0128 C   0  0  0  0  0  0  0  0  0  0  0  0
    4.0837    1.6391   -2.1050 H   0  0  0  0  0  0  0  0  0  0  0  0
    2.0294    2.0996   -2.5313 N   0  0  0  0  0  0  0  0  0  0  0  0
    0.8452    1.4424   -2.1875 C   0  0  0  0  0  0  0  0  0  0  0  0
   -0.1562    1.7400   -2.4706 H   0  0  0  0  0  0  0  0  0  0  0  0
   -0.6600    1.1486    0.4782 C   0  0  0  0  0  0  0  0  0  0  0  0
   -1.5001    1.7648   -0.1771 O   0  0  0  0  0  0  0  0  0  0  0  0
    0.1634    1.7559    1.3418 N   0  0  0  0  0  0  0  0  0  0  0  0
    0.8618    1.1897    1.8008 H   0  0  0  0  0  0  0  0  0  0  0  0
    0.1509    3.1886    1.6256 C   0  0  0  0  0  0  0  0  0  0  0  0
   -0.8272    3.4794    2.0152 H   0  0  0  0  0  0  0  0  0  0  0  0
    0.9172    3.4314    2.3624 H   0  0  0  0  0  0  0  0  0  0  0  0
    0.3414    3.7499    0.7095 H   0  0  0  0  0  0  0  0  0  0  0  0
  5  6  2  0  0  0  0
  5  7  1  0  0  0  0
  2  3  1  0  0  0  0
  2  4  1  0  0  0  0
  2  5  1  0  0  0  0
  1  2  1  0  0  0  0
 22 23  2  0  0  0  0
 22 24  1  0  0  0  0
 20 21  1  0  0  0  0
 19 20  1  0  0  0  0
 17 18  1  0  0  0  0
 17 19  2  0  0  0  0
 15 16  1  0  0  0  0
 15 17  1  0  0  0  0
 14 15  1  0  0  0  0
 14 20  2  0  0  0  0
 11 12  1  0  0  0  0
 11 13  1  0  0  0  0
 11 14  1  0  0  0  0
  9 10  1  0  0  0  0
  9 11  1  0  0  0  0
  9 22  1  0  0  0  0
  7  8  1  0  0  0  0
  7  9  1  0  0  0  0
 26 27  1  0  0  0  0
 26 28  1  0  0  0  0
 26 29  1  0  0  0  0
 24 25  1  0  0  0  0
 24 26  1  0  0  0  0
M  END
$$$$
default_name
  -OEChem-02102213163D

 29 29  0     1  0  0  0  0  0999 V2000
   -3.6042   -3.5728    1.4576 H   0  0  0  0  0  0  0  0  0  0  0  0
   -3.5202   -2.6488    0.8866 C   0  0  0  0  0  0  0  0  0  0  0  0
   -4.2052   -1.9048    1.2896 H   0  0  0  0  0  0  0  0  0  0  0  0
   -3.7552   -2.8428   -0.1584 H   0  0  0  0  0  0  0  0  0  0  0  0
   -2.1052   -2.1358    0.9946 C   0  0  0  0  0  0  0  0  0  0  0  0
   -1.2852   -2.7288    1.6826 O   0  0  0  0  0  0  0  0  0  0  0  0
   -1.8202   -1.0288    0.3146 N   0  0  0  0  0  0  0  0  0  0  0  0
   -2.5542   -0.5788   -0.2104 H   0  0  0  0  0  0  0  0  0  0  0  0
   -0.5102   -0.3728    0.3086 C   0  0  1  0  0  0  0  0  0  0  0  0
    0.0719   -0.7468    1.1521 H   0  0  0  0  0  0  0  0  0  0  0  0
    0.2338   -0.7427   -0.9878 C   0  0  0  0  0  0  0  0  0  0  0  0
    0.8013   -1.6606   -0.8246 H   0  0  0  0  0  0  0  0  0  0  0  0
   -0.4974   -0.9358   -1.7749 H   0  0  0  0  0  0  0  0  0  0  0  0
    1.1804    0.3272   -1.4669 C   0  0  0  0  0  0  0  0  0  0  0  0
    2.5413    0.1942   -1.6406 N   0  0  0  0  0  0  0  0  0  0  0  0
    3.0961   -0.6128   -1.3976 H   0  0  0  0  0  0  0  0  0  0  0  0
    3.0037    1.3316   -2.1865 C   0  0  0  0  0  0  0  0  0  0  0  0
    4.0388    1.5308   -2.4357 H   0  0  0  0  0  0  0  0  0  0  0  0
    1.9963    2.1940   -2.3860 N   0  0  0  0  0  0  0  0  0  0  0  0
    0.8333    1.5688   -1.9288 C   0  0  0  0  0  0  0  0  0  0  0  0
   -0.1685    1.9767   -1.9663 H   0  0  0  0  0  0  0  0  0  0  0  0
   -0.6600    1.1486    0.4782 C   0  0  0  0  0  0  0  0  0  0  0  0
   -1.5001    1.7648   -0.1771 O   0  0  0  0  0  0  0  0  0  0  0  0
    0.1634    1.7559    1.3418 N   0  0  0  0  0  0  0  0  0  0  0  0
    0.8618    1.1897    1.8008 H   0  0  0  0  0  0  0  0  0  0  0  0
    0.1509    3.1886    1.6256 C   0  0  0  0  0  0  0  0  0  0  0  0
   -0.8272    3.4794    2.0152 H   0  0  0  0  0  0  0  0  0  0  0  0
    0.9172    3.4314    2.3624 H   0  0  0  0  0  0  0  0  0  0  0  0
    0.3414    3.7499    0.7095 H   0  0  0  0  0  0  0  0  0  0  0  0
  5  6  2  0  0  0  0
  5  7  1  0  0  0  0
  2  3  1  0  0  0  0
  2  4  1  0  0  0  0
  2  5  1  0  0  0  0
  1  2  1  0  0  0  0
 22 23  2  0  0  0  0
 22 24  1  0  0  0  0
 20 21  1  0  0  0  0
 19 20  1  0  0  0  0
 17 18  1  0  0  0  0
 17 19  2  0  0  0  0
 15 16  1  0  0  0  0
 15 17  1  0  0  0  0
 14 15  1  0  0  0  0
 14 20  2  0  0  0  0
 11 12  1  0  0  0  0
 11 13  1  0  0  0  0
 11 14  1  0  0  0  0
  9 10  1  0  0  0  0
  9 11  1  0  0  0  0
  9 22  1  0  0  0  0
  7  8  1  0  0  0  0
  7  9  1  0  0  0  0
 26 27  1  0  0  0  0
 26 28  1  0  0  0  0
 26 29  1  0  0  0  0
 24 25  1  0  0  0  0
 24 26  1  0  0  0  0
M  END
$$$$
default_name
  -OEChem-02102213163D

 29 29  0     1  0  0  0  0  0999 V2000
   -3.6042   -3.5728    1.4576 H   0  0  0  0  0  0  0  0  0  0  0  0
   -3.5202   -2.6488    0.8866 C   0  0  0  0  0  0  0  0  0  0  0  0
   -4.2052   -1.9048    1.2896 H   0  0  0  0  0  0  0  0  0  0  0  0
   -3.7552   -2.8428   -0.1584 H   0  0  0  0  0  0  0  0  0  0  0  0
   -2.1052   -2.1358    0.9946 C   0  0  0  0  0  0  0  0  0  0  0  0
   -1.2852   -2.7288    1.6826 O   0  0  0  0  0  0  0  0  0  0  0  0
   -1.8202   -1.0288    0.3146 N   0  0  0  0  0  0  0  0  0  0  0  0
   -2.5542   -0.5788   -0.2104 H   0  0  0  0  0  0  0  0  0  0  0  0
   -0.5102   -0.3728    0.3086 C   0  0  1  0  0  0  0  0  0  0  0  0
    0.0719   -0.7468    1.1521 H   0  0  0  0  0  0  0  0  0  0  0  0
    0.2338   -0.7427   -0.9878 C   0  0  0  0  0  0  0  0  0  0  0  0
    0.8013   -1.6606   -0.8246 H   0  0  0  0  0  0  0  0  0  0  0  0
   -0.4974   -0.9358   -1.7749 H   0  0  0  0  0  0  0  0  0  0  0  0
    1.1804    0.3272   -1.4669 C   0  0  0  0  0  0  0  0  0  0  0  0
    2.4695    0.1348   -1.9153 N   0  0  0  0  0  0  0  0  0  0  0  0
    2.9772   -0.7373   -1.9104 H   0  0  0  0  0  0  0  0  0  0  0  0
    2.9366    1.3149   -2.3564 C   0  0  0  0  0  0  0  0  0  0  0  0
    3.9257    1.4837   -2.7643 H   0  0  0  0  0  0  0  0  0  0  0  0
    1.9988    2.2643   -2.2242 N   0  0  0  0  0  0  0  0  0  0  0  0
    0.8797    1.6498   -1.6562 C   0  0  0  0  0  0  0  0  0  0  0  0
   -0.0683    2.1244   -1.4384 H   0  0  0  0  0  0  0  0  0  0  0  0
   -0.6600    1.1486    0.4782 C   0  0  0  0  0  0  0  0  0  0  0  0
   -1.5001    1.7648   -0.1771 O   0  0  0  0  0  0  0  0  0  0  0  0
    0.1634    1.7559    1.3418 N   0  0  0  0  0  0  0  0  0  0  0  0
    0.8618    1.1897    1.8008 H   0  0  0  0  0  0  0  0  0  0  0  0
    0.1509    3.1886    1.6256 C   0  0  0  0  0  0  0  0  0  0  0  0
   -0.8272    3.4794    2.0152 H   0  0  0  0  0  0  0  0  0  0  0  0
    0.9172    3.4314    2.3624 H   0  0  0  0  0  0  0  0  0  0  0  0
    0.3414    3.7499    0.7095 H   0  0  0  0  0  0  0  0  0  0  0  0
  5  6  2  0  0  0  0
  5  7  1  0  0  0  0
  2  3  1  0  0  0  0
  2  4  1  0  0  0  0
  2  5  1  0  0  0  0
  1  2  1  0  0  0  0
 22 23  2  0  0  0  0
 22 24  1  0  0  0  0
 20 21  1  0  0  0  0
 19 20  1  0  0  0  0
 17 18  1  0  0  0  0
 17 19  2  0  0  0  0
 15 16  1  0  0  0  0
 15 17  1  0  0  0  0
 14 15  1  0  0  0  0
 14 20  2  0  0  0  0
 11 12  1  0  0  0  0
 11 13  1  0  0  0  0
 11 14  1  0  0  0  0
  9 10  1  0  0  0  0
  9 11  1  0  0  0  0
  9 22  1  0  0  0  0
  7  8  1  0  0  0  0
  7  9  1  0  0  0  0
 26 27  1  0  0  0  0
 26 28  1  0  0  0  0
 26 29  1  0  0  0  0
 24 25  1  0  0  0  0
 24 26  1  0  0  0  0
M  END
$$$$
default_name
  -OEChem-02102213163D

 29 29  0     1  0  0  0  0  0999 V2000
   -3.6042   -3.5728    1.4576 H   0  0  0  0  0  0  0  0  0  0  0  0
   -3.5202   -2.6488    0.8866 C   0  0  0  0  0  0  0  0  0  0  0  0
   -4.2052   -1.9048    1.2896 H   0  0  0  0  0  0  0  0  0  0  0  0
   -3.7552   -2.8428   -0.1584 H   0  0  0  0  0  0  0  0  0  0  0  0
   -2.1052   -2.1358    0.9946 C   0  0  0  0  0  0  0  0  0  0  0  0
   -1.2852   -2.7288    1.6826 O   0  0  0  0  0  0  0  0  0  0  0  0
   -1.8202   -1.0288    0.3146 N   0  0  0  0  0  0  0  0  0  0  0  0
   -2.5542   -0.5788   -0.2104 H   0  0  0  0  0  0  0  0  0  0  0  0
   -0.5102   -0.3728    0.3086 C   0  0  1  0  0  0  0  0  0  0  0  0
    0.0719   -0.7468    1.1521 H   0  0  0  0  0  0  0  0  0  0  0  0
    0.2338   -0.7427   -0.9878 C   0  0  0  0  0  0  0  0  0  0  0  0
    0.8013   -1.6606   -0.8246 H   0  0  0  0  0  0  0  0  0  0  0  0
   -0.4974   -0.9358   -1.7749 H   0  0  0  0  0  0  0  0  0  0  0  0
    1.1804    0.3272   -1.4669 C   0  0  0  0  0  0  0  0  0  0  0  0
    2.3448    0.1279   -2.1771 N   0  0  0  0  0  0  0  0  0  0  0  0
    2.7578   -0.7643   -2.4042 H   0  0  0  0  0  0  0  0  0  0  0  0
    2.8392    1.3319   -2.5108 C   0  0  0  0  0  0  0  0  0  0  0  0
    3.7522    1.5010   -3.0687 H   0  0  0  0  0  0  0  0  0  0  0  0
    2.0367    2.3056   -2.0569 N   0  0  0  0  0  0  0  0  0  0  0  0
    0.9813    1.6798   -1.3882 C   0  0  0  0  0  0  0  0  0  0  0  0
    0.1377    2.1729   -0.9229 H   0  0  0  0  0  0  0  0  0  0  0  0
   -0.6600    1.1486    0.4782 C   0  0  0  0  0  0  0  0  0  0  0  0
   -1.5001    1.7648   -0.1771 O   0  0  0  0  0  0  0  0  0  0  0  0
    0.1634    1.7559    1.3418 N   0  0  0  0  0  0  0  0  0  0  0  0
    0.8618    1.1897    1.8008 H   0  0  0  0  0  0  0  0  0  0  0  0
    0.1509    3.1886    1.6256 C   0  0  0  0  0  0  0  0  0  0  0  0
   -0.8272    3.4794    2.0152 H   0  0  0  0  0  0  0  0  0  0  0  0
    0.9172    3.4314    2.3624 H   0  0  0  0  0  0  0  0  0  0  0  0
    0.3414    3.7499    0.7095 H   0  0  0  0  0  0  0  0  0  0  0  0
  5  6  2  0  0  0  0
  5  7  1  0  0  0  0
  2  3  1  0  0  0  0
  2  4  1  0  0  0  0
  2  5  1  0  0  0  0
  1  2  1  0  0  0  0
 22 23  2  0  0  0  0
 22 24  1  0  0  0  0
 20 21  1  0  0  0  0
 19 20  1  0  0  0  0
 17 18  1  0  0  0  0
 17 19  2  0  0  0  0
 15 16  1  0  0  0  0
 15 17  1  0  0  0  0
 14 15  1  0  0  0  0
 14 20  2  0  0  0  0
 11 12  1  0  0  0  0
 11 13  1  0  0  0  0
 11 14  1  0  0  0  0
  9 10  1  0  0  0  0
  9 11  1  0  0  0  0
  9 22  1  0  0  0  0
  7  8  1  0  0  0  0
  7  9  1  0  0  0  0
 26 27  1  0  0  0  0
 26 28  1  0  0  0  0
 26 29  1  0  0  0  0
 24 25  1  0  0  0  0
 24 26  1  0  0  0  0
M  END
$$$$
default_name
  -OEChem-02102213163D

 29 29  0     1  0  0  0  0  0999 V2000
   -3.6042   -3.5728    1.4576 H   0  0  0  0  0  0  0  0  0  0  0  0
   -3.5202   -2.6488    0.8866 C   0  0  0  0  0  0  0  0  0  0  0  0
   -4.2052   -1.9048    1.2896 H   0  0  0  0  0  0  0  0  0  0  0  0
   -3.7552   -2.8428   -0.1584 H   0  0  0  0  0  0  0  0  0  0  0  0
   -2.1052   -2.1358    0.9946 C   0  0  0  0  0  0  0  0  0  0  0  0
   -1.2852   -2.7288    1.6826 O   0  0  0  0  0  0  0  0  0  0  0  0
   -1.8202   -1.0288    0.3146 N   0  0  0  0  0  0  0  0  0  0  0  0
   -2.5542   -0.5788   -0.2104 H   0  0  0  0  0  0  0  0  0  0  0  0
   -0.5102   -0.3728    0.3086 C   0  0  1  0  0  0  0  0  0  0  0  0
    0.0719   -0.7468    1.1521 H   0  0  0  0  0  0  0  0  0  0  0  0
    0.2338   -0.7427   -0.9878 C   0  0  0  0  0  0  0  0  0  0  0  0
    0.8013   -1.6606   -0.8246 H   0  0  0  0  0  0  0  0  0  0  0  0
   -0.4974   -0.9358   -1.7749 H   0  0  0  0  0  0  0  0  0  0  0  0
    1.1804    0.3272   -1.4669 C   0  0  0  0  0  0  0  0  0  0  0  0
    2.1757    0.1741   -2.4081 N   0  0  0  0  0  0  0  0  0  0  0  0
    2.4530   -0.6920   -2.8452 H   0  0  0  0  0  0  0  0  0  0  0  0
    2.7182    1.3814   -2.6394 C   0  0  0  0  0  0  0  0  0  0  0  0
    3.5300    1.5814   -3.3280 H   0  0  0  0  0  0  0  0  0  0  0  0
    2.1074    2.3152   -1.8956 N   0  0  0  0  0  0  0  0  0  0  0  0
    1.1312    1.6569   -1.1431 C   0  0  0  0  0  0  0  0  0  0  0  0
    0.4354    2.1191   -0.4549 H   0  0  0  0  0  0  0  0  0  0  0  0
   -0.6600    1.1486    0.4782 C   0  0  0  0  0  0  0  0  0  0  0  0
   -1.5001    1.7648   -0.1771 O   0  0  0  0  0  0  0  0  0  0  0  0
    0.1634    1.7559    1.3418 N   0  0  0  0  0  0  0  0  0  0  0  0
    0.8618    1.1897    1.8008 H   0  0  0  0  0  0  0  0  0  0  0  0
    0.1509    3.1886    1.6256 C   0  0  0  0  0  0  0  0  0  0  0  0
   -0.8272    3.4794    2.0152 H   0  0  0  0  0  0  0  0  0  0  0  0
    0.9172    3.4314    2.3624 H   0  0  0  0  0  0  0  0  0  0  0  0
    0.3414    3.7499    0.7095 H   0  0  0  0  0  0  0  0  0  0  0  0
  5  6  2  0  0  0  0
  5  7  1  0  0  0  0
  2  3  1  0  0  0  0
  2  4  1  0  0  0  0
  2  5  1  0  0  0  0
  1  2  1  0  0  0  0
 22 23  2  0  0  0  0
 22 24  1  0  0  0  0
 20 21  1  0  0  0  0
 19 20  1  0  0  0  0
 17 18  1  0  0  0  0
 17 19  2  0  0  0  0
 15 16  1  0  0  0  0
 15 17  1  0  0  0  0
 14 15  1  0  0  0  0
 14 20  2  0  0  0  0
 11 12  1  0  0  0  0
 11 13  1  0  0  0  0
 11 14  1  0  0  0  0
  9 10  1  0  0  0  0
  9 11  1  0  0  0  0
  9 22  1  0  0  0  0
  7  8  1  0  0  0  0
  7  9  1  0  0  0  0
 26 27  1  0  0  0  0
 26 28  1  0  0  0  0
 26 29  1  0  0  0  0
 24 25  1  0  0  0  0
 24 26  1  0  0  0  0
M  END
$$$$
default_name
  -OEChem-02102213163D

 29 29  0     1  0  0  0  0  0999 V2000
   -3.6042   -3.5728    1.4576 H   0  0  0  0  0  0  0  0  0  0  0  0
   -3.5202   -2.6488    0.8866 C   0  0  0  0  0  0  0  0  0  0  0  0
   -4.2052   -1.9048    1.2896 H   0  0  0  0  0  0  0  0  0  0  0  0
   -3.7552   -2.8428   -0.1584 H   0  0  0  0  0  0  0  0  0  0  0  0
   -2.1052   -2.1358    0.9946 C   0  0  0  0  0  0  0  0  0  0  0  0
   -1.2852   -2.7288    1.6826 O   0  0  0  0  0  0  0  0  0  0  0  0
   -1.8202   -1.0288    0.3146 N   0  0  0  0  0  0  0  0  0  0  0  0
   -2.5542   -0.5788   -0.2104 H   0  0  0  0  0  0  0  0  0  0  0  0
   -0.5102   -0.3728    0.3086 C   0  0  1  0  0  0  0  0  0  0  0  0
    0.0719   -0.7468    1.1521 H   0  0  0  0  0  0  0  0  0  0  0  0
    0.2338   -0.7427   -0.9878 C   0  0  0  0  0  0  0  0  0  0  0  0
    0.5777   -1.7763   -0.9199 H   0  0  0  0  0  0  0  0  0  0  0  0
   -0.4598   -0.6744   -1.8279 H   0  0  0  0  0  0  0  0  0  0  0  0
    1.4210    0.1395   -1.2752 C   0  0  0  0  0  0  0  0  0  0  0  0
    2.2669    0.0413   -2.3591 N   0  0  0  0  0  0  0  0  0  0  0  0
    2.2501   -0.6810   -3.0634 H   0  0  0  0  0  0  0  0  0  0  0  0
    3.1244    1.0748   -2.3119 C   0  0  0  0  0  0  0  0  0  0  0  0
    3.9147    1.2656   -3.0275 H   0  0  0  0  0  0  0  0  0  0  0  0
    2.8621    1.8476   -1.2478 N   0  0  0  0  0  0  0  0  0  0  0  0
    1.7845    1.2613   -0.5789 C   0  0  0  0  0  0  0  0  0  0  0  0
    1.2992    1.6440    0.3096 H   0  0  0  0  0  0  0  0  0  0  0  0
   -0.6600    1.1486    0.4782 C   0  0  0  0  0  0  0  0  0  0  0  0
   -1.5001    1.7648   -0.1771 O   0  0  0  0  0  0  0  0  0  0  0  0
    0.1634    1.7559    1.3418 N   0  0  0  0  0  0  0  0  0  0  0  0
    0.8618    1.1897    1.8008 H   0  0  0  0  0  0  0  0  0  0  0  0
    0.1509    3.1886    1.6256 C   0  0  0  0  0  0  0  0  0  0  0  0
   -0.8272    3.4794    2.0152 H   0  0  0  0  0  0  0  0  0  0  0  0
    0.9172    3.4314    2.3624 H   0  0  0  0  0  0  0  0  0  0  0  0
    0.3414    3.7499    0.7095 H   0  0  0  0  0  0  0  0  0  0  0  0
  5  6  2  0  0  0  0
  5  7  1  0  0  0  0
  2  3  1  0  0  0  0
  2  4  1  0  0  0  0
  2  5  1  0  0  0  0
  1  2  1  0  0  0  0
 22 23  2  0  0  0  0
 22 24  1  0  0  0  0
 20 21  1  0  0  0  0
 19 20  1  0  0  0  0
 17 18  1  0  0  0  0
 17 19  2  0  0  0  0
 15 16  1  0  0  0  0
 15 17  1  0  0  0  0
 14 15  1  0  0  0  0
 14 20  2  0  0  0  0
 11 12  1  0  0  0  0
 11 13  1  0  0  0  0
 11 14  1  0  0  0  0
  9 10  1  0  0  0  0
  9 11  1  0  0  0  0
  9 22  1  0  0  0  0
  7  8  1  0  0  0  0
  7  9  1  0  0  0  0
 26 27  1  0  0  0  0
 26 28  1  0  0  0  0
 26 29  1  0  0  0  0
 24 25  1  0  0  0  0
 24 26  1  0  0  0  0
M  END
$$$$
default_name
  -OEChem-02102213163D

 29 29  0     1  0  0  0  0  0999 V2000
   -3.6042   -3.5728    1.4576 H   0  0  0  0  0  0  0  0  0  0  0  0
   -3.5202   -2.6488    0.8866 C   0  0  0  0  0  0  0  0  0  0  0  0
   -4.2052   -1.9048    1.2896 H   0  0  0  0  0  0  0  0  0  0  0  0
   -3.7552   -2.8428   -0.1584 H   0  0  0  0  0  0  0  0  0  0  0  0
   -2.1052   -2.1358    0.9946 C   0  0  0  0  0  0  0  0  0  0  0  0
   -1.2852   -2.7288    1.6826 O   0  0  0  0  0  0  0  0  0  0  0  0
   -1.8202   -1.0288    0.3146 N   0  0  0  0  0  0  0  0  0  0  0  0
   -2.5542   -0.5788   -0.2104 H   0  0  0  0  0  0  0  0  0  0  0  0
   -0.5102   -0.3728    0.3086 C   0  0  1  0  0  0  0  0  0  0  0  0
    0.0719   -0.7468    1.1521 H   0  0  0  0  0  0  0  0  0  0  0  0
    0.2338   -0.7427   -0.9878 C   0  0  0  0  0  0  0  0  0  0  0  0
    0.5777   -1.7763   -0.9199 H   0  0  0  0  0  0  0  0  0  0  0  0
   -0.4598   -0.6744   -1.8279 H   0  0  0  0  0  0  0  0  0  0  0  0
    1.4210    0.1395   -1.2752 C   0  0  0  0  0  0  0  0  0  0  0  0
    2.0909    0.2402   -2.4756 N   0  0  0  0  0  0  0  0  0  0  0  0
    1.9242   -0.3190   -3.2988 H   0  0  0  0  0  0  0  0  0  0  0  0
    3.0115    1.2119   -2.3575 C   0  0  0  0  0  0  0  0  0  0  0  0
    3.6992    1.5205   -3.1353 H   0  0  0  0  0  0  0  0  0  0  0  0
    2.9587    1.7552   -1.1326 N   0  0  0  0  0  0  0  0  0  0  0  0
    1.9547    1.0793   -0.4342 C   0  0  0  0  0  0  0  0  0  0  0  0
    1.6307    1.2852    0.5777 H   0  0  0  0  0  0  0  0  0  0  0  0
   -0.6600    1.1486    0.4782 C   0  0  0  0  0  0  0  0  0  0  0  0
   -1.5001    1.7648   -0.1771 O   0  0  0  0  0  0  0  0  0  0  0  0
    0.1634    1.7559    1.3418 N   0  0  0  0  0  0  0  0  0  0  0  0
    0.8618    1.1897    1.8008 H   0  0  0  0  0  0  0  0  0  0  0  0
    0.1509    3.1886    1.6256 C   0  0  0  0  0  0  0  0  0  0  0  0
   -0.8272    3.4794    2.0152 H   0  0  0  0  0  0  0  0  0  0  0  0
    0.9172    3.4314    2.3624 H   0  0  0  0  0  0  0  0  0  0  0  0
    0.3414    3.7499    0.7095 H   0  0  0  0  0  0  0  0  0  0  0  0
  5  6  2  0  0  0  0
  5  7  1  0  0  0  0
  2  3  1  0  0  0  0
  2  4  1  0  0  0  0
  2  5  1  0  0  0  0
  1  2  1  0  0  0  0
 22 23  2  0  0  0  0
 22 24  1  0  0  0  0
 20 21  1  0  0  0  0
 19 20  1  0  0  0  0
 17 18  1  0  0  0  0
 17 19  2  0  0  0  0
 15 16  1  0  0  0  0
 15 17  1  0  0  0  0
 14 15  1  0  0  0  0
 14 20  2  0  0  0  0
 11 12  1  0  0  0  0
 11 13  1  0  0  0  0
 11 14  1  0  0  0  0
  9 10  1  0  0  0  0
  9 11  1  0  0  0  0
  9 22  1  0  0  0  0
  7  8  1  0  0  0  0
  7  9  1  0  0  0  0
 26 27  1  0  0  0  0
 26 28  1  0  0  0  0
 26 29  1  0  0  0  0
 24 25  1  0  0  0  0
 24 26  1  0  0  0  0
M  END
$$$$
default_name
  -OEChem-02102213163D

 29 29  0     1  0  0  0  0  0999 V2000
   -3.6042   -3.5728    1.4576 H   0  0  0  0  0  0  0  0  0  0  0  0
   -3.5202   -2.6488    0.8866 C   0  0  0  0  0  0  0  0  0  0  0  0
   -4.2052   -1.9048    1.2896 H   0  0  0  0  0  0  0  0  0  0  0  0
   -3.7552   -2.8428   -0.1584 H   0  0  0  0  0  0  0  0  0  0  0  0
   -2.1052   -2.1358    0.9946 C   0  0  0  0  0  0  0  0  0  0  0  0
   -1.2852   -2.7288    1.6826 O   0  0  0  0  0  0  0  0  0  0  0  0
   -1.8202   -1.0288    0.3146 N   0  0  0  0  0  0  0  0  0  0  0  0
   -2.5542   -0.5788   -0.2104 H   0  0  0  0  0  0  0  0  0  0  0  0
   -0.5102   -0.3728    0.3086 C   0  0  1  0  0  0  0  0  0  0  0  0
    0.0719   -0.7468    1.1521 H   0  0  0  0  0  0  0  0  0  0  0  0
    0.2338   -0.7427   -0.9878 C   0  0  0  0  0  0  0  0  0  0  0  0
    0.5777   -1.7763   -0.9199 H   0  0  0  0  0  0  0  0  0  0  0  0
   -0.4598   -0.6744   -1.8279 H   0  0  0  0  0  0  0  0  0  0  0  0
    1.4210    0.1395   -1.2752 C   0  0  0  0  0  0  0  0  0  0  0  0
    1.9131    0.4648   -2.5210 N   0  0  0  0  0  0  0  0  0  0  0  0
    1.5915    0.0947   -3.4029 H   0  0  0  0  0  0  0  0  0  0  0  0
    2.9022    1.3592   -2.3565 C   0  0  0  0  0  0  0  0  0  0  0  0
    3.4873    1.7994   -3.1547 H   0  0  0  0  0  0  0  0  0  0  0  0
    3.0648    1.6377   -1.0549 N   0  0  0  0  0  0  0  0  0  0  0  0
    2.1321    0.8656   -0.3574 C   0  0  0  0  0  0  0  0  0  0  0  0
    1.9738    0.8675    0.7133 H   0  0  0  0  0  0  0  0  0  0  0  0
   -0.6600    1.1486    0.4782 C   0  0  0  0  0  0  0  0  0  0  0  0
   -1.5001    1.7648   -0.1771 O   0  0  0  0  0  0  0  0  0  0  0  0
    0.1634    1.7559    1.3418 N   0  0  0  0  0  0  0  0  0  0  0  0
    0.8618    1.1897    1.8008 H   0  0  0  0  0  0  0  0  0  0  0  0
    0.1509    3.1886    1.6256 C   0  0  0  0  0  0  0  0  0  0  0  0
   -0.8272    3.4794    2.0152 H   0  0  0  0  0  0  0  0  0  0  0  0
    0.9172    3.4314    2.3624 H   0  0  0  0  0  0  0  0  0  0  0  0
    0.3414    3.7499    0.7095 H   0  0  0  0  0  0  0  0  0  0  0  0
  5  6  2  0  0  0  0
  5  7  1  0  0  0  0
  2  3  1  0  0  0  0
  2  4  1  0  0  0  0
  2  5  1  0  0  0  0
  1  2  1  0  0  0  0
 22 23  2  0  0  0  0
 22 24  1  0  0  0  0
 20 21  1  0  0  0  0
 19 20  1  0  0  0  0
 17 18  1  0  0  0  0
 17 19  2  0  0  0  0
 15 16  1  0  0  0  0
 15 17  1  0  0  0  0
 14 15  1  0  0  0  0
 14 20  2  0  0  0  0
 11 12  1  0  0  0  0
 11 13  1  0  0  0  0
 11 14  1  0  0  0  0
  9 10  1  0  0  0  0
  9 11  1  0  0  0  0
  9 22  1  0  0  0  0
  7  8  1  0  0  0  0
  7  9  1  0  0  0  0
 26 27  1  0  0  0  0
 26 28  1  0  0  0  0
 26 29  1  0  0  0  0
 24 25  1  0  0  0  0
 24 26  1  0  0  0  0
M  END
$$$$
default_name
  -OEChem-02102213163D

 29 29  0     1  0  0  0  0  0999 V2000
   -3.6042   -3.5728    1.4576 H   0  0  0  0  0  0  0  0  0  0  0  0
   -3.5202   -2.6488    0.8866 C   0  0  0  0  0  0  0  0  0  0  0  0
   -4.2052   -1.9048    1.2896 H   0  0  0  0  0  0  0  0  0  0  0  0
   -3.7552   -2.8428   -0.1584 H   0  0  0  0  0  0  0  0  0  0  0  0
   -2.1052   -2.1358    0.9946 C   0  0  0  0  0  0  0  0  0  0  0  0
   -1.2852   -2.7288    1.6826 O   0  0  0  0  0  0  0  0  0  0  0  0
   -1.8202   -1.0288    0.3146 N   0  0  0  0  0  0  0  0  0  0  0  0
   -2.5542   -0.5788   -0.2104 H   0  0  0  0  0  0  0  0  0  0  0  0
   -0.5102   -0.3728    0.3086 C   0  0  1  0  0  0  0  0  0  0  0  0
    0.0719   -0.7468    1.1521 H   0  0  0  0  0  0  0  0  0  0  0  0
    0.2338   -0.7427   -0.9878 C   0  0  0  0  0  0  0  0  0  0  0  0
    0.5777   -1.7763   -0.9199 H   0  0  0  0  0  0  0  0  0  0  0  0
   -0.4598   -0.6744   -1.8279 H   0  0  0  0  0  0  0  0  0  0  0  0
    1.4210    0.1395   -1.2752 C   0  0  0  0  0  0  0  0  0  0  0  0
    1.7455    0.6998   -2.4921 N   0  0  0  0  0  0  0  0  0  0  0  0
    1.2749    0.5320   -3.3687 H   0  0  0  0  0  0  0  0  0  0  0  0
    2.8041    1.5067   -2.3090 C   0  0  0  0  0  0  0  0  0  0  0  0
    3.2934    2.0832   -3.0845 H   0  0  0  0  0  0  0  0  0  0  0  0
    3.1734    1.5031   -1.0198 N   0  0  0  0  0  0  0  0  0  0  0  0
    2.3046    0.6348   -0.3536 C   0  0  0  0  0  0  0  0  0  0  0  0
    2.3052    0.4196    0.7071 H   0  0  0  0  0  0  0  0  0  0  0  0
   -0.6600    1.1486    0.4782 C   0  0  0  0  0  0  0  0  0  0  0  0
   -1.5001    1.7648   -0.1771 O   0  0  0  0  0  0  0  0  0  0  0  0
    0.1634    1.7559    1.3418 N   0  0  0  0  0  0  0  0  0  0  0  0
    0.8618    1.1897    1.8008 H   0  0  0  0  0  0  0  0  0  0  0  0
    0.1509    3.1886    1.6256 C   0  0  0  0  0  0  0  0  0  0  0  0
   -0.8272    3.4794    2.0152 H   0  0  0  0  0  0  0  0  0  0  0  0
    0.9172    3.4314    2.3624 H   0  0  0  0  0  0  0  0  0  0  0  0
    0.3414    3.7499    0.7095 H   0  0  0  0  0  0  0  0  0  0  0  0
  5  6  2  0  0  0  0
  5  7  1  0  0  0  0
  2  3  1  0  0  0  0
  2  4  1  0  0  0  0
  2  5  1  0  0  0  0
  1  2  1  0  0  0  0
 22 23  2  0  0  0  0
 22 24  1  0  0  0  0
 20 21  1  0  0  0  0
 19 20  1  0  0  0  0
 17 18  1  0  0  0  0
 17 19  2  0  0  0  0
 15 16  1  0  0  0  0
 15 17  1  0  0  0  0
 14 15  1  0  0  0  0
 14 20  2  0  0  0  0
 11 12  1  0  0  0  0
 11 13  1  0  0  0  0
 11 14  1  0  0  0  0
  9 10  1  0  0  0  0
  9 11  1  0  0  0  0
  9 22  1  0  0  0  0
  7  8  1  0  0  0  0
  7  9  1  0  0  0  0
 26 27  1  0  0  0  0
 26 28  1  0  0  0  0
 26 29  1  0  0  0  0
 24 25  1  0  0  0  0
 24 26  1  0  0  0  0
M  END
$$$$
default_name
  -OEChem-02102213163D

 29 29  0     1  0  0  0  0  0999 V2000
   -3.6042   -3.5728    1.4576 H   0  0  0  0  0  0  0  0  0  0  0  0
   -3.5202   -2.6488    0.8866 C   0  0  0  0  0  0  0  0  0  0  0  0
   -4.2052   -1.9048    1.2896 H   0  0  0  0  0  0  0  0  0  0  0  0
   -3.7552   -2.8428   -0.1584 H   0  0  0  0  0  0  0  0  0  0  0  0
   -2.1052   -2.1358    0.9946 C   0  0  0  0  0  0  0  0  0  0  0  0
   -1.2852   -2.7288    1.6826 O   0  0  0  0  0  0  0  0  0  0  0  0
   -1.8202   -1.0288    0.3146 N   0  0  0  0  0  0  0  0  0  0  0  0
   -2.5542   -0.5788   -0.2104 H   0  0  0  0  0  0  0  0  0  0  0  0
   -0.5102   -0.3728    0.3086 C   0  0  1  0  0  0  0  0  0  0  0  0
    0.0719   -0.7468    1.1521 H   0  0  0  0  0  0  0  0  0  0  0  0
    0.2338   -0.7427   -0.9878 C   0  0  0  0  0  0  0  0  0  0  0  0
    0.5777   -1.7763   -0.9199 H   0  0  0  0  0  0  0  0  0  0  0  0
   -0.4598   -0.6744   -1.8279 H   0  0  0  0  0  0  0  0  0  0  0  0
    1.4210    0.1395   -1.2752 C   0  0  0  0  0  0  0  0  0  0  0  0
    1.5996    0.9291   -2.3908 N   0  0  0  0  0  0  0  0  0  0  0  0
    0.9958    0.9630   -3.1985 H   0  0  0  0  0  0  0  0  0  0  0  0
    2.7239    1.6443   -2.2181 C   0  0  0  0  0  0  0  0  0  0  0  0
    3.1308    2.3525   -2.9295 H   0  0  0  0  0  0  0  0  0  0  0  0
    3.2769    1.3605   -1.0298 N   0  0  0  0  0  0  0  0  0  0  0  0
    2.4603    0.4025   -0.4232 C   0  0  0  0  0  0  0  0  0  0  0  0
    2.6023   -0.0282    0.5595 H   0  0  0  0  0  0  0  0  0  0  0  0
   -0.6600    1.1486    0.4782 C   0  0  0  0  0  0  0  0  0  0  0  0
   -1.5001    1.7648   -0.1771 O   0  0  0  0  0  0  0  0  0  0  0  0
    0.1634    1.7559    1.3418 N   0  0  0  0  0  0  0  0  0  0  0  0
    0.8618    1.1897    1.8008 H   0  0  0  0  0  0  0  0  0  0  0  0
    0.1509    3.1886    1.6256 C   0  0  0  0  0  0  0  0  0  0  0  0
   -0.8272    3.4794    2.0152 H   0  0  0  0  0  0  0  0  0  0  0  0
    0.9172    3.4314    2.3624 H   0  0  0  0  0  0  0  0  0  0  0  0
    0.3414    3.7499    0.7095 H   0  0  0  0  0  0  0  0  0  0  0  0
  5  6  2  0  0  0  0
  5  7  1  0  0  0  0
  2  3  1  0  0  0  0
  2  4  1  0  0  0  0
  2  5  1  0  0  0  0
  1  2  1  0  0  0  0
 22 23  2  0  0  0  0
 22 24  1  0  0  0  0
 20 21  1  0  0  0  0
 19 20  1  0  0  0  0
 17 18  1  0  0  0  0
 17 19  2  0  0  0  0
 15 16  1  0  0  0  0
 15 17  1  0  0  0  0
 14 15  1  0  0  0  0
 14 20  2  0  0  0  0
 11 12  1  0  0  0  0
 11 13  1  0  0  0  0
 11 14  1  0  0  0  0
  9 10  1  0  0  0  0
  9 11  1  0  0  0  0
  9 22  1  0  0  0  0
  7  8  1  0  0  0  0
  7  9  1  0  0  0  0
 26 27  1  0  0  0  0
 26 28  1  0  0  0  0
 26 29  1  0  0  0  0
 24 25  1  0  0  0  0
 24 26  1  0  0  0  0
M  END
$$$$
default_name
  -OEChem-02102213163D

 29 29  0     1  0  0  0  0  0999 V2000
   -3.6042   -3.5728    1.4576 H   0  0  0  0  0  0  0  0  0  0  0  0
   -3.5202   -2.6488    0.8866 C   0  0  0  0  0  0  0  0  0  0  0  0
   -4.2052   -1.9048    1.2896 H   0  0  0  0  0  0  0  0  0  0  0  0
   -3.7552   -2.8428   -0.1584 H   0  0  0  0  0  0  0  0  0  0  0  0
   -2.1052   -2.1358    0.9946 C   0  0  0  0  0  0  0  0  0  0  0  0
   -1.2852   -2.7288    1.6826 O   0  0  0  0  0  0  0  0  0  0  0  0
   -1.8202   -1.0288    0.3146 N   0  0  0  0  0  0  0  0  0  0  0  0
   -2.5542   -0.5788   -0.2104 H   0  0  0  0  0  0  0  0  0  0  0  0
   -0.5102   -0.3728    0.3086 C   0  0  1  0  0  0  0  0  0  0  0  0
    0.0719   -0.7468    1.1521 H   0  0  0  0  0  0  0  0  0  0  0  0
    0.2338   -0.7427   -0.9878 C   0  0  0  0  0  0  0  0  0  0  0  0
    0.5777   -1.7763   -0.9199 H   0  0  0  0  0  0  0  0  0  0  0  0
   -0.4598   -0.6744   -1.8279 H   0  0  0  0  0  0  0  0  0  0  0  0
    1.4210    0.1395   -1.2752 C   0  0  0  0  0  0  0  0  0  0  0  0
    1.4853    1.1372   -2.2241 N   0  0  0  0  0  0  0  0  0  0  0  0
    0.7732    1.3584   -2.9040 H   0  0  0  0  0  0  0  0  0  0  0  0
    2.6669    1.7626   -2.0901 C   0  0  0  0  0  0  0  0  0  0  0  0
    3.0105    2.5891   -2.7001 H   0  0  0  0  0  0  0  0  0  0  0  0
    3.3683    1.2198   -1.0842 N   0  0  0  0  0  0  0  0  0  0  0  0
    2.5888    0.1847   -0.5613 C   0  0  0  0  0  0  0  0  0  0  0  0
    2.8447   -0.4454    0.2807 H   0  0  0  0  0  0  0  0  0  0  0  0
   -0.6600    1.1486    0.4782 C   0  0  0  0  0  0  0  0  0  0  0  0
   -1.5001    1.7648   -0.1771 O   0  0  0  0  0  0  0  0  0  0  0  0
    0.1634    1.7559    1.3418 N   0  0  0  0  0  0  0  0  0  0  0  0
    0.8618    1.1897    1.8008 H   0  0  0  0  0  0  0  0  0  0  0  0
    0.1509    3.1886    1.6256 C   0  0  0  0  0  0  0  0  0  0  0  0
   -0.8272    3.4794    2.0152 H   0  0  0  0  0  0  0  0  0  0  0  0
    0.9172    3.4314    2.3624 H   0  0  0  0  0  0  0  0  0  0  0  0
    0.3414    3.7499    0.7095 H   0  0  0  0  0  0  0  0  0  0  0  0
  5  6  2  0  0  0  0
  5  7  1  0  0  0  0
  2  3  1  0  0  0  0
  2  4  1  0  0  0  0
  2  5  1  0  0  0  0
  1  2  1  0  0  0  0
 22 23  2  0  0  0  0
 22 24  1  0  0  0  0
 20 21  1  0  0  0  0
 19 20  1  0  0  0  0
 17 18  1  0  0  0  0
 17 19  2  0  0  0  0
 15 16  1  0  0  0  0
 15 17  1  0  0  0  0
 14 15  1  0  0  0  0
 14 20  2  0  0  0  0
 11 12  1  0  0  0  0
 11 13  1  0  0  0  0
 11 14  1  0  0  0  0
  9 10  1  0  0  0  0
  9 11  1  0  0  0  0
  9 22  1  0  0  0  0
  7  8  1  0  0  0  0
  7  9  1  0  0  0  0
 26 27  1  0  0  0  0
 26 28  1  0  0  0  0
 26 29  1  0  0  0  0
 24 25  1  0  0  0  0
 24 26  1  0  0  0  0
M  END
$$$$
default_name
  -OEChem-02102213163D

 29 29  0     1  0  0  0  0  0999 V2000
   -3.6042   -3.5728    1.4576 H   0  0  0  0  0  0  0  0  0  0  0  0
   -3.5202   -2.6488    0.8866 C   0  0  0  0  0  0  0  0  0  0  0  0
   -4.2052   -1.9048    1.2896 H   0  0  0  0  0  0  0  0  0  0  0  0
   -3.7552   -2.8428   -0.1584 H   0  0  0  0  0  0  0  0  0  0  0  0
   -2.1052   -2.1358    0.9946 C   0  0  0  0  0  0  0  0  0  0  0  0
   -1.2852   -2.7288    1.6826 O   0  0  0  0  0  0  0  0  0  0  0  0
   -1.8202   -1.0288    0.3146 N   0  0  0  0  0  0  0  0  0  0  0  0
   -2.5542   -0.5788   -0.2104 H   0  0  0  0  0  0  0  0  0  0  0  0
   -0.5102   -0.3728    0.3086 C   0  0  1  0  0  0  0  0  0  0  0  0
    0.0719   -0.7468    1.1521 H   0  0  0  0  0  0  0  0  0  0  0  0
    0.2338   -0.7427   -0.9878 C   0  0  0  0  0  0  0  0  0  0  0  0
    0.5777   -1.7763   -0.9199 H   0  0  0  0  0  0  0  0  0  0  0  0
   -0.4598   -0.6744   -1.8279 H   0  0  0  0  0  0  0  0  0  0  0  0
    1.4210    0.1395   -1.2752 C   0  0  0  0  0  0  0  0  0  0  0  0
    1.4104    1.3098   -2.0034 N   0  0  0  0  0  0  0  0  0  0  0  0
    0.6224    1.6912   -2.5051 H   0  0  0  0  0  0  0  0  0  0  0  0
    2.6371    1.8537   -1.9337 C   0  0  0  0  0  0  0  0  0  0  0  0
    2.9407    2.7768   -2.4121 H   0  0  0  0  0  0  0  0  0  0  0  0
    3.4414    1.0904   -1.1794 N   0  0  0  0  0  0  0  0  0  0  0  0
    2.6812   -0.0039   -0.7587 C   0  0  0  0  0  0  0  0  0  0  0  0
    3.0161   -0.8034   -0.1105 H   0  0  0  0  0  0  0  0  0  0  0  0
   -0.6600    1.1486    0.4782 C   0  0  0  0  0  0  0  0  0  0  0  0
   -1.5001    1.7648   -0.1771 O   0  0  0  0  0  0  0  0  0  0  0  0
    0.1634    1.7559    1.3418 N   0  0  0  0  0  0  0  0  0  0  0  0
    0.8618    1.1897    1.8008 H   0  0  0  0  0  0  0  0  0  0  0  0
    0.1509    3.1886    1.6256 C   0  0  0  0  0  0  0  0  0  0  0  0
   -0.8272    3.4794    2.0152 H   0  0  0  0  0  0  0  0  0  0  0  0
    0.9172    3.4314    2.3624 H   0  0  0  0  0  0  0  0  0  0  0  0
    0.3414    3.7499    0.7095 H   0  0  0  0  0  0  0  0  0  0  0  0
  5  6  2  0  0  0  0
  5  7  1  0  0  0  0
  2  3  1  0  0  0  0
  2  4  1  0  0  0  0
  2  5  1  0  0  0  0
  1  2  1  0  0  0  0
 22 23  2  0  0  0  0
 22 24  1  0  0  0  0
 20 21  1  0  0  0  0
 19 20  1  0  0  0  0
 17 18  1  0  0  0  0
 17 19  2  0  0  0  0
 15 16  1  0  0  0  0
 15 17  1  0  0  0  0
 14 15  1  0  0  0  0
 14 20  2  0  0  0  0
 11 12  1  0  0  0  0
 11 13  1  0  0  0  0
 11 14  1  0  0  0  0
  9 10  1  0  0  0  0
  9 11  1  0  0  0  0
  9 22  1  0  0  0  0
  7  8  1  0  0  0  0
  7  9  1  0  0  0  0
 26 27  1  0  0  0  0
 26 28  1  0  0  0  0
 26 29  1  0  0  0  0
 24 25  1  0  0  0  0
 24 26  1  0  0  0  0
M  END
$$$$
default_name
  -OEChem-02102213163D

 29 29  0     1  0  0  0  0  0999 V2000
   -3.6042   -3.5728    1.4576 H   0  0  0  0  0  0  0  0  0  0  0  0
   -3.5202   -2.6488    0.8866 C   0  0  0  0  0  0  0  0  0  0  0  0
   -4.2052   -1.9048    1.2896 H   0  0  0  0  0  0  0  0  0  0  0  0
   -3.7552   -2.8428   -0.1584 H   0  0  0  0  0  0  0  0  0  0  0  0
   -2.1052   -2.1358    0.9946 C   0  0  0  0  0  0  0  0  0  0  0  0
   -1.2852   -2.7288    1.6826 O   0  0  0  0  0  0  0  0  0  0  0  0
   -1.8202   -1.0288    0.3146 N   0  0  0  0  0  0  0  0  0  0  0  0
   -2.5542   -0.5788   -0.2104 H   0  0  0  0  0  0  0  0  0  0  0  0
   -0.5102   -0.3728    0.3086 C   0  0  1  0  0  0  0  0  0  0  0  0
    0.0719   -0.7468    1.1521 H   0  0  0  0  0  0  0  0  0  0  0  0
    0.2338   -0.7427   -0.9878 C   0  0  0  0  0  0  0  0  0  0  0  0
    0.5777   -1.7763   -0.9199 H   0  0  0  0  0  0  0  0  0  0  0  0
   -0.4598   -0.6744   -1.8279 H   0  0  0  0  0  0  0  0  0  0  0  0
    1.4210    0.1395   -1.2752 C   0  0  0  0  0  0  0  0  0  0  0  0
    1.3801    1.4352   -1.7436 N   0  0  0  0  0  0  0  0  0  0  0  0
    0.5537    1.9389   -2.0290 H   0  0  0  0  0  0  0  0  0  0  0  0
    2.6366    1.9111   -1.7595 C   0  0  0  0  0  0  0  0  0  0  0  0
    2.9263    2.9028   -2.0851 H   0  0  0  0  0  0  0  0  0  0  0  0
    3.4912    0.9813   -1.3087 N   0  0  0  0  0  0  0  0  0  0  0  0
    2.7312   -0.1504   -1.0017 C   0  0  0  0  0  0  0  0  0  0  0  0
    3.1047   -1.0778   -0.5873 H   0  0  0  0  0  0  0  0  0  0  0  0
   -0.6600    1.1486    0.4782 C   0  0  0  0  0  0  0  0  0  0  0  0
   -1.5001    1.7648   -0.1771 O   0  0  0  0  0  0  0  0  0  0  0  0
    0.1634    1.7559    1.3418 N   0  0  0  0  0  0  0  0  0  0  0  0
    0.8618    1.1897    1.8008 H   0  0  0  0  0  0  0  0  0  0  0  0
    0.1509    3.1886    1.6256 C   0  0  0  0  0  0  0  0  0  0  0  0
   -0.8272    3.4794    2.0152 H   0  0  0  0  0  0  0  0  0  0  0  0
    0.9172    3.4314    2.3624 H   0  0  0  0  0  0  0  0  0  0  0  0
    0.3414    3.7499    0.7095 H   0  0  0  0  0  0  0  0  0  0  0  0
  5  6  2  0  0  0  0
  5  7  1  0  0  0  0
  2  3  1  0  0  0  0
  2  4  1  0  0  0  0
  2  5  1  0  0  0  0
  1  2  1  0  0  0  0
 22 23  2  0  0  0  0
 22 24  1  0  0  0  0
 20 21  1  0  0  0  0
 19 20  1  0  0  0  0
 17 18  1  0  0  0  0
 17 19  2  0  0  0  0
 15 16  1  0  0  0  0
 15 17  1  0  0  0  0
 14 15  1  0  0  0  0
 14 20  2  0  0  0  0
 11 12  1  0  0  0  0
 11 13  1  0  0  0  0
 11 14  1  0  0  0  0
  9 10  1  0  0  0  0
  9 11  1  0  0  0  0
  9 22  1  0  0  0  0
  7  8  1  0  0  0  0
  7  9  1  0  0  0  0
 26 27  1  0  0  0  0
 26 28  1  0  0  0  0
 26 29  1  0  0  0  0
 24 25  1  0  0  0  0
 24 26  1  0  0  0  0
M  END
$$$$
default_name
  -OEChem-02102213163D

 29 29  0     1  0  0  0  0  0999 V2000
   -3.6042   -3.5728    1.4576 H   0  0  0  0  0  0  0  0  0  0  0  0
   -3.5202   -2.6488    0.8866 C   0  0  0  0  0  0  0  0  0  0  0  0
   -4.2052   -1.9048    1.2896 H   0  0  0  0  0  0  0  0  0  0  0  0
   -3.7552   -2.8428   -0.1584 H   0  0  0  0  0  0  0  0  0  0  0  0
   -2.1052   -2.1358    0.9946 C   0  0  0  0  0  0  0  0  0  0  0  0
   -1.2852   -2.7288    1.6826 O   0  0  0  0  0  0  0  0  0  0  0  0
   -1.8202   -1.0288    0.3146 N   0  0  0  0  0  0  0  0  0  0  0  0
   -2.5542   -0.5788   -0.2104 H   0  0  0  0  0  0  0  0  0  0  0  0
   -0.5102   -0.3728    0.3086 C   0  0  1  0  0  0  0  0  0  0  0  0
    0.0719   -0.7468    1.1521 H   0  0  0  0  0  0  0  0  0  0  0  0
    0.2338   -0.7427   -0.9878 C   0  0  0  0  0  0  0  0  0  0  0  0
    0.5777   -1.7763   -0.9199 H   0  0  0  0  0  0  0  0  0  0  0  0
   -0.4598   -0.6744   -1.8279 H   0  0  0  0  0  0  0  0  0  0  0  0
    1.4210    0.1395   -1.2752 C   0  0  0  0  0  0  0  0  0  0  0  0
    1.3964    1.5049   -1.4625 N   0  0  0  0  0  0  0  0  0  0  0  0
    0.5716    2.0843   -1.5083 H   0  0  0  0  0  0  0  0  0  0  0  0
    2.6652    1.9312   -1.5795 C   0  0  0  0  0  0  0  0  0  0  0  0
    2.9681    2.9585   -1.7413 H   0  0  0  0  0  0  0  0  0  0  0  0
    3.5143    0.8997   -1.4635 N   0  0  0  0  0  0  0  0  0  0  0  0
    2.7354   -0.2448   -1.2740 C   0  0  0  0  0  0  0  0  0  0  0  0
    3.1044   -1.2501   -1.1173 H   0  0  0  0  0  0  0  0  0  0  0  0
   -0.6600    1.1486    0.4782 C   0  0  0  0  0  0  0  0  0  0  0  0
   -1.5001    1.7648   -0.1771 O   0  0  0  0  0  0  0  0  0  0  0  0
    0.1634    1.7559    1.3418 N   0  0  0  0  0  0  0  0  0  0  0  0
    0.8618    1.1897    1.8008 H   0  0  0  0  0  0  0  0  0  0  0  0
    0.1509    3.1886    1.6256 C   0  0  0  0  0  0  0  0  0  0  0  0
   -0.8272    3.4794    2.0152 H   0  0  0  0  0  0  0  0  0  0  0  0
    0.9172    3.4314    2.3624 H   0  0  0  0  0  0  0  0  0  0  0  0
    0.3414    3.7499    0.7095 H   0  0  0  0  0  0  0  0  0  0  0  0
  5  6  2  0  0  0  0
  5  7  1  0  0  0  0
  2  3  1  0  0  0  0
  2  4  1  0  0  0  0
  2  5  1  0  0  0  0
  1  2  1  0  0  0  0
 22 23  2  0  0  0  0
 22 24  1  0  0  0  0
 20 21  1  0  0  0  0
 19 20  1  0  0  0  0
 17 18  1  0  0  0  0
 17 19  2  0  0  0  0
 15 16  1  0  0  0  0
 15 17  1  0  0  0  0
 14 15  1  0  0  0  0
 14 20  2  0  0  0  0
 11 12  1  0  0  0  0
 11 13  1  0  0  0  0
 11 14  1  0  0  0  0
  9 10  1  0  0  0  0
  9 11  1  0  0  0  0
  9 22  1  0  0  0  0
  7  8  1  0  0  0  0
  7  9  1  0  0  0  0
 26 27  1  0  0  0  0
 26 28  1  0  0  0  0
 26 29  1  0  0  0  0
 24 25  1  0  0  0  0
 24 26  1  0  0  0  0
M  END
$$$$
default_name
  -OEChem-02102213163D

 29 29  0     1  0  0  0  0  0999 V2000
   -3.6042   -3.5728    1.4576 H   0  0  0  0  0  0  0  0  0  0  0  0
   -3.5202   -2.6488    0.8866 C   0  0  0  0  0  0  0  0  0  0  0  0
   -4.2052   -1.9048    1.2896 H   0  0  0  0  0  0  0  0  0  0  0  0
   -3.7552   -2.8428   -0.1584 H   0  0  0  0  0  0  0  0  0  0  0  0
   -2.1052   -2.1358    0.9946 C   0  0  0  0  0  0  0  0  0  0  0  0
   -1.2852   -2.7288    1.6826 O   0  0  0  0  0  0  0  0  0  0  0  0
   -1.8202   -1.0288    0.3146 N   0  0  0  0  0  0  0  0  0  0  0  0
   -2.5542   -0.5788   -0.2104 H   0  0  0  0  0  0  0  0  0  0  0  0
   -0.5102   -0.3728    0.3086 C   0  0  1  0  0  0  0  0  0  0  0  0
    0.0719   -0.7468    1.1521 H   0  0  0  0  0  0  0  0  0  0  0  0
    0.2338   -0.7427   -0.9878 C   0  0  0  0  0  0  0  0  0  0  0  0
    0.5777   -1.7763   -0.9199 H   0  0  0  0  0  0  0  0  0  0  0  0
   -0.4598   -0.6744   -1.8279 H   0  0  0  0  0  0  0  0  0  0  0  0
    1.4210    0.1395   -1.2752 C   0  0  0  0  0  0  0  0  0  0  0  0
    1.4581    1.5141   -1.1793 N   0  0  0  0  0  0  0  0  0  0  0  0
    0.6750    2.1178   -0.9784 H   0  0  0  0  0  0  0  0  0  0  0  0
    2.7212    1.9124   -1.4059 C   0  0  0  0  0  0  0  0  0  0  0  0
    3.0633    2.9402   -1.4042 H   0  0  0  0  0  0  0  0  0  0  0  0
    3.5092    0.8514   -1.6331 N   0  0  0  0  0  0  0  0  0  0  0  0
    2.6936   -0.2806   -1.5568 C   0  0  0  0  0  0  0  0  0  0  0  0
    3.0153   -1.3084   -1.6643 H   0  0  0  0  0  0  0  0  0  0  0  0
   -0.6600    1.1486    0.4782 C   0  0  0  0  0  0  0  0  0  0  0  0
   -1.5001    1.7648   -0.1771 O   0  0  0  0  0  0  0  0  0  0  0  0
    0.1634    1.7559    1.3418 N   0  0  0  0  0  0  0  0  0  0  0  0
    0.8618    1.1897    1.8008 H   0  0  0  0  0  0  0  0  0  0  0  0
    0.1509    3.1886    1.6256 C   0  0  0  0  0  0  0  0  0  0  0  0
   -0.8272    3.4794    2.0152 H   0  0  0  0  0  0  0  0  0  0  0  0
    0.9172    3.4314    2.3624 H   0  0  0  0  0  0  0  0  0  0  0  0
    0.3414    3.7499    0.7095 H   0  0  0  0  0  0  0  0  0  0  0  0
  5  6  2  0  0  0  0
  5  7  1  0  0  0  0
  2  3  1  0  0  0  0
  2  4  1  0  0  0  0
  2  5  1  0  0  0  0
  1  2  1  0  0  0  0
 22 23  2  0  0  0  0
 22 24  1  0  0  0  0
 20 21  1  0  0  0  0
 19 20  1  0  0  0  0
 17 18  1  0  0  0  0
 17 19  2  0  0  0  0
 15 16  1  0  0  0  0
 15 17  1  0  0  0  0
 14 15  1  0  0  0  0
 14 20  2  0  0  0  0
 11 12  1  0  0  0  0
 11 13  1  0  0  0  0
 11 14  1  0  0  0  0
  9 10  1  0  0  0  0
  9 11  1  0  0  0  0
  9 22  1  0  0  0  0
  7  8  1  0  0  0  0
  7  9  1  0  0  0  0
 26 27  1  0  0  0  0
 26 28  1  0  0  0  0
 26 29  1  0  0  0  0
 24 25  1  0  0  0  0
 24 26  1  0  0  0  0
M  END
$$$$
default_name
  -OEChem-02102213163D

 29 29  0     1  0  0  0  0  0999 V2000
   -3.6042   -3.5728    1.4576 H   0  0  0  0  0  0  0  0  0  0  0  0
   -3.5202   -2.6488    0.8866 C   0  0  0  0  0  0  0  0  0  0  0  0
   -4.2052   -1.9048    1.2896 H   0  0  0  0  0  0  0  0  0  0  0  0
   -3.7552   -2.8428   -0.1584 H   0  0  0  0  0  0  0  0  0  0  0  0
   -2.1052   -2.1358    0.9946 C   0  0  0  0  0  0  0  0  0  0  0  0
   -1.2852   -2.7288    1.6826 O   0  0  0  0  0  0  0  0  0  0  0  0
   -1.8202   -1.0288    0.3146 N   0  0  0  0  0  0  0  0  0  0  0  0
   -2.5542   -0.5788   -0.2104 H   0  0  0  0  0  0  0  0  0  0  0  0
   -0.5102   -0.3728    0.3086 C   0  0  1  0  0  0  0  0  0  0  0  0
    0.0719   -0.7468    1.1521 H   0  0  0  0  0  0  0  0  0  0  0  0
    0.2338   -0.7427   -0.9878 C   0  0  0  0  0  0  0  0  0  0  0  0
    0.5777   -1.7763   -0.9199 H   0  0  0  0  0  0  0  0  0  0  0  0
   -0.4598   -0.6744   -1.8279 H   0  0  0  0  0  0  0  0  0  0  0  0
    1.4210    0.1395   -1.2752 C   0  0  0  0  0  0  0  0  0  0  0  0
    1.5612    1.4621   -0.9131 N   0  0  0  0  0  0  0  0  0  0  0  0
    0.8568    2.0369   -0.4754 H   0  0  0  0  0  0  0  0  0  0  0  0
    2.8006    1.8562   -1.2504 C   0  0  0  0  0  0  0  0  0  0  0  0
    3.2054    2.8490   -1.0968 H   0  0  0  0  0  0  0  0  0  0  0  0
    3.4761    0.8396   -1.8060 N   0  0  0  0  0  0  0  0  0  0  0  0
    2.6086   -0.2555   -1.8310 C   0  0  0  0  0  0  0  0  0  0  0  0
    2.8435   -1.2488   -2.1910 H   0  0  0  0  0  0  0  0  0  0  0  0
   -0.6600    1.1486    0.4782 C   0  0  0  0  0  0  0  0  0  0  0  0
   -1.5001    1.7648   -0.1771 O   0  0  0  0  0  0  0  0  0  0  0  0
    0.1634    1.7559    1.3418 N   0  0  0  0  0  0  0  0  0  0  0  0
    0.8618    1.1897    1.8008 H   0  0  0  0  0  0  0  0  0  0  0  0
    0.1509    3.1886    1.6256 C   0  0  0  0  0  0  0  0  0  0  0  0
   -0.8272    3.4794    2.0152 H   0  0  0  0  0  0  0  0  0  0  0  0
    0.9172    3.4314    2.3624 H   0  0  0  0  0  0  0  0  0  0  0  0
    0.3414    3.7499    0.7095 H   0  0  0  0  0  0  0  0  0  0  0  0
  5  6  2  0  0  0  0
  5  7  1  0  0  0  0
  2  3  1  0  0  0  0
  2  4  1  0  0  0  0
  2  5  1  0  0  0  0
  1  2  1  0  0  0  0
 22 23  2  0  0  0  0
 22 24  1  0  0  0  0
 20 21  1  0  0  0  0
 19 20  1  0  0  0  0
 17 18  1  0  0  0  0
 17 19  2  0  0  0  0
 15 16  1  0  0  0  0
 15 17  1  0  0  0  0
 14 15  1  0  0  0  0
 14 20  2  0  0  0  0
 11 12  1  0  0  0  0
 11 13  1  0  0  0  0
 11 14  1  0  0  0  0
  9 10  1  0  0  0  0
  9 11  1  0  0  0  0
  9 22  1  0  0  0  0
  7  8  1  0  0  0  0
  7  9  1  0  0  0  0
 26 27  1  0  0  0  0
 26 28  1  0  0  0  0
 26 29  1  0  0  0  0
 24 25  1  0  0  0  0
 24 26  1  0  0  0  0
M  END
$$$$
default_name
  -OEChem-02102213163D

 29 29  0     1  0  0  0  0  0999 V2000
   -3.6042   -3.5728    1.4576 H   0  0  0  0  0  0  0  0  0  0  0  0
   -3.5202   -2.6488    0.8866 C   0  0  0  0  0  0  0  0  0  0  0  0
   -4.2052   -1.9048    1.2896 H   0  0  0  0  0  0  0  0  0  0  0  0
   -3.7552   -2.8428   -0.1584 H   0  0  0  0  0  0  0  0  0  0  0  0
   -2.1052   -2.1358    0.9946 C   0  0  0  0  0  0  0  0  0  0  0  0
   -1.2852   -2.7288    1.6826 O   0  0  0  0  0  0  0  0  0  0  0  0
   -1.8202   -1.0288    0.3146 N   0  0  0  0  0  0  0  0  0  0  0  0
   -2.5542   -0.5788   -0.2104 H   0  0  0  0  0  0  0  0  0  0  0  0
   -0.5102   -0.3728    0.3086 C   0  0  1  0  0  0  0  0  0  0  0  0
    0.0719   -0.7468    1.1521 H   0  0  0  0  0  0  0  0  0  0  0  0
    0.2338   -0.7427   -0.9878 C   0  0  0  0  0  0  0  0  0  0  0  0
    0.5777   -1.7763   -0.9199 H   0  0  0  0  0  0  0  0  0  0  0  0
   -0.4598   -0.6744   -1.8279 H   0  0  0  0  0  0  0  0  0  0  0  0
    1.4210    0.1395   -1.2752 C   0  0  0  0  0  0  0  0  0  0  0  0
    1.6984    1.3526   -0.6823 N   0  0  0  0  0  0  0  0  0  0  0  0
    1.1047    1.8473   -0.0335 H   0  0  0  0  0  0  0  0  0  0  0  0
    2.8982    1.7662   -1.1238 C   0  0  0  0  0  0  0  0  0  0  0  0
    3.3848    2.6912   -0.8399 H   0  0  0  0  0  0  0  0  0  0  0  0
    3.4174    0.8650   -1.9704 N   0  0  0  0  0  0  0  0  0  0  0  0
    2.4861   -0.1712   -2.0779 C   0  0  0  0  0  0  0  0  0  0  0  0
    2.6007   -1.0753   -2.6616 H   0  0  0  0  0  0  0  0  0  0  0  0
   -0.6600    1.1486    0.4782 C   0  0  0  0  0  0  0  0  0  0  0  0
   -1.5001    1.7648   -0.1771 O   0  0  0  0  0  0  0  0  0  0  0  0
    0.1634    1.7559    1.3418 N   0  0  0  0  0  0  0  0  0  0  0  0
    0.8618    1.1897    1.8008 H   0  0  0  0  0  0  0  0  0  0  0  0
    0.1509    3.1886    1.6256 C   0  0  0  0  0  0  0  0  0  0  0  0
   -0.8272    3.4794    2.0152 H   0  0  0  0  0  0  0  0  0  0  0  0
    0.9172    3.4314    2.3624 H   0  0  0  0  0  0  0  0  0  0  0  0
    0.3414    3.7499    0.7095 H   0  0  0  0  0  0  0  0  0  0  0  0
  5  6  2  0  0  0  0
  5  7  1  0  0  0  0
  2  3  1  0  0  0  0
  2  4  1  0  0  0  0
  2  5  1  0  0  0  0
  1  2  1  0  0  0  0
 22 23  2  0  0  0  0
 22 24  1  0  0  0  0
 20 21  1  0  0  0  0
 19 20  1  0  0  0  0
 17 18  1  0  0  0  0
 17 19  2  0  0  0  0
 15 16  1  0  0  0  0
 15 17  1  0  0  0  0
 14 15  1  0  0  0  0
 14 20  2  0  0  0  0
 11 12  1  0  0  0  0
 11 13  1  0  0  0  0
 11 14  1  0  0  0  0
  9 10  1  0  0  0  0
  9 11  1  0  0  0  0
  9 22  1  0  0  0  0
  7  8  1  0  0  0  0
  7  9  1  0  0  0  0
 26 27  1  0  0  0  0
 26 28  1  0  0  0  0
 26 29  1  0  0  0  0
 24 25  1  0  0  0  0
 24 26  1  0  0  0  0
M  END
$$$$
default_name
  -OEChem-02102213163D

 29 29  0     1  0  0  0  0  0999 V2000
   -3.6042   -3.5728    1.4576 H   0  0  0  0  0  0  0  0  0  0  0  0
   -3.5202   -2.6488    0.8866 C   0  0  0  0  0  0  0  0  0  0  0  0
   -4.2052   -1.9048    1.2896 H   0  0  0  0  0  0  0  0  0  0  0  0
   -3.7552   -2.8428   -0.1584 H   0  0  0  0  0  0  0  0  0  0  0  0
   -2.1052   -2.1358    0.9946 C   0  0  0  0  0  0  0  0  0  0  0  0
   -1.2852   -2.7288    1.6826 O   0  0  0  0  0  0  0  0  0  0  0  0
   -1.8202   -1.0288    0.3146 N   0  0  0  0  0  0  0  0  0  0  0  0
   -2.5542   -0.5788   -0.2104 H   0  0  0  0  0  0  0  0  0  0  0  0
   -0.5102   -0.3728    0.3086 C   0  0  1  0  0  0  0  0  0  0  0  0
    0.0719   -0.7468    1.1521 H   0  0  0  0  0  0  0  0  0  0  0  0
    0.2338   -0.7427   -0.9878 C   0  0  0  0  0  0  0  0  0  0  0  0
    0.5777   -1.7763   -0.9199 H   0  0  0  0  0  0  0  0  0  0  0  0
   -0.4598   -0.6744   -1.8279 H   0  0  0  0  0  0  0  0  0  0  0  0
    1.4210    0.1395   -1.2752 C   0  0  0  0  0  0  0  0  0  0  0  0
    1.8606    1.1929   -0.5025 N   0  0  0  0  0  0  0  0  0  0  0  0
    1.4017    1.5617    0.3170 H   0  0  0  0  0  0  0  0  0  0  0  0
    3.0071    1.6486   -1.0347 C   0  0  0  0  0  0  0  0  0  0  0  0
    3.5893    2.4776   -0.6512 H   0  0  0  0  0  0  0  0  0  0  0  0
    3.3370    0.9260   -2.1151 N   0  0  0  0  0  0  0  0  0  0  0  0
    2.3346   -0.0333   -2.2805 C   0  0  0  0  0  0  0  0  0  0  0  0
    2.3034   -0.7998   -3.0440 H   0  0  0  0  0  0  0  0  0  0  0  0
   -0.6600    1.1486    0.4782 C   0  0  0  0  0  0  0  0  0  0  0  0
   -1.5001    1.7648   -0.1771 O   0  0  0  0  0  0  0  0  0  0  0  0
    0.1634    1.7559    1.3418 N   0  0  0  0  0  0  0  0  0  0  0  0
    0.8618    1.1897    1.8008 H   0  0  0  0  0  0  0  0  0  0  0  0
    0.1509    3.1886    1.6256 C   0  0  0  0  0  0  0  0  0  0  0  0
   -0.8272    3.4794    2.0152 H   0  0  0  0  0  0  0  0  0  0  0  0
    0.9172    3.4314    2.3624 H   0  0  0  0  0  0  0  0  0  0  0  0
    0.3414    3.7499    0.7095 H   0  0  0  0  0  0  0  0  0  0  0  0
  5  6  2  0  0  0  0
  5  7  1  0  0  0  0
  2  3  1  0  0  0  0
  2  4  1  0  0  0  0
  2  5  1  0  0  0  0
  1  2  1  0  0  0  0
 22 23  2  0  0  0  0
 22 24  1  0  0  0  0
 20 21  1  0  0  0  0
 19 20  1  0  0  0  0
 17 18  1  0  0  0  0
 17 19  2  0  0  0  0
 15 16  1  0  0  0  0
 15 17  1  0  0  0  0
 14 15  1  0  0  0  0
 14 20  2  0  0  0  0
 11 12  1  0  0  0  0
 11 13  1  0  0  0  0
 11 14  1  0  0  0  0
  9 10  1  0  0  0  0
  9 11  1  0  0  0  0
  9 22  1  0  0  0  0
  7  8  1  0  0  0  0
  7  9  1  0  0  0  0
 26 27  1  0  0  0  0
 26 28  1  0  0  0  0
 26 29  1  0  0  0  0
 24 25  1  0  0  0  0
 24 26  1  0  0  0  0
M  END
$$$$
default_name
  -OEChem-02102213163D

 29 29  0     1  0  0  0  0  0999 V2000
   -3.6042   -3.5728    1.4576 H   0  0  0  0  0  0  0  0  0  0  0  0
   -3.5202   -2.6488    0.8866 C   0  0  0  0  0  0  0  0  0  0  0  0
   -4.2052   -1.9048    1.2896 H   0  0  0  0  0  0  0  0  0  0  0  0
   -3.7552   -2.8428   -0.1584 H   0  0  0  0  0  0  0  0  0  0  0  0
   -2.1052   -2.1358    0.9946 C   0  0  0  0  0  0  0  0  0  0  0  0
   -1.2852   -2.7288    1.6826 O   0  0  0  0  0  0  0  0  0  0  0  0
   -1.8202   -1.0288    0.3146 N   0  0  0  0  0  0  0  0  0  0  0  0
   -2.5542   -0.5788   -0.2104 H   0  0  0  0  0  0  0  0  0  0  0  0
   -0.5102   -0.3728    0.3086 C   0  0  1  0  0  0  0  0  0  0  0  0
    0.0719   -0.7468    1.1521 H   0  0  0  0  0  0  0  0  0  0  0  0
    0.2338   -0.7427   -0.9878 C   0  0  0  0  0  0  0  0  0  0  0  0
    0.5777   -1.7763   -0.9199 H   0  0  0  0  0  0  0  0  0  0  0  0
   -0.4598   -0.6744   -1.8279 H   0  0  0  0  0  0  0  0  0  0  0  0
    1.4210    0.1395   -1.2752 C   0  0  0  0  0  0  0  0  0  0  0  0
    2.0366    0.9940   -0.3859 N   0  0  0  0  0  0  0  0  0  0  0  0
    1.7277    1.1998    0.5524 H   0  0  0  0  0  0  0  0  0  0  0  0
    3.1200    1.5115   -0.9890 C   0  0  0  0  0  0  0  0  0  0  0  0
    3.8048    2.2227   -0.5434 H   0  0  0  0  0  0  0  0  0  0  0  0
    3.2405    1.0185   -2.2303 N   0  0  0  0  0  0  0  0  0  0  0  0
    2.1644    0.1487   -2.4252 C   0  0  0  0  0  0  0  0  0  0  0  0
    1.9719   -0.4410   -3.3122 H   0  0  0  0  0  0  0  0  0  0  0  0
   -0.6600    1.1486    0.4782 C   0  0  0  0  0  0  0  0  0  0  0  0
   -1.5001    1.7648   -0.1771 O   0  0  0  0  0  0  0  0  0  0  0  0
    0.1634    1.7559    1.3418 N   0  0  0  0  0  0  0  0  0  0  0  0
    0.8618    1.1897    1.8008 H   0  0  0  0  0  0  0  0  0  0  0  0
    0.1509    3.1886    1.6256 C   0  0  0  0  0  0  0  0  0  0  0  0
   -0.8272    3.4794    2.0152 H   0  0  0  0  0  0  0  0  0  0  0  0
    0.9172    3.4314    2.3624 H   0  0  0  0  0  0  0  0  0  0  0  0
    0.3414    3.7499    0.7095 H   0  0  0  0  0  0  0  0  0  0  0  0
  5  6  2  0  0  0  0
  5  7  1  0  0  0  0
  2  3  1  0  0  0  0
  2  4  1  0  0  0  0
  2  5  1  0  0  0  0
  1  2  1  0  0  0  0
 22 23  2  0  0  0  0
 22 24  1  0  0  0  0
 20 21  1  0  0  0  0
 19 20  1  0  0  0  0
 17 18  1  0  0  0  0
 17 19  2  0  0  0  0
 15 16  1  0  0  0  0
 15 17  1  0  0  0  0
 14 15  1  0  0  0  0
 14 20  2  0  0  0  0
 11 12  1  0  0  0  0
 11 13  1  0  0  0  0
 11 14  1  0  0  0  0
  9 10  1  0  0  0  0
  9 11  1  0  0  0  0
  9 22  1  0  0  0  0
  7  8  1  0  0  0  0
  7  9  1  0  0  0  0
 26 27  1  0  0  0  0
 26 28  1  0  0  0  0
 26 29  1  0  0  0  0
 24 25  1  0  0  0  0
 24 26  1  0  0  0  0
M  END
$$$$
default_name
  -OEChem-02102213163D

 29 29  0     1  0  0  0  0  0999 V2000
   -3.6042   -3.5728    1.4576 H   0  0  0  0  0  0  0  0  0  0  0  0
   -3.5202   -2.6488    0.8866 C   0  0  0  0  0  0  0  0  0  0  0  0
   -4.2052   -1.9048    1.2896 H   0  0  0  0  0  0  0  0  0  0  0  0
   -3.7552   -2.8428   -0.1584 H   0  0  0  0  0  0  0  0  0  0  0  0
   -2.1052   -2.1358    0.9946 C   0  0  0  0  0  0  0  0  0  0  0  0
   -1.2852   -2.7288    1.6826 O   0  0  0  0  0  0  0  0  0  0  0  0
   -1.8202   -1.0288    0.3146 N   0  0  0  0  0  0  0  0  0  0  0  0
   -2.5542   -0.5788   -0.2104 H   0  0  0  0  0  0  0  0  0  0  0  0
   -0.5102   -0.3728    0.3086 C   0  0  1  0  0  0  0  0  0  0  0  0
    0.0719   -0.7468    1.1521 H   0  0  0  0  0  0  0  0  0  0  0  0
    0.2338   -0.7427   -0.9878 C   0  0  0  0  0  0  0  0  0  0  0  0
    0.5777   -1.7763   -0.9199 H   0  0  0  0  0  0  0  0  0  0  0  0
   -0.4598   -0.6744   -1.8279 H   0  0  0  0  0  0  0  0  0  0  0  0
    1.4210    0.1395   -1.2752 C   0  0  0  0  0  0  0  0  0  0  0  0
    2.2145    0.7694   -0.3405 N   0  0  0  0  0  0  0  0  0  0  0  0
    2.0603    0.7861    0.6565 H   0  0  0  0  0  0  0  0  0  0  0  0
    3.2293    1.3642   -0.9900 C   0  0  0  0  0  0  0  0  0  0  0  0
    4.0167    1.9439   -0.5240 H   0  0  0  0  0  0  0  0  0  0  0  0
    3.1343    1.1360   -2.3081 N   0  0  0  0  0  0  0  0  0  0  0  0
    1.9870    0.3624   -2.5021 C   0  0  0  0  0  0  0  0  0  0  0  0
    1.6288   -0.0234   -3.4478 H   0  0  0  0  0  0  0  0  0  0  0  0
   -0.6600    1.1486    0.4782 C   0  0  0  0  0  0  0  0  0  0  0  0
   -1.5001    1.7648   -0.1771 O   0  0  0  0  0  0  0  0  0  0  0  0
    0.1634    1.7559    1.3418 N   0  0  0  0  0  0  0  0  0  0  0  0
    0.8618    1.1897    1.8008 H   0  0  0  0  0  0  0  0  0  0  0  0
    0.1509    3.1886    1.6256 C   0  0  0  0  0  0  0  0  0  0  0  0
   -0.8272    3.4794    2.0152 H   0  0  0  0  0  0  0  0  0  0  0  0
    0.9172    3.4314    2.3624 H   0  0  0  0  0  0  0  0  0  0  0  0
    0.3414    3.7499    0.7095 H   0  0  0  0  0  0  0  0  0  0  0  0
  5  6  2  0  0  0  0
  5  7  1  0  0  0  0
  2  3  1  0  0  0  0
  2  4  1  0  0  0  0
  2  5  1  0  0  0  0
  1  2  1  0  0  0  0
 22 23  2  0  0  0  0
 22 24  1  0  0  0  0
 20 21  1  0  0  0  0
 19 20  1  0  0  0  0
 17 18  1  0  0  0  0
 17 19  2  0  0  0  0
 15 16  1  0  0  0  0
 15 17  1  0  0  0  0
 14 15  1  0  0  0  0
 14 20  2  0  0  0  0
 11 12  1  0  0  0  0
 11 13  1  0  0  0  0
 11 14  1  0  0  0  0
  9 10  1  0  0  0  0
  9 11  1  0  0  0  0
  9 22  1  0  0  0  0
  7  8  1  0  0  0  0
  7  9  1  0  0  0  0
 26 27  1  0  0  0  0
 26 28  1  0  0  0  0
 26 29  1  0  0  0  0
 24 25  1  0  0  0  0
 24 26  1  0  0  0  0
M  END
$$$$
default_name
  -OEChem-02102213163D

 29 29  0     1  0  0  0  0  0999 V2000
   -3.6042   -3.5728    1.4576 H   0  0  0  0  0  0  0  0  0  0  0  0
   -3.5202   -2.6488    0.8866 C   0  0  0  0  0  0  0  0  0  0  0  0
   -4.2052   -1.9048    1.2896 H   0  0  0  0  0  0  0  0  0  0  0  0
   -3.7552   -2.8428   -0.1584 H   0  0  0  0  0  0  0  0  0  0  0  0
   -2.1052   -2.1358    0.9946 C   0  0  0  0  0  0  0  0  0  0  0  0
   -1.2852   -2.7288    1.6826 O   0  0  0  0  0  0  0  0  0  0  0  0
   -1.8202   -1.0288    0.3146 N   0  0  0  0  0  0  0  0  0  0  0  0
   -2.5542   -0.5788   -0.2104 H   0  0  0  0  0  0  0  0  0  0  0  0
   -0.5102   -0.3728    0.3086 C   0  0  1  0  0  0  0  0  0  0  0  0
    0.0719   -0.7468    1.1521 H   0  0  0  0  0  0  0  0  0  0  0  0
    0.2338   -0.7427   -0.9878 C   0  0  0  0  0  0  0  0  0  0  0  0
    0.5777   -1.7763   -0.9199 H   0  0  0  0  0  0  0  0  0  0  0  0
   -0.4598   -0.6744   -1.8279 H   0  0  0  0  0  0  0  0  0  0  0  0
    1.4210    0.1395   -1.2752 C   0  0  0  0  0  0  0  0  0  0  0  0
    2.3821    0.5345   -0.3694 N   0  0  0  0  0  0  0  0  0  0  0  0
    2.3770    0.3488    0.6224 H   0  0  0  0  0  0  0  0  0  0  0  0
    3.3273    1.2167   -1.0376 C   0  0  0  0  0  0  0  0  0  0  0  0
    4.2106    1.6601   -0.5942 H   0  0  0  0  0  0  0  0  0  0  0  0
    3.0258    1.2706   -2.3431 N   0  0  0  0  0  0  0  0  0  0  0  0
    1.8145    0.5932   -2.5059 C   0  0  0  0  0  0  0  0  0  0  0  0
    1.2974    0.4246   -3.4416 H   0  0  0  0  0  0  0  0  0  0  0  0
   -0.6600    1.1486    0.4782 C   0  0  0  0  0  0  0  0  0  0  0  0
   -1.5001    1.7648   -0.1771 O   0  0  0  0  0  0  0  0  0  0  0  0
    0.1634    1.7559    1.3418 N   0  0  0  0  0  0  0  0  0  0  0  0
    0.8618    1.1897    1.8008 H   0  0  0  0  0  0  0  0  0  0  0  0
    0.1509    3.1886    1.6256 C   0  0  0  0  0  0  0  0  0  0  0  0
   -0.8272    3.4794    2.0152 H   0  0  0  0  0  0  0  0  0  0  0  0
    0.9172    3.4314    2.3624 H   0  0  0  0  0  0  0  0  0  0  0  0
    0.3414    3.7499    0.7095 H   0  0  0  0  0  0  0  0  0  0  0  0
  5  6  2  0  0  0  0
  5  7  1  0  0  0  0
  2  3  1  0  0  0  0
  2  4  1  0  0  0  0
  2  5  1  0  0  0  0
  1  2  1  0  0  0  0
 22 23  2  0  0  0  0
 22 24  1  0  0  0  0
 20 21  1  0  0  0  0
 19 20  1  0  0  0  0
 17 18  1  0  0  0  0
 17 19  2  0  0  0  0
 15 16  1  0  0  0  0
 15 17  1  0  0  0  0
 14 15  1  0  0  0  0
 14 20  2  0  0  0  0
 11 12  1  0  0  0  0
 11 13  1  0  0  0  0
 11 14  1  0  0  0  0
  9 10  1  0  0  0  0
  9 11  1  0  0  0  0
  9 22  1  0  0  0  0
  7  8  1  0  0  0  0
  7  9  1  0  0  0  0
 26 27  1  0  0  0  0
 26 28  1  0  0  0  0
 26 29  1  0  0  0  0
 24 25  1  0  0  0  0
 24 26  1  0  0  0  0
M  END
$$$$
default_name
  -OEChem-02102213163D

 29 29  0     1  0  0  0  0  0999 V2000
   -3.6042   -3.5728    1.4576 H   0  0  0  0  0  0  0  0  0  0  0  0
   -3.5202   -2.6488    0.8866 C   0  0  0  0  0  0  0  0  0  0  0  0
   -4.2052   -1.9048    1.2896 H   0  0  0  0  0  0  0  0  0  0  0  0
   -3.7552   -2.8428   -0.1584 H   0  0  0  0  0  0  0  0  0  0  0  0
   -2.1052   -2.1358    0.9946 C   0  0  0  0  0  0  0  0  0  0  0  0
   -1.2852   -2.7288    1.6826 O   0  0  0  0  0  0  0  0  0  0  0  0
   -1.8202   -1.0288    0.3146 N   0  0  0  0  0  0  0  0  0  0  0  0
   -2.5542   -0.5788   -0.2104 H   0  0  0  0  0  0  0  0  0  0  0  0
   -0.5102   -0.3728    0.3086 C   0  0  1  0  0  0  0  0  0  0  0  0
    0.0719   -0.7468    1.1521 H   0  0  0  0  0  0  0  0  0  0  0  0
    0.2338   -0.7427   -0.9878 C   0  0  0  0  0  0  0  0  0  0  0  0
    0.5777   -1.7763   -0.9199 H   0  0  0  0  0  0  0  0  0  0  0  0
   -0.4598   -0.6744   -1.8279 H   0  0  0  0  0  0  0  0  0  0  0  0
    1.4210    0.1395   -1.2752 C   0  0  0  0  0  0  0  0  0  0  0  0
    2.5280    0.3051   -0.4707 N   0  0  0  0  0  0  0  0  0  0  0  0
    2.6561   -0.0822    0.4522 H   0  0  0  0  0  0  0  0  0  0  0  0
    3.4076    1.0791   -1.1284 C   0  0  0  0  0  0  0  0  0  0  0  0
    4.3732    1.3907   -0.7493 H   0  0  0  0  0  0  0  0  0  0  0  0
    2.9223    1.4131   -2.3331 N   0  0  0  0  0  0  0  0  0  0  0  0
    1.6588    0.8255   -2.4363 C   0  0  0  0  0  0  0  0  0  0  0  0
    1.0003    0.8724   -3.2940 H   0  0  0  0  0  0  0  0  0  0  0  0
   -0.6600    1.1486    0.4782 C   0  0  0  0  0  0  0  0  0  0  0  0
   -1.5001    1.7648   -0.1771 O   0  0  0  0  0  0  0  0  0  0  0  0
    0.1634    1.7559    1.3418 N   0  0  0  0  0  0  0  0  0  0  0  0
    0.8618    1.1897    1.8008 H   0  0  0  0  0  0  0  0  0  0  0  0
    0.1509    3.1886    1.6256 C   0  0  0  0  0  0  0  0  0  0  0  0
   -0.8272    3.4794    2.0152 H   0  0  0  0  0  0  0  0  0  0  0  0
    0.9172    3.4314    2.3624 H   0  0  0  0  0  0  0  0  0  0  0  0
    0.3414    3.7499    0.7095 H   0  0  0  0  0  0  0  0  0  0  0  0
  5  6  2  0  0  0  0
  5  7  1  0  0  0  0
  2  3  1  0  0  0  0
  2  4  1  0  0  0  0
  2  5  1  0  0  0  0
  1  2  1  0  0  0  0
 22 23  2  0  0  0  0
 22 24  1  0  0  0  0
 20 21  1  0  0  0  0
 19 20  1  0  0  0  0
 17 18  1  0  0  0  0
 17 19  2  0  0  0  0
 15 16  1  0  0  0  0
 15 17  1  0  0  0  0
 14 15  1  0  0  0  0
 14 20  2  0  0  0  0
 11 12  1  0  0  0  0
 11 13  1  0  0  0  0
 11 14  1  0  0  0  0
  9 10  1  0  0  0  0
  9 11  1  0  0  0  0
  9 22  1  0  0  0  0
  7  8  1  0  0  0  0
  7  9  1  0  0  0  0
 26 27  1  0  0  0  0
 26 28  1  0  0  0  0
 26 29  1  0  0  0  0
 24 25  1  0  0  0  0
 24 26  1  0  0  0  0
M  END
$$$$
default_name
  -OEChem-02102213163D

 29 29  0     1  0  0  0  0  0999 V2000
   -3.6042   -3.5728    1.4576 H   0  0  0  0  0  0  0  0  0  0  0  0
   -3.5202   -2.6488    0.8866 C   0  0  0  0  0  0  0  0  0  0  0  0
   -4.2052   -1.9048    1.2896 H   0  0  0  0  0  0  0  0  0  0  0  0
   -3.7552   -2.8428   -0.1584 H   0  0  0  0  0  0  0  0  0  0  0  0
   -2.1052   -2.1358    0.9946 C   0  0  0  0  0  0  0  0  0  0  0  0
   -1.2852   -2.7288    1.6826 O   0  0  0  0  0  0  0  0  0  0  0  0
   -1.8202   -1.0288    0.3146 N   0  0  0  0  0  0  0  0  0  0  0  0
   -2.5542   -0.5788   -0.2104 H   0  0  0  0  0  0  0  0  0  0  0  0
   -0.5102   -0.3728    0.3086 C   0  0  1  0  0  0  0  0  0  0  0  0
    0.0719   -0.7468    1.1521 H   0  0  0  0  0  0  0  0  0  0  0  0
    0.2338   -0.7427   -0.9878 C   0  0  0  0  0  0  0  0  0  0  0  0
    0.5777   -1.7763   -0.9199 H   0  0  0  0  0  0  0  0  0  0  0  0
   -0.4598   -0.6744   -1.8279 H   0  0  0  0  0  0  0  0  0  0  0  0
    1.4210    0.1395   -1.2752 C   0  0  0  0  0  0  0  0  0  0  0  0
    2.6422    0.0971   -0.6374 N   0  0  0  0  0  0  0  0  0  0  0  0
    2.8786   -0.4776    0.1576 H   0  0  0  0  0  0  0  0  0  0  0  0
    3.4646    0.9607   -1.2564 C   0  0  0  0  0  0  0  0  0  0  0  0
    4.4935    1.1542   -0.9786 H   0  0  0  0  0  0  0  0  0  0  0  0
    2.8309    1.5539   -2.2787 N   0  0  0  0  0  0  0  0  0  0  0  0
    1.5303    1.0433   -2.2981 C   0  0  0  0  0  0  0  0  0  0  0  0
    0.7579    1.2895   -3.0151 H   0  0  0  0  0  0  0  0  0  0  0  0
   -0.6600    1.1486    0.4782 C   0  0  0  0  0  0  0  0  0  0  0  0
   -1.5001    1.7648   -0.1771 O   0  0  0  0  0  0  0  0  0  0  0  0
    0.1634    1.7559    1.3418 N   0  0  0  0  0  0  0  0  0  0  0  0
    0.8618    1.1897    1.8008 H   0  0  0  0  0  0  0  0  0  0  0  0
    0.1509    3.1886    1.6256 C   0  0  0  0  0  0  0  0  0  0  0  0
   -0.8272    3.4794    2.0152 H   0  0  0  0  0  0  0  0  0  0  0  0
    0.9172    3.4314    2.3624 H   0  0  0  0  0  0  0  0  0  0  0  0
    0.3414    3.7499    0.7095 H   0  0  0  0  0  0  0  0  0  0  0  0
  5  6  2  0  0  0  0
  5  7  1  0  0  0  0
  2  3  1  0  0  0  0
  2  4  1  0  0  0  0
  2  5  1  0  0  0  0
  1  2  1  0  0  0  0
 22 23  2  0  0  0  0
 22 24  1  0  0  0  0
 20 21  1  0  0  0  0
 19 20  1  0  0  0  0
 17 18  1  0  0  0  0
 17 19  2  0  0  0  0
 15 16  1  0  0  0  0
 15 17  1  0  0  0  0
 14 15  1  0  0  0  0
 14 20  2  0  0  0  0
 11 12  1  0  0  0  0
 11 13  1  0  0  0  0
 11 14  1  0  0  0  0
  9 10  1  0  0  0  0
  9 11  1  0  0  0  0
  9 22  1  0  0  0  0
  7  8  1  0  0  0  0
  7  9  1  0  0  0  0
 26 27  1  0  0  0  0
 26 28  1  0  0  0  0
 26 29  1  0  0  0  0
 24 25  1  0  0  0  0
 24 26  1  0  0  0  0
M  END
$$$$
default_name
  -OEChem-02102213163D

 29 29  0     1  0  0  0  0  0999 V2000
   -3.6042   -3.5728    1.4576 H   0  0  0  0  0  0  0  0  0  0  0  0
   -3.5202   -2.6488    0.8866 C   0  0  0  0  0  0  0  0  0  0  0  0
   -4.2052   -1.9048    1.2896 H   0  0  0  0  0  0  0  0  0  0  0  0
   -3.7552   -2.8428   -0.1584 H   0  0  0  0  0  0  0  0  0  0  0  0
   -2.1052   -2.1358    0.9946 C   0  0  0  0  0  0  0  0  0  0  0  0
   -1.2852   -2.7288    1.6826 O   0  0  0  0  0  0  0  0  0  0  0  0
   -1.8202   -1.0288    0.3146 N   0  0  0  0  0  0  0  0  0  0  0  0
   -2.5542   -0.5788   -0.2104 H   0  0  0  0  0  0  0  0  0  0  0  0
   -0.5102   -0.3728    0.3086 C   0  0  1  0  0  0  0  0  0  0  0  0
    0.0719   -0.7468    1.1521 H   0  0  0  0  0  0  0  0  0  0  0  0
    0.2338   -0.7427   -0.9878 C   0  0  0  0  0  0  0  0  0  0  0  0
    0.5777   -1.7763   -0.9199 H   0  0  0  0  0  0  0  0  0  0  0  0
   -0.4598   -0.6744   -1.8279 H   0  0  0  0  0  0  0  0  0  0  0  0
    1.4210    0.1395   -1.2752 C   0  0  0  0  0  0  0  0  0  0  0  0
    2.7171   -0.0756   -0.8581 N   0  0  0  0  0  0  0  0  0  0  0  0
    3.0294   -0.8105   -0.2413 H   0  0  0  0  0  0  0  0  0  0  0  0
    3.4944    0.8697   -1.4129 C   0  0  0  0  0  0  0  0  0  0  0  0
    4.5632    0.9665   -1.2666 H   0  0  0  0  0  0  0  0  0  0  0  0
    2.7578    1.6832   -2.1836 N   0  0  0  0  0  0  0  0  0  0  0  0
    1.4380    1.2319   -2.1008 C   0  0  0  0  0  0  0  0  0  0  0  0
    0.5865    1.6475   -2.6240 H   0  0  0  0  0  0  0  0  0  0  0  0
   -0.6600    1.1486    0.4782 C   0  0  0  0  0  0  0  0  0  0  0  0
   -1.5001    1.7648   -0.1771 O   0  0  0  0  0  0  0  0  0  0  0  0
    0.1634    1.7559    1.3418 N   0  0  0  0  0  0  0  0  0  0  0  0
    0.8618    1.1897    1.8008 H   0  0  0  0  0  0  0  0  0  0  0  0
    0.1509    3.1886    1.6256 C   0  0  0  0  0  0  0  0  0  0  0  0
   -0.8272    3.4794    2.0152 H   0  0  0  0  0  0  0  0  0  0  0  0
    0.9172    3.4314    2.3624 H   0  0  0  0  0  0  0  0  0  0  0  0
    0.3414    3.7499    0.7095 H   0  0  0  0  0  0  0  0  0  0  0  0
  5  6  2  0  0  0  0
  5  7  1  0  0  0  0
  2  3  1  0  0  0  0
  2  4  1  0  0  0  0
  2  5  1  0  0  0  0
  1  2  1  0  0  0  0
 22 23  2  0  0  0  0
 22 24  1  0  0  0  0
 20 21  1  0  0  0  0
 19 20  1  0  0  0  0
 17 18  1  0  0  0  0
 17 19  2  0  0  0  0
 15 16  1  0  0  0  0
 15 17  1  0  0  0  0
 14 15  1  0  0  0  0
 14 20  2  0  0  0  0
 11 12  1  0  0  0  0
 11 13  1  0  0  0  0
 11 14  1  0  0  0  0
  9 10  1  0  0  0  0
  9 11  1  0  0  0  0
  9 22  1  0  0  0  0
  7  8  1  0  0  0  0
  7  9  1  0  0  0  0
 26 27  1  0  0  0  0
 26 28  1  0  0  0  0
 26 29  1  0  0  0  0
 24 25  1  0  0  0  0
 24 26  1  0  0  0  0
M  END
$$$$
default_name
  -OEChem-02102213163D

 29 29  0     1  0  0  0  0  0999 V2000
   -3.6042   -3.5728    1.4576 H   0  0  0  0  0  0  0  0  0  0  0  0
   -3.5202   -2.6488    0.8866 C   0  0  0  0  0  0  0  0  0  0  0  0
   -4.2052   -1.9048    1.2896 H   0  0  0  0  0  0  0  0  0  0  0  0
   -3.7552   -2.8428   -0.1584 H   0  0  0  0  0  0  0  0  0  0  0  0
   -2.1052   -2.1358    0.9946 C   0  0  0  0  0  0  0  0  0  0  0  0
   -1.2852   -2.7288    1.6826 O   0  0  0  0  0  0  0  0  0  0  0  0
   -1.8202   -1.0288    0.3146 N   0  0  0  0  0  0  0  0  0  0  0  0
   -2.5542   -0.5788   -0.2104 H   0  0  0  0  0  0  0  0  0  0  0  0
   -0.5102   -0.3728    0.3086 C   0  0  1  0  0  0  0  0  0  0  0  0
    0.0719   -0.7468    1.1521 H   0  0  0  0  0  0  0  0  0  0  0  0
    0.2338   -0.7427   -0.9878 C   0  0  0  0  0  0  0  0  0  0  0  0
    0.5777   -1.7763   -0.9199 H   0  0  0  0  0  0  0  0  0  0  0  0
   -0.4598   -0.6744   -1.8279 H   0  0  0  0  0  0  0  0  0  0  0  0
    1.4210    0.1395   -1.2752 C   0  0  0  0  0  0  0  0  0  0  0  0
    2.7474   -0.2010   -1.1179 N   0  0  0  0  0  0  0  0  0  0  0  0
    3.0982   -1.0581   -0.7173 H   0  0  0  0  0  0  0  0  0  0  0  0
    3.4949    0.8122   -1.5870 C   0  0  0  0  0  0  0  0  0  0  0  0
    4.5777    0.8405   -1.5937 H   0  0  0  0  0  0  0  0  0  0  0  0
    2.7080    1.7924   -2.0542 N   0  0  0  0  0  0  0  0  0  0  0  0
    1.3880    1.3784   -1.8577 C   0  0  0  0  0  0  0  0  0  0  0  0
    0.4979    1.9220   -2.1472 H   0  0  0  0  0  0  0  0  0  0  0  0
   -0.6600    1.1486    0.4782 C   0  0  0  0  0  0  0  0  0  0  0  0
   -1.5001    1.7648   -0.1771 O   0  0  0  0  0  0  0  0  0  0  0  0
    0.1634    1.7559    1.3418 N   0  0  0  0  0  0  0  0  0  0  0  0
    0.8618    1.1897    1.8008 H   0  0  0  0  0  0  0  0  0  0  0  0
    0.1509    3.1886    1.6256 C   0  0  0  0  0  0  0  0  0  0  0  0
   -0.8272    3.4794    2.0152 H   0  0  0  0  0  0  0  0  0  0  0  0
    0.9172    3.4314    2.3624 H   0  0  0  0  0  0  0  0  0  0  0  0
    0.3414    3.7499    0.7095 H   0  0  0  0  0  0  0  0  0  0  0  0
  5  6  2  0  0  0  0
  5  7  1  0  0  0  0
  2  3  1  0  0  0  0
  2  4  1  0  0  0  0
  2  5  1  0  0  0  0
  1  2  1  0  0  0  0
 22 23  2  0  0  0  0
 22 24  1  0  0  0  0
 20 21  1  0  0  0  0
 19 20  1  0  0  0  0
 17 18  1  0  0  0  0
 17 19  2  0  0  0  0
 15 16  1  0  0  0  0
 15 17  1  0  0  0  0
 14 15  1  0  0  0  0
 14 20  2  0  0  0  0
 11 12  1  0  0  0  0
 11 13  1  0  0  0  0
 11 14  1  0  0  0  0
  9 10  1  0  0  0  0
  9 11  1  0  0  0  0
  9 22  1  0  0  0  0
  7  8  1  0  0  0  0
  7  9  1  0  0  0  0
 26 27  1  0  0  0  0
 26 28  1  0  0  0  0
 26 29  1  0  0  0  0
 24 25  1  0  0  0  0
 24 26  1  0  0  0  0
M  END
$$$$
default_name
  -OEChem-02102213163D

 29 29  0     1  0  0  0  0  0999 V2000
   -3.6042   -3.5728    1.4576 H   0  0  0  0  0  0  0  0  0  0  0  0
   -3.5202   -2.6488    0.8866 C   0  0  0  0  0  0  0  0  0  0  0  0
   -4.2052   -1.9048    1.2896 H   0  0  0  0  0  0  0  0  0  0  0  0
   -3.7552   -2.8428   -0.1584 H   0  0  0  0  0  0  0  0  0  0  0  0
   -2.1052   -2.1358    0.9946 C   0  0  0  0  0  0  0  0  0  0  0  0
   -1.2852   -2.7288    1.6826 O   0  0  0  0  0  0  0  0  0  0  0  0
   -1.8202   -1.0288    0.3146 N   0  0  0  0  0  0  0  0  0  0  0  0
   -2.5542   -0.5788   -0.2104 H   0  0  0  0  0  0  0  0  0  0  0  0
   -0.5102   -0.3728    0.3086 C   0  0  1  0  0  0  0  0  0  0  0  0
    0.0719   -0.7468    1.1521 H   0  0  0  0  0  0  0  0  0  0  0  0
    0.2338   -0.7427   -0.9878 C   0  0  0  0  0  0  0  0  0  0  0  0
    0.5777   -1.7763   -0.9199 H   0  0  0  0  0  0  0  0  0  0  0  0
   -0.4598   -0.6744   -1.8279 H   0  0  0  0  0  0  0  0  0  0  0  0
    1.4210    0.1395   -1.2752 C   0  0  0  0  0  0  0  0  0  0  0  0
    2.7312   -0.2706   -1.3990 N   0  0  0  0  0  0  0  0  0  0  0  0
    3.0803   -1.2036   -1.2381 H   0  0  0  0  0  0  0  0  0  0  0  0
    3.4663    0.7922   -1.7670 C   0  0  0  0  0  0  0  0  0  0  0  0
    4.5359    0.7847   -1.9374 H   0  0  0  0  0  0  0  0  0  0  0  0
    2.6849    1.8739   -1.8995 N   0  0  0  0  0  0  0  0  0  0  0  0
    1.3837    1.4728   -1.5855 C   0  0  0  0  0  0  0  0  0  0  0  0
    0.4982    2.0943   -1.6172 H   0  0  0  0  0  0  0  0  0  0  0  0
   -0.6600    1.1486    0.4782 C   0  0  0  0  0  0  0  0  0  0  0  0
   -1.5001    1.7648   -0.1771 O   0  0  0  0  0  0  0  0  0  0  0  0
    0.1634    1.7559    1.3418 N   0  0  0  0  0  0  0  0  0  0  0  0
    0.8618    1.1897    1.8008 H   0  0  0  0  0  0  0  0  0  0  0  0
    0.1509    3.1886    1.6256 C   0  0  0  0  0  0  0  0  0  0  0  0
   -0.8272    3.4794    2.0152 H   0  0  0  0  0  0  0  0  0  0  0  0
    0.9172    3.4314    2.3624 H   0  0  0  0  0  0  0  0  0  0  0  0
    0.3414    3.7499    0.7095 H   0  0  0  0  0  0  0  0  0  0  0  0
  5  6  2  0  0  0  0
  5  7  1  0  0  0  0
  2  3  1  0  0  0  0
  2  4  1  0  0  0  0
  2  5  1  0  0  0  0
  1  2  1  0  0  0  0
 22 23  2  0  0  0  0
 22 24  1  0  0  0  0
 20 21  1  0  0  0  0
 19 20  1  0  0  0  0
 17 18  1  0  0  0  0
 17 19  2  0  0  0  0
 15 16  1  0  0  0  0
 15 17  1  0  0  0  0
 14 15  1  0  0  0  0
 14 20  2  0  0  0  0
 11 12  1  0  0  0  0
 11 13  1  0  0  0  0
 11 14  1  0  0  0  0
  9 10  1  0  0  0  0
  9 11  1  0  0  0  0
  9 22  1  0  0  0  0
  7  8  1  0  0  0  0
  7  9  1  0  0  0  0
 26 27  1  0  0  0  0
 26 28  1  0  0  0  0
 26 29  1  0  0  0  0
 24 25  1  0  0  0  0
 24 26  1  0  0  0  0
M  END
$$$$
default_name
  -OEChem-02102213163D

 29 29  0     1  0  0  0  0  0999 V2000
   -3.6042   -3.5728    1.4576 H   0  0  0  0  0  0  0  0  0  0  0  0
   -3.5202   -2.6488    0.8866 C   0  0  0  0  0  0  0  0  0  0  0  0
   -4.2052   -1.9048    1.2896 H   0  0  0  0  0  0  0  0  0  0  0  0
   -3.7552   -2.8428   -0.1584 H   0  0  0  0  0  0  0  0  0  0  0  0
   -2.1052   -2.1358    0.9946 C   0  0  0  0  0  0  0  0  0  0  0  0
   -1.2852   -2.7288    1.6826 O   0  0  0  0  0  0  0  0  0  0  0  0
   -1.8202   -1.0288    0.3146 N   0  0  0  0  0  0  0  0  0  0  0  0
   -2.5542   -0.5788   -0.2104 H   0  0  0  0  0  0  0  0  0  0  0  0
   -0.5102   -0.3728    0.3086 C   0  0  1  0  0  0  0  0  0  0  0  0
    0.0719   -0.7468    1.1521 H   0  0  0  0  0  0  0  0  0  0  0  0
    0.2338   -0.7427   -0.9878 C   0  0  0  0  0  0  0  0  0  0  0  0
    0.5777   -1.7763   -0.9199 H   0  0  0  0  0  0  0  0  0  0  0  0
   -0.4598   -0.6744   -1.8279 H   0  0  0  0  0  0  0  0  0  0  0  0
    1.4210    0.1395   -1.2752 C   0  0  0  0  0  0  0  0  0  0  0  0
    2.6694   -0.2798   -1.6823 N   0  0  0  0  0  0  0  0  0  0  0  0
    2.9768   -1.2370   -1.7680 H   0  0  0  0  0  0  0  0  0  0  0  0
    3.4103    0.8109   -1.9407 C   0  0  0  0  0  0  0  0  0  0  0  0
    4.4407    0.8031   -2.2745 H   0  0  0  0  0  0  0  0  0  0  0  0
    2.6900    1.9222   -1.7299 N   0  0  0  0  0  0  0  0  0  0  0  0
    1.4255    1.5086   -1.3026 C   0  0  0  0  0  0  0  0  0  0  0  0
    0.5873    2.1526   -1.0702 H   0  0  0  0  0  0  0  0  0  0  0  0
   -0.6600    1.1486    0.4782 C   0  0  0  0  0  0  0  0  0  0  0  0
   -1.5001    1.7648   -0.1771 O   0  0  0  0  0  0  0  0  0  0  0  0
    0.1634    1.7559    1.3418 N   0  0  0  0  0  0  0  0  0  0  0  0
    0.8618    1.1897    1.8008 H   0  0  0  0  0  0  0  0  0  0  0  0
    0.1509    3.1886    1.6256 C   0  0  0  0  0  0  0  0  0  0  0  0
   -0.8272    3.4794    2.0152 H   0  0  0  0  0  0  0  0  0  0  0  0
    0.9172    3.4314    2.3624 H   0  0  0  0  0  0  0  0  0  0  0  0
    0.3414    3.7499    0.7095 H   0  0  0  0  0  0  0  0  0  0  0  0
  5  6  2  0  0  0  0
  5  7  1  0  0  0  0
  2  3  1  0  0  0  0
  2  4  1  0  0  0  0
  2  5  1  0  0  0  0
  1  2  1  0  0  0  0
 22 23  2  0  0  0  0
 22 24  1  0  0  0  0
 20 21  1  0  0  0  0
 19 20  1  0  0  0  0
 17 18  1  0  0  0  0
 17 19  2  0  0  0  0
 15 16  1  0  0  0  0
 15 17  1  0  0  0  0
 14 15  1  0  0  0  0
 14 20  2  0  0  0  0
 11 12  1  0  0  0  0
 11 13  1  0  0  0  0
 11 14  1  0  0  0  0
  9 10  1  0  0  0  0
  9 11  1  0  0  0  0
  9 22  1  0  0  0  0
  7  8  1  0  0  0  0
  7  9  1  0  0  0  0
 26 27  1  0  0  0  0
 26 28  1  0  0  0  0
 26 29  1  0  0  0  0
 24 25  1  0  0  0  0
 24 26  1  0  0  0  0
M  END
$$$$
default_name
  -OEChem-02102213163D

 29 29  0     1  0  0  0  0  0999 V2000
   -3.6042   -3.5728    1.4576 H   0  0  0  0  0  0  0  0  0  0  0  0
   -3.5202   -2.6488    0.8866 C   0  0  0  0  0  0  0  0  0  0  0  0
   -4.2052   -1.9048    1.2896 H   0  0  0  0  0  0  0  0  0  0  0  0
   -3.7552   -2.8428   -0.1584 H   0  0  0  0  0  0  0  0  0  0  0  0
   -2.1052   -2.1358    0.9946 C   0  0  0  0  0  0  0  0  0  0  0  0
   -1.2852   -2.7288    1.6826 O   0  0  0  0  0  0  0  0  0  0  0  0
   -1.8202   -1.0288    0.3146 N   0  0  0  0  0  0  0  0  0  0  0  0
   -2.5542   -0.5788   -0.2104 H   0  0  0  0  0  0  0  0  0  0  0  0
   -0.5102   -0.3728    0.3086 C   0  0  1  0  0  0  0  0  0  0  0  0
    0.0719   -0.7468    1.1521 H   0  0  0  0  0  0  0  0  0  0  0  0
    0.2338   -0.7427   -0.9878 C   0  0  0  0  0  0  0  0  0  0  0  0
    0.5777   -1.7763   -0.9199 H   0  0  0  0  0  0  0  0  0  0  0  0
   -0.4598   -0.6744   -1.8279 H   0  0  0  0  0  0  0  0  0  0  0  0
    1.4210    0.1395   -1.2752 C   0  0  0  0  0  0  0  0  0  0  0  0
    2.5664   -0.2279   -1.9484 N   0  0  0  0  0  0  0  0  0  0  0  0
    2.7950   -1.1562   -2.2710 H   0  0  0  0  0  0  0  0  0  0  0  0
    3.3308    0.8672   -2.0961 C   0  0  0  0  0  0  0  0  0  0  0  0
    4.2985    0.8942   -2.5820 H   0  0  0  0  0  0  0  0  0  0  0  0
    2.7231    1.9341   -1.5569 N   0  0  0  0  0  0  0  0  0  0  0  0
    1.5106    1.4835   -1.0284 C   0  0  0  0  0  0  0  0  0  0  0  0
    0.7590    2.0930   -0.5434 H   0  0  0  0  0  0  0  0  0  0  0  0
   -0.6600    1.1486    0.4782 C   0  0  0  0  0  0  0  0  0  0  0  0
   -1.5001    1.7648   -0.1771 O   0  0  0  0  0  0  0  0  0  0  0  0
    0.1634    1.7559    1.3418 N   0  0  0  0  0  0  0  0  0  0  0  0
    0.8618    1.1897    1.8008 H   0  0  0  0  0  0  0  0  0  0  0  0
    0.1509    3.1886    1.6256 C   0  0  0  0  0  0  0  0  0  0  0  0
   -0.8272    3.4794    2.0152 H   0  0  0  0  0  0  0  0  0  0  0  0
    0.9172    3.4314    2.3624 H   0  0  0  0  0  0  0  0  0  0  0  0
    0.3414    3.7499    0.7095 H   0  0  0  0  0  0  0  0  0  0  0  0
  5  6  2  0  0  0  0
  5  7  1  0  0  0  0
  2  3  1  0  0  0  0
  2  4  1  0  0  0  0
  2  5  1  0  0  0  0
  1  2  1  0  0  0  0
 22 23  2  0  0  0  0
 22 24  1  0  0  0  0
 20 21  1  0  0  0  0
 19 20  1  0  0  0  0
 17 18  1  0  0  0  0
 17 19  2  0  0  0  0
 15 16  1  0  0  0  0
 15 17  1  0  0  0  0
 14 15  1  0  0  0  0
 14 20  2  0  0  0  0
 11 12  1  0  0  0  0
 11 13  1  0  0  0  0
 11 14  1  0  0  0  0
  9 10  1  0  0  0  0
  9 11  1  0  0  0  0
  9 22  1  0  0  0  0
  7  8  1  0  0  0  0
  7  9  1  0  0  0  0
 26 27  1  0  0  0  0
 26 28  1  0  0  0  0
 26 29  1  0  0  0  0
 24 25  1  0  0  0  0
 24 26  1  0  0  0  0
M  END
$$$$
default_name
  -OEChem-02102213163D

 29 29  0     1  0  0  0  0  0999 V2000
   -3.6042   -3.5728    1.4576 H   0  0  0  0  0  0  0  0  0  0  0  0
   -3.5202   -2.6488    0.8866 C   0  0  0  0  0  0  0  0  0  0  0  0
   -4.2052   -1.9048    1.2896 H   0  0  0  0  0  0  0  0  0  0  0  0
   -3.7552   -2.8428   -0.1584 H   0  0  0  0  0  0  0  0  0  0  0  0
   -2.1052   -2.1358    0.9946 C   0  0  0  0  0  0  0  0  0  0  0  0
   -1.2852   -2.7288    1.6826 O   0  0  0  0  0  0  0  0  0  0  0  0
   -1.8202   -1.0288    0.3146 N   0  0  0  0  0  0  0  0  0  0  0  0
   -2.5542   -0.5788   -0.2104 H   0  0  0  0  0  0  0  0  0  0  0  0
   -0.5102   -0.3728    0.3086 C   0  0  1  0  0  0  0  0  0  0  0  0
    0.0719   -0.7468    1.1521 H   0  0  0  0  0  0  0  0  0  0  0  0
    0.2338   -0.7427   -0.9878 C   0  0  0  0  0  0  0  0  0  0  0  0
    0.5777   -1.7763   -0.9199 H   0  0  0  0  0  0  0  0  0  0  0  0
   -0.4598   -0.6744   -1.8279 H   0  0  0  0  0  0  0  0  0  0  0  0
    1.4210    0.1395   -1.2752 C   0  0  0  0  0  0  0  0  0  0  0  0
    2.4291   -0.1183   -2.1792 N   0  0  0  0  0  0  0  0  0  0  0  0
    2.5471   -0.9665   -2.7129 H   0  0  0  0  0  0  0  0  0  0  0  0
    3.2333    0.9572   -2.2227 C   0  0  0  0  0  0  0  0  0  0  0  0
    4.1191    1.0520   -2.8388 H   0  0  0  0  0  0  0  0  0  0  0  0
    2.7818    1.9086   -1.3925 N   0  0  0  0  0  0  0  0  0  0  0  0
    1.6330    1.3991   -0.7816 C   0  0  0  0  0  0  0  0  0  0  0  0
    1.0019    1.9195   -0.0728 H   0  0  0  0  0  0  0  0  0  0  0  0
   -0.6600    1.1486    0.4782 C   0  0  0  0  0  0  0  0  0  0  0  0
   -1.5001    1.7648   -0.1771 O   0  0  0  0  0  0  0  0  0  0  0  0
    0.1634    1.7559    1.3418 N   0  0  0  0  0  0  0  0  0  0  0  0
    0.8618    1.1897    1.8008 H   0  0  0  0  0  0  0  0  0  0  0  0
    0.1509    3.1886    1.6256 C   0  0  0  0  0  0  0  0  0  0  0  0
   -0.8272    3.4794    2.0152 H   0  0  0  0  0  0  0  0  0  0  0  0
    0.9172    3.4314    2.3624 H   0  0  0  0  0  0  0  0  0  0  0  0
    0.3414    3.7499    0.7095 H   0  0  0  0  0  0  0  0  0  0  0  0
  5  6  2  0  0  0  0
  5  7  1  0  0  0  0
  2  3  1  0  0  0  0
  2  4  1  0  0  0  0
  2  5  1  0  0  0  0
  1  2  1  0  0  0  0
 22 23  2  0  0  0  0
 22 24  1  0  0  0  0
 20 21  1  0  0  0  0
 19 20  1  0  0  0  0
 17 18  1  0  0  0  0
 17 19  2  0  0  0  0
 15 16  1  0  0  0  0
 15 17  1  0  0  0  0
 14 15  1  0  0  0  0
 14 20  2  0  0  0  0
 11 12  1  0  0  0  0
 11 13  1  0  0  0  0
 11 14  1  0  0  0  0
  9 10  1  0  0  0  0
  9 11  1  0  0  0  0
  9 22  1  0  0  0  0
  7  8  1  0  0  0  0
  7  9  1  0  0  0  0
 26 27  1  0  0  0  0
 26 28  1  0  0  0  0
 26 29  1  0  0  0  0
 24 25  1  0  0  0  0
 24 26  1  0  0  0  0
M  END
$$$$
