
  -OEChem-03222214043D

 29 29  0     1  0  0  0  0  0999 V2000
   -3.1401   -3.9065    0.6183 H   0  0  0  0  0  0  0  0  0  0  0  0
   -2.9984   -3.0079    0.0109 C   0  0  0  0  0  0  0  0  0  0  0  0
   -3.7736   -2.2831    0.2700 H   0  0  0  0  0  0  0  0  0  0  0  0
   -3.0968   -3.2787   -1.0429 H   0  0  0  0  0  0  0  0  0  0  0  0
   -1.6257   -2.4158    0.2701 C   0  0  0  0  0  0  0  0  0  0  0  0
   -0.8891   -2.9392    1.0844 O   0  0  0  0  0  0  0  0  0  0  0  0
   -1.2221   -1.2935   -0.4290 N   0  0  0  0  0  0  0  0  0  0  0  0
   -1.8450   -0.9733   -1.1638 H   0  0  0  0  0  0  0  0  0  0  0  0
    0.1258   -0.6916   -0.3395 C   0  0  1  0  0  0  0  0  0  0  0  0
    0.8808   -1.4225   -0.6496 H   0  0  0  0  0  0  0  0  0  0  0  0
    0.1232    0.4988   -1.3229 C   0  0  0  0  0  0  0  0  0  0  0  0
   -0.1215    0.1196   -2.3202 H   0  0  0  0  0  0  0  0  0  0  0  0
   -0.6738    1.1882   -1.0260 H   0  0  0  0  0  0  0  0  0  0  0  0
    1.3981    1.3053   -1.4418 C   0  0  0  0  0  0  0  0  0  0  0  0
    1.5431    2.3948   -2.2755 N   0  0  0  0  0  0  0  0  0  0  0  0
    0.8174    2.8120   -2.8535 H   0  0  0  0  0  0  0  0  0  0  0  0
    2.8463    2.8461   -2.2000 C   0  0  0  0  0  0  0  0  0  0  0  0
    3.2458    3.7001   -2.7392 H   0  0  0  0  0  0  0  0  0  0  0  0
    3.5347    2.0897   -1.3848 N   0  0  0  0  0  0  0  0  0  0  0  0
    2.6552    1.1194   -0.9125 C   0  0  0  0  0  0  0  0  0  0  0  0
    2.9509    0.3123   -0.2517 H   0  0  0  0  0  0  0  0  0  0  0  0
    0.4604   -0.2389    1.1046 C   0  0  0  0  0  0  0  0  0  0  0  0
    1.5656   -0.4462    1.5855 O   0  0  0  0  0  0  0  0  0  0  0  0
   -0.4773    0.4538    1.8517 N   0  0  0  0  0  0  0  0  0  0  0  0
   -1.4223    0.4728    1.4852 H   0  0  0  0  0  0  0  0  0  0  0  0
   -0.2577    0.8227    3.2448 C   0  0  0  0  0  0  0  0  0  0  0  0
    0.6389    1.4447    3.3400 H   0  0  0  0  0  0  0  0  0  0  0  0
   -1.1117    1.3904    3.6261 H   0  0  0  0  0  0  0  0  0  0  0  0
   -0.1310   -0.0735    3.8615 H   0  0  0  0  0  0  0  0  0  0  0  0
  1  2  1  0  0  0  0
  2  3  1  0  0  0  0
  2  4  1  0  0  0  0
  2  5  1  0  0  0  0
  5  6  2  0  0  0  0
  5  7  1  0  0  0  0
  7  8  1  0  0  0  0
  7  9  1  0  0  0  0
  9 10  1  0  0  0  0
  9 11  1  0  0  0  0
  9 22  1  0  0  0  0
 11 12  1  0  0  0  0
 11 13  1  0  0  0  0
 11 14  1  0  0  0  0
 14 15  1  0  0  0  0
 14 20  2  0  0  0  0
 15 16  1  0  0  0  0
 15 17  1  0  0  0  0
 17 18  1  0  0  0  0
 17 19  2  0  0  0  0
 19 20  1  0  0  0  0
 20 21  1  0  0  0  0
 22 23  2  0  0  0  0
 22 24  1  0  0  0  0
 24 25  1  0  0  0  0
 24 26  1  0  0  0  0
 26 27  1  0  0  0  0
 26 28  1  0  0  0  0
 26 29  1  0  0  0  0
M  END
$$$$

  -OEChem-03222214043D

 29 29  0     1  0  0  0  0  0999 V2000
   -3.1157   -3.9496    0.5989 H   0  0  0  0  0  0  0  0  0  0  0  0
   -3.0011   -3.0304    0.0171 C   0  0  0  0  0  0  0  0  0  0  0  0
   -3.7839   -2.3277    0.3121 H   0  0  0  0  0  0  0  0  0  0  0  0
   -3.1141   -3.2712   -1.0427 H   0  0  0  0  0  0  0  0  0  0  0  0
   -1.6346   -2.4216    0.2694 C   0  0  0  0  0  0  0  0  0  0  0  0
   -0.8894   -2.9317    1.0844 O   0  0  0  0  0  0  0  0  0  0  0  0
   -1.2471   -1.2964   -0.4334 N   0  0  0  0  0  0  0  0  0  0  0  0
   -1.8775   -0.9836   -1.1651 H   0  0  0  0  0  0  0  0  0  0  0  0
    0.0974   -0.6871   -0.3586 C   0  0  1  0  0  0  0  0  0  0  0  0
    0.8461   -1.4223   -0.6730 H   0  0  0  0  0  0  0  0  0  0  0  0
    0.0967    0.4955   -1.3496 C   0  0  0  0  0  0  0  0  0  0  0  0
   -0.1507    0.1211   -2.3480 H   0  0  0  0  0  0  0  0  0  0  0  0
   -0.6938    1.1913   -1.0502 H   0  0  0  0  0  0  0  0  0  0  0  0
    1.3845    1.2807   -1.4528 C   0  0  0  0  0  0  0  0  0  0  0  0
    1.5102    2.5234   -2.0373 N   0  0  0  0  0  0  0  0  0  0  0  0
    0.7610    3.0780   -2.4444 H   0  0  0  0  0  0  0  0  0  0  0  0
    2.8372    2.9053   -1.9867 C   0  0  0  0  0  0  0  0  0  0  0  0
    3.2341    3.8420   -2.3675 H   0  0  0  0  0  0  0  0  0  0  0  0
    3.5524    1.9694   -1.4169 N   0  0  0  0  0  0  0  0  0  0  0  0
    2.6657    0.9520   -1.0753 C   0  0  0  0  0  0  0  0  0  0  0  0
    2.9598    0.0200   -0.6026 H   0  0  0  0  0  0  0  0  0  0  0  0
    0.4626   -0.2283    1.0755 C   0  0  0  0  0  0  0  0  0  0  0  0
    1.5922   -0.3966    1.5139 O   0  0  0  0  0  0  0  0  0  0  0  0
   -0.4612    0.4631    1.8409 N   0  0  0  0  0  0  0  0  0  0  0  0
   -1.4193    0.4501    1.5096 H   0  0  0  0  0  0  0  0  0  0  0  0
   -0.2036    0.8501    3.2225 C   0  0  0  0  0  0  0  0  0  0  0  0
    0.6703    1.5078    3.2797 H   0  0  0  0  0  0  0  0  0  0  0  0
   -1.0648    1.3856    3.6329 H   0  0  0  0  0  0  0  0  0  0  0  0
   -0.0183   -0.0358    3.8392 H   0  0  0  0  0  0  0  0  0  0  0  0
  1  2  1  0  0  0  0
  2  3  1  0  0  0  0
  2  4  1  0  0  0  0
  2  5  1  0  0  0  0
  5  6  2  0  0  0  0
  5  7  1  0  0  0  0
  7  8  1  0  0  0  0
  7  9  1  0  0  0  0
  9 10  1  0  0  0  0
  9 11  1  0  0  0  0
  9 22  1  0  0  0  0
 11 12  1  0  0  0  0
 11 13  1  0  0  0  0
 11 14  1  0  0  0  0
 14 15  1  0  0  0  0
 14 20  2  0  0  0  0
 15 16  1  0  0  0  0
 15 17  1  0  0  0  0
 17 18  1  0  0  0  0
 17 19  2  0  0  0  0
 19 20  1  0  0  0  0
 20 21  1  0  0  0  0
 22 23  2  0  0  0  0
 22 24  1  0  0  0  0
 24 25  1  0  0  0  0
 24 26  1  0  0  0  0
 26 27  1  0  0  0  0
 26 28  1  0  0  0  0
 26 29  1  0  0  0  0
M  END
$$$$

  -OEChem-03222214043D

 29 29  0     1  0  0  0  0  0999 V2000
   -3.1112   -3.9607    0.6293 H   0  0  0  0  0  0  0  0  0  0  0  0
   -2.9978   -3.0633    0.0143 C   0  0  0  0  0  0  0  0  0  0  0  0
   -3.7944   -2.3603    0.2690 H   0  0  0  0  0  0  0  0  0  0  0  0
   -3.0898   -3.3457   -1.0372 H   0  0  0  0  0  0  0  0  0  0  0  0
   -1.6427   -2.4287    0.2654 C   0  0  0  0  0  0  0  0  0  0  0  0
   -0.8900   -2.9211    1.0844 O   0  0  0  0  0  0  0  0  0  0  0  0
   -1.2732   -1.2999   -0.4414 N   0  0  0  0  0  0  0  0  0  0  0  0
   -1.9052   -1.0049   -1.1791 H   0  0  0  0  0  0  0  0  0  0  0  0
    0.0685   -0.6832   -0.3802 C   0  0  1  0  0  0  0  0  0  0  0  0
    0.8123   -1.4200   -0.7031 H   0  0  0  0  0  0  0  0  0  0  0  0
    0.0650    0.4991   -1.3699 C   0  0  0  0  0  0  0  0  0  0  0  0
   -0.1832    0.1323   -2.3708 H   0  0  0  0  0  0  0  0  0  0  0  0
   -0.7218    1.1977   -1.0671 H   0  0  0  0  0  0  0  0  0  0  0  0
    1.3634    1.2666   -1.4573 C   0  0  0  0  0  0  0  0  0  0  0  0
    1.4949    2.6060   -1.7563 N   0  0  0  0  0  0  0  0  0  0  0  0
    0.7396    3.2609   -1.9443 H   0  0  0  0  0  0  0  0  0  0  0  0
    2.8389    2.9286   -1.7514 C   0  0  0  0  0  0  0  0  0  0  0  0
    3.2462    3.9148   -1.9552 H   0  0  0  0  0  0  0  0  0  0  0  0
    3.5559    1.8698   -1.4718 N   0  0  0  0  0  0  0  0  0  0  0  0
    2.6532    0.8301   -1.2684 C   0  0  0  0  0  0  0  0  0  0  0  0
    2.9349   -0.1866   -1.0111 H   0  0  0  0  0  0  0  0  0  0  0  0
    0.4651   -0.2187    1.0424 C   0  0  0  0  0  0  0  0  0  0  0  0
    1.6115   -0.3670    1.4432 O   0  0  0  0  0  0  0  0  0  0  0  0
   -0.4421    0.4724    1.8271 N   0  0  0  0  0  0  0  0  0  0  0  0
   -1.4100    0.4436    1.5265 H   0  0  0  0  0  0  0  0  0  0  0  0
   -0.1443    0.8824    3.1936 C   0  0  0  0  0  0  0  0  0  0  0  0
    0.7402    1.5279    3.2155 H   0  0  0  0  0  0  0  0  0  0  0  0
   -0.9865    1.4390    3.6152 H   0  0  0  0  0  0  0  0  0  0  0  0
    0.0442    0.0056    3.8221 H   0  0  0  0  0  0  0  0  0  0  0  0
  1  2  1  0  0  0  0
  2  3  1  0  0  0  0
  2  4  1  0  0  0  0
  2  5  1  0  0  0  0
  5  6  2  0  0  0  0
  5  7  1  0  0  0  0
  7  8  1  0  0  0  0
  7  9  1  0  0  0  0
  9 10  1  0  0  0  0
  9 11  1  0  0  0  0
  9 22  1  0  0  0  0
 11 12  1  0  0  0  0
 11 13  1  0  0  0  0
 11 14  1  0  0  0  0
 14 15  1  0  0  0  0
 14 20  2  0  0  0  0
 15 16  1  0  0  0  0
 15 17  1  0  0  0  0
 17 18  1  0  0  0  0
 17 19  2  0  0  0  0
 19 20  1  0  0  0  0
 20 21  1  0  0  0  0
 22 23  2  0  0  0  0
 22 24  1  0  0  0  0
 24 25  1  0  0  0  0
 24 26  1  0  0  0  0
 26 27  1  0  0  0  0
 26 28  1  0  0  0  0
 26 29  1  0  0  0  0
M  END
$$$$

  -OEChem-03222214043D

 29 29  0     1  0  0  0  0  0999 V2000
   -3.0787   -3.9921    0.6134 H   0  0  0  0  0  0  0  0  0  0  0  0
   -2.9886   -3.0769    0.0209 C   0  0  0  0  0  0  0  0  0  0  0  0
   -3.7894   -2.3917    0.3083 H   0  0  0  0  0  0  0  0  0  0  0  0
   -3.0961   -3.3323   -1.0359 H   0  0  0  0  0  0  0  0  0  0  0  0
   -1.6385   -2.4296    0.2654 C   0  0  0  0  0  0  0  0  0  0  0  0
   -0.8813   -2.9081    1.0886 O   0  0  0  0  0  0  0  0  0  0  0  0
   -1.2817   -1.2996   -0.4458 N   0  0  0  0  0  0  0  0  0  0  0  0
   -1.9161   -1.0164   -1.1861 H   0  0  0  0  0  0  0  0  0  0  0  0
    0.0558   -0.6738   -0.3943 C   0  0  1  0  0  0  0  0  0  0  0  0
    0.8009   -1.4083   -0.7193 H   0  0  0  0  0  0  0  0  0  0  0  0
    0.0454    0.5040   -1.3870 C   0  0  0  0  0  0  0  0  0  0  0  0
   -0.1969    0.1351   -2.3887 H   0  0  0  0  0  0  0  0  0  0  0  0
   -0.7424    1.2041   -1.0915 H   0  0  0  0  0  0  0  0  0  0  0  0
    1.3501    1.2580   -1.4600 C   0  0  0  0  0  0  0  0  0  0  0  0
    1.5136    2.6263   -1.4661 N   0  0  0  0  0  0  0  0  0  0  0  0
    0.7765    3.3245   -1.4042 H   0  0  0  0  0  0  0  0  0  0  0  0
    2.8657    2.9052   -1.5398 C   0  0  0  0  0  0  0  0  0  0  0  0
    3.2977    3.9015   -1.5624 H   0  0  0  0  0  0  0  0  0  0  0  0
    3.5552    1.7928   -1.5867 N   0  0  0  0  0  0  0  0  0  0  0  0
    2.6281    0.7578   -1.5131 C   0  0  0  0  0  0  0  0  0  0  0  0
    2.8823   -0.2980   -1.5101 H   0  0  0  0  0  0  0  0  0  0  0  0
    0.4667   -0.2013    1.0211 C   0  0  0  0  0  0  0  0  0  0  0  0
    1.6233   -0.3237    1.4012 O   0  0  0  0  0  0  0  0  0  0  0  0
   -0.4369    0.4874    1.8124 N   0  0  0  0  0  0  0  0  0  0  0  0
   -1.4095    0.4310    1.5311 H   0  0  0  0  0  0  0  0  0  0  0  0
   -0.1271    0.8979    3.1763 C   0  0  0  0  0  0  0  0  0  0  0  0
    0.7445    1.5610    3.1882 H   0  0  0  0  0  0  0  0  0  0  0  0
   -0.9743    1.4357    3.6120 H   0  0  0  0  0  0  0  0  0  0  0  0
    0.0879    0.0228    3.7989 H   0  0  0  0  0  0  0  0  0  0  0  0
  1  2  1  0  0  0  0
  2  3  1  0  0  0  0
  2  4  1  0  0  0  0
  2  5  1  0  0  0  0
  5  6  2  0  0  0  0
  5  7  1  0  0  0  0
  7  8  1  0  0  0  0
  7  9  1  0  0  0  0
  9 10  1  0  0  0  0
  9 11  1  0  0  0  0
  9 22  1  0  0  0  0
 11 12  1  0  0  0  0
 11 13  1  0  0  0  0
 11 14  1  0  0  0  0
 14 15  1  0  0  0  0
 14 20  2  0  0  0  0
 15 16  1  0  0  0  0
 15 17  1  0  0  0  0
 17 18  1  0  0  0  0
 17 19  2  0  0  0  0
 19 20  1  0  0  0  0
 20 21  1  0  0  0  0
 22 23  2  0  0  0  0
 22 24  1  0  0  0  0
 24 25  1  0  0  0  0
 24 26  1  0  0  0  0
 26 27  1  0  0  0  0
 26 28  1  0  0  0  0
 26 29  1  0  0  0  0
M  END
$$$$

  -OEChem-03222214043D

 29 29  0     1  0  0  0  0  0999 V2000
   -3.0616   -4.0034    0.6139 H   0  0  0  0  0  0  0  0  0  0  0  0
   -2.9763   -3.0906    0.0172 C   0  0  0  0  0  0  0  0  0  0  0  0
   -3.7886   -2.4137    0.2918 H   0  0  0  0  0  0  0  0  0  0  0  0
   -3.0690   -3.3533   -1.0392 H   0  0  0  0  0  0  0  0  0  0  0  0
   -1.6365   -2.4258    0.2724 C   0  0  0  0  0  0  0  0  0  0  0  0
   -0.8832   -2.8897    1.1074 O   0  0  0  0  0  0  0  0  0  0  0  0
   -1.2846   -1.2972   -0.4432 N   0  0  0  0  0  0  0  0  0  0  0  0
   -1.9138   -1.0284   -1.1934 H   0  0  0  0  0  0  0  0  0  0  0  0
    0.0515   -0.6679   -0.3959 C   0  0  1  0  0  0  0  0  0  0  0  0
    0.7995   -1.3989   -0.7222 H   0  0  0  0  0  0  0  0  0  0  0  0
    0.0354    0.5108   -1.3859 C   0  0  0  0  0  0  0  0  0  0  0  0
   -0.1975    0.1368   -2.3880 H   0  0  0  0  0  0  0  0  0  0  0  0
   -0.7545    1.2135   -1.1020 H   0  0  0  0  0  0  0  0  0  0  0  0
    1.3467    1.2502   -1.4446 C   0  0  0  0  0  0  0  0  0  0  0  0
    1.5744    2.5782   -1.1585 N   0  0  0  0  0  0  0  0  0  0  0  0
    0.8935    3.2474   -0.8076 H   0  0  0  0  0  0  0  0  0  0  0  0
    2.9165    2.8425   -1.3602 C   0  0  0  0  0  0  0  0  0  0  0  0
    3.3927    3.8064   -1.2052 H   0  0  0  0  0  0  0  0  0  0  0  0
    3.5344    1.7636   -1.7742 N   0  0  0  0  0  0  0  0  0  0  0  0
    2.5734    0.7589   -1.8130 C   0  0  0  0  0  0  0  0  0  0  0  0
    2.7666   -0.2682   -2.1080 H   0  0  0  0  0  0  0  0  0  0  0  0
    0.4653   -0.1894    1.0170 C   0  0  0  0  0  0  0  0  0  0  0  0
    1.6256   -0.2936    1.3914 O   0  0  0  0  0  0  0  0  0  0  0  0
   -0.4400    0.4997    1.8064 N   0  0  0  0  0  0  0  0  0  0  0  0
   -1.4137    0.4219    1.5337 H   0  0  0  0  0  0  0  0  0  0  0  0
   -0.1305    0.9132    3.1696 C   0  0  0  0  0  0  0  0  0  0  0  0
    0.7418    1.5753    3.1810 H   0  0  0  0  0  0  0  0  0  0  0  0
   -0.9774    1.4532    3.6032 H   0  0  0  0  0  0  0  0  0  0  0  0
    0.0828    0.0394    3.7945 H   0  0  0  0  0  0  0  0  0  0  0  0
  1  2  1  0  0  0  0
  2  3  1  0  0  0  0
  2  4  1  0  0  0  0
  2  5  1  0  0  0  0
  5  6  2  0  0  0  0
  5  7  1  0  0  0  0
  7  8  1  0  0  0  0
  7  9  1  0  0  0  0
  9 10  1  0  0  0  0
  9 11  1  0  0  0  0
  9 22  1  0  0  0  0
 11 12  1  0  0  0  0
 11 13  1  0  0  0  0
 11 14  1  0  0  0  0
 14 15  1  0  0  0  0
 14 20  2  0  0  0  0
 15 16  1  0  0  0  0
 15 17  1  0  0  0  0
 17 18  1  0  0  0  0
 17 19  2  0  0  0  0
 19 20  1  0  0  0  0
 20 21  1  0  0  0  0
 22 23  2  0  0  0  0
 22 24  1  0  0  0  0
 24 25  1  0  0  0  0
 24 26  1  0  0  0  0
 26 27  1  0  0  0  0
 26 28  1  0  0  0  0
 26 29  1  0  0  0  0
M  END
$$$$

  -OEChem-03222214043D

 29 29  0     1  0  0  0  0  0999 V2000
   -3.0651   -4.0008    0.6171 H   0  0  0  0  0  0  0  0  0  0  0  0
   -2.9753   -3.0914    0.0158 C   0  0  0  0  0  0  0  0  0  0  0  0
   -3.7931   -2.4154    0.2763 H   0  0  0  0  0  0  0  0  0  0  0  0
   -3.0546   -3.3612   -1.0401 H   0  0  0  0  0  0  0  0  0  0  0  0
   -1.6407   -2.4207    0.2830 C   0  0  0  0  0  0  0  0  0  0  0  0
   -0.8979   -2.8741    1.1331 O   0  0  0  0  0  0  0  0  0  0  0  0
   -1.2826   -1.2975   -0.4379 N   0  0  0  0  0  0  0  0  0  0  0  0
   -1.9027   -1.0408   -1.1999 H   0  0  0  0  0  0  0  0  0  0  0  0
    0.0560   -0.6733   -0.3923 C   0  0  1  0  0  0  0  0  0  0  0  0
    0.8044   -1.4052   -0.7156 H   0  0  0  0  0  0  0  0  0  0  0  0
    0.0420    0.5054   -1.3816 C   0  0  0  0  0  0  0  0  0  0  0  0
   -0.1855    0.1247   -2.3824 H   0  0  0  0  0  0  0  0  0  0  0  0
   -0.7466    1.2142   -1.1092 H   0  0  0  0  0  0  0  0  0  0  0  0
    1.3604    1.2306   -1.4333 C   0  0  0  0  0  0  0  0  0  0  0  0
    1.6726    2.4544   -0.8840 N   0  0  0  0  0  0  0  0  0  0  0  0
    1.0857    3.0042   -0.2607 H   0  0  0  0  0  0  0  0  0  0  0  0
    2.9798    2.7582   -1.2163 C   0  0  0  0  0  0  0  0  0  0  0  0
    3.5114    3.6521   -0.9032 H   0  0  0  0  0  0  0  0  0  0  0  0
    3.4875    1.8144   -1.9715 N   0  0  0  0  0  0  0  0  0  0  0  0
    2.4932    0.8522   -2.1063 C   0  0  0  0  0  0  0  0  0  0  0  0
    2.5964   -0.0646   -2.6788 H   0  0  0  0  0  0  0  0  0  0  0  0
    0.4657   -0.1902    1.0209 C   0  0  0  0  0  0  0  0  0  0  0  0
    1.6264   -0.2797    1.3987 O   0  0  0  0  0  0  0  0  0  0  0  0
   -0.4431    0.5048    1.8013 N   0  0  0  0  0  0  0  0  0  0  0  0
   -1.4158    0.4132    1.5285 H   0  0  0  0  0  0  0  0  0  0  0  0
   -0.1420    0.9203    3.1659 C   0  0  0  0  0  0  0  0  0  0  0  0
    0.7344    1.5769    3.1830 H   0  0  0  0  0  0  0  0  0  0  0  0
   -0.9892    1.4666    3.5910 H   0  0  0  0  0  0  0  0  0  0  0  0
    0.0606    0.0468    3.7948 H   0  0  0  0  0  0  0  0  0  0  0  0
  1  2  1  0  0  0  0
  2  3  1  0  0  0  0
  2  4  1  0  0  0  0
  2  5  1  0  0  0  0
  5  6  2  0  0  0  0
  5  7  1  0  0  0  0
  7  8  1  0  0  0  0
  7  9  1  0  0  0  0
  9 10  1  0  0  0  0
  9 11  1  0  0  0  0
  9 22  1  0  0  0  0
 11 12  1  0  0  0  0
 11 13  1  0  0  0  0
 11 14  1  0  0  0  0
 14 15  1  0  0  0  0
 14 20  2  0  0  0  0
 15 16  1  0  0  0  0
 15 17  1  0  0  0  0
 17 18  1  0  0  0  0
 17 19  2  0  0  0  0
 19 20  1  0  0  0  0
 20 21  1  0  0  0  0
 22 23  2  0  0  0  0
 22 24  1  0  0  0  0
 24 25  1  0  0  0  0
 24 26  1  0  0  0  0
 26 27  1  0  0  0  0
 26 28  1  0  0  0  0
 26 29  1  0  0  0  0
M  END
$$$$

  -OEChem-03222214043D

 29 29  0     1  0  0  0  0  0999 V2000
   -3.0833   -3.9822    0.6394 H   0  0  0  0  0  0  0  0  0  0  0  0
   -2.9828   -3.0824    0.0256 C   0  0  0  0  0  0  0  0  0  0  0  0
   -3.7956   -2.3954    0.2727 H   0  0  0  0  0  0  0  0  0  0  0  0
   -3.0592   -3.3664   -1.0266 H   0  0  0  0  0  0  0  0  0  0  0  0
   -1.6437   -2.4194    0.2885 C   0  0  0  0  0  0  0  0  0  0  0  0
   -0.9033   -2.8727    1.1411 O   0  0  0  0  0  0  0  0  0  0  0  0
   -1.2791   -1.3022   -0.4386 N   0  0  0  0  0  0  0  0  0  0  0  0
   -1.8976   -1.0458   -1.2022 H   0  0  0  0  0  0  0  0  0  0  0  0
    0.0632   -0.6854   -0.3954 C   0  0  1  0  0  0  0  0  0  0  0  0
    0.8102   -1.4197   -0.7167 H   0  0  0  0  0  0  0  0  0  0  0  0
    0.0525    0.4932   -1.3857 C   0  0  0  0  0  0  0  0  0  0  0  0
   -0.1820    0.1117   -2.3847 H   0  0  0  0  0  0  0  0  0  0  0  0
   -0.7302    1.2077   -1.1117 H   0  0  0  0  0  0  0  0  0  0  0  0
    1.3744    1.2121   -1.4416 C   0  0  0  0  0  0  0  0  0  0  0  0
    1.7880    2.2792   -0.6751 N   0  0  0  0  0  0  0  0  0  0  0  0
    1.3190    2.6422    0.1524 H   0  0  0  0  0  0  0  0  0  0  0  0
    3.0494    2.6541   -1.0980 C   0  0  0  0  0  0  0  0  0  0  0  0
    3.6453    3.4465   -0.6545 H   0  0  0  0  0  0  0  0  0  0  0  0
    3.4246    1.9169   -2.1158 N   0  0  0  0  0  0  0  0  0  0  0  0
    2.3925    1.0125   -2.3371 C   0  0  0  0  0  0  0  0  0  0  0  0
    2.3898    0.2600   -3.1201 H   0  0  0  0  0  0  0  0  0  0  0  0
    0.4685   -0.1989    1.0185 C   0  0  0  0  0  0  0  0  0  0  0  0
    1.6289   -0.2766    1.4000 O   0  0  0  0  0  0  0  0  0  0  0  0
   -0.4412    0.5038    1.7913 N   0  0  0  0  0  0  0  0  0  0  0  0
   -1.4132    0.4132    1.5149 H   0  0  0  0  0  0  0  0  0  0  0  0
   -0.1471    0.9189    3.1577 C   0  0  0  0  0  0  0  0  0  0  0  0
    0.7306    1.5733    3.1809 H   0  0  0  0  0  0  0  0  0  0  0  0
   -0.9953    1.4674    3.5781 H   0  0  0  0  0  0  0  0  0  0  0  0
    0.0490    0.0447    3.7876 H   0  0  0  0  0  0  0  0  0  0  0  0
  1  2  1  0  0  0  0
  2  3  1  0  0  0  0
  2  4  1  0  0  0  0
  2  5  1  0  0  0  0
  5  6  2  0  0  0  0
  5  7  1  0  0  0  0
  7  8  1  0  0  0  0
  7  9  1  0  0  0  0
  9 10  1  0  0  0  0
  9 11  1  0  0  0  0
  9 22  1  0  0  0  0
 11 12  1  0  0  0  0
 11 13  1  0  0  0  0
 11 14  1  0  0  0  0
 14 15  1  0  0  0  0
 14 20  2  0  0  0  0
 15 16  1  0  0  0  0
 15 17  1  0  0  0  0
 17 18  1  0  0  0  0
 17 19  2  0  0  0  0
 19 20  1  0  0  0  0
 20 21  1  0  0  0  0
 22 23  2  0  0  0  0
 22 24  1  0  0  0  0
 24 25  1  0  0  0  0
 24 26  1  0  0  0  0
 26 27  1  0  0  0  0
 26 28  1  0  0  0  0
 26 29  1  0  0  0  0
M  END
$$$$

  -OEChem-03222214043D

 29 29  0     1  0  0  0  0  0999 V2000
   -3.0899   -3.9756    0.6404 H   0  0  0  0  0  0  0  0  0  0  0  0
   -2.9913   -3.0670    0.0392 C   0  0  0  0  0  0  0  0  0  0  0  0
   -3.7923   -2.3760    0.3116 H   0  0  0  0  0  0  0  0  0  0  0  0
   -3.0898   -3.3333   -1.0158 H   0  0  0  0  0  0  0  0  0  0  0  0
   -1.6412   -2.4218    0.2886 C   0  0  0  0  0  0  0  0  0  0  0  0
   -0.8961   -2.8884    1.1297 O   0  0  0  0  0  0  0  0  0  0  0  0
   -1.2707   -1.3061   -0.4379 N   0  0  0  0  0  0  0  0  0  0  0  0
   -1.8958   -1.0346   -1.1909 H   0  0  0  0  0  0  0  0  0  0  0  0
    0.0746   -0.6953   -0.3962 C   0  0  1  0  0  0  0  0  0  0  0  0
    0.8207   -1.4311   -0.7163 H   0  0  0  0  0  0  0  0  0  0  0  0
    0.0679    0.4837   -1.3882 C   0  0  0  0  0  0  0  0  0  0  0  0
   -0.1794    0.1042   -2.3850 H   0  0  0  0  0  0  0  0  0  0  0  0
   -0.7092    1.2008   -1.1047 H   0  0  0  0  0  0  0  0  0  0  0  0
    1.3884    1.2076   -1.4586 C   0  0  0  0  0  0  0  0  0  0  0  0
    1.9323    2.0812   -0.5425 N   0  0  0  0  0  0  0  0  0  0  0  0
    1.6141    2.2118    0.4171 H   0  0  0  0  0  0  0  0  0  0  0  0
    3.1377    2.5383   -1.0394 C   0  0  0  0  0  0  0  0  0  0  0  0
    3.8131    3.2089   -0.5160 H   0  0  0  0  0  0  0  0  0  0  0  0
    3.3527    2.0429   -2.2349 N   0  0  0  0  0  0  0  0  0  0  0  0
    2.2724    1.2116   -2.5059 C   0  0  0  0  0  0  0  0  0  0  0  0
    2.1445    0.6492   -3.4259 H   0  0  0  0  0  0  0  0  0  0  0  0
    0.4683   -0.2164    1.0241 C   0  0  0  0  0  0  0  0  0  0  0  0
    1.6287   -0.2719    1.4106 O   0  0  0  0  0  0  0  0  0  0  0  0
   -0.4489    0.4842    1.7894 N   0  0  0  0  0  0  0  0  0  0  0  0
   -1.4183    0.3923    1.5036 H   0  0  0  0  0  0  0  0  0  0  0  0
   -0.1689    0.9088    3.1560 C   0  0  0  0  0  0  0  0  0  0  0  0
    0.6947    1.5815    3.1809 H   0  0  0  0  0  0  0  0  0  0  0  0
   -1.0306    1.4406    3.5707 H   0  0  0  0  0  0  0  0  0  0  0  0
    0.0429    0.0410    3.7897 H   0  0  0  0  0  0  0  0  0  0  0  0
  1  2  1  0  0  0  0
  2  3  1  0  0  0  0
  2  4  1  0  0  0  0
  2  5  1  0  0  0  0
  5  6  2  0  0  0  0
  5  7  1  0  0  0  0
  7  8  1  0  0  0  0
  7  9  1  0  0  0  0
  9 10  1  0  0  0  0
  9 11  1  0  0  0  0
  9 22  1  0  0  0  0
 11 12  1  0  0  0  0
 11 13  1  0  0  0  0
 11 14  1  0  0  0  0
 14 15  1  0  0  0  0
 14 20  2  0  0  0  0
 15 16  1  0  0  0  0
 15 17  1  0  0  0  0
 17 18  1  0  0  0  0
 17 19  2  0  0  0  0
 19 20  1  0  0  0  0
 20 21  1  0  0  0  0
 22 23  2  0  0  0  0
 22 24  1  0  0  0  0
 24 25  1  0  0  0  0
 24 26  1  0  0  0  0
 26 27  1  0  0  0  0
 26 28  1  0  0  0  0
 26 29  1  0  0  0  0
M  END
$$$$

  -OEChem-03222214043D

 29 29  0     1  0  0  0  0  0999 V2000
   -3.1150   -3.9565    0.6516 H   0  0  0  0  0  0  0  0  0  0  0  0
   -3.0031   -3.0560    0.0408 C   0  0  0  0  0  0  0  0  0  0  0  0
   -3.7953   -2.3517    0.3051 H   0  0  0  0  0  0  0  0  0  0  0  0
   -3.1041   -3.3324   -1.0113 H   0  0  0  0  0  0  0  0  0  0  0  0
   -1.6450   -2.4261    0.2863 C   0  0  0  0  0  0  0  0  0  0  0  0
   -0.9015   -2.9036    1.1228 O   0  0  0  0  0  0  0  0  0  0  0  0
   -1.2652   -1.3107   -0.4364 N   0  0  0  0  0  0  0  0  0  0  0  0
   -1.8901   -1.0287   -1.1858 H   0  0  0  0  0  0  0  0  0  0  0  0
    0.0844   -0.7085   -0.3920 C   0  0  1  0  0  0  0  0  0  0  0  0
    0.8279   -1.4473   -0.7109 H   0  0  0  0  0  0  0  0  0  0  0  0
    0.0847    0.4745   -1.3831 C   0  0  0  0  0  0  0  0  0  0  0  0
   -0.1788    0.1022   -2.3785 H   0  0  0  0  0  0  0  0  0  0  0  0
   -0.6858    1.1927   -1.0846 H   0  0  0  0  0  0  0  0  0  0  0  0
    1.4012    1.2097   -1.4722 C   0  0  0  0  0  0  0  0  0  0  0  0
    2.0949    1.8660   -0.4786 N   0  0  0  0  0  0  0  0  0  0  0  0
    1.9360    1.7517    0.5246 H   0  0  0  0  0  0  0  0  0  0  0  0
    3.2334    2.4197   -1.0302 C   0  0  0  0  0  0  0  0  0  0  0  0
    3.9955    2.9591   -0.4752 H   0  0  0  0  0  0  0  0  0  0  0  0
    3.2678    2.1915   -2.3214 N   0  0  0  0  0  0  0  0  0  0  0  0
    2.1351    1.4387   -2.6074 C   0  0  0  0  0  0  0  0  0  0  0  0
    1.8672    1.0858   -3.5988 H   0  0  0  0  0  0  0  0  0  0  0  0
    0.4650   -0.2410    1.0367 C   0  0  0  0  0  0  0  0  0  0  0  0
    1.6249   -0.2832    1.4294 O   0  0  0  0  0  0  0  0  0  0  0  0
   -0.4569    0.4579    1.7973 N   0  0  0  0  0  0  0  0  0  0  0  0
   -1.4241    0.3800    1.4997 H   0  0  0  0  0  0  0  0  0  0  0  0
   -0.1843    0.8992    3.1601 C   0  0  0  0  0  0  0  0  0  0  0  0
    0.6678    1.5867    3.1787 H   0  0  0  0  0  0  0  0  0  0  0  0
   -1.0549    1.4198    3.5701 H   0  0  0  0  0  0  0  0  0  0  0  0
    0.0416    0.0406    3.8017 H   0  0  0  0  0  0  0  0  0  0  0  0
  1  2  1  0  0  0  0
  2  3  1  0  0  0  0
  2  4  1  0  0  0  0
  2  5  1  0  0  0  0
  5  6  2  0  0  0  0
  5  7  1  0  0  0  0
  7  8  1  0  0  0  0
  7  9  1  0  0  0  0
  9 10  1  0  0  0  0
  9 11  1  0  0  0  0
  9 22  1  0  0  0  0
 11 12  1  0  0  0  0
 11 13  1  0  0  0  0
 11 14  1  0  0  0  0
 14 15  1  0  0  0  0
 14 20  2  0  0  0  0
 15 16  1  0  0  0  0
 15 17  1  0  0  0  0
 17 18  1  0  0  0  0
 17 19  2  0  0  0  0
 19 20  1  0  0  0  0
 20 21  1  0  0  0  0
 22 23  2  0  0  0  0
 22 24  1  0  0  0  0
 24 25  1  0  0  0  0
 24 26  1  0  0  0  0
 26 27  1  0  0  0  0
 26 28  1  0  0  0  0
 26 29  1  0  0  0  0
M  END
$$$$

  -OEChem-03222214043D

 29 29  0     1  0  0  0  0  0999 V2000
   -3.1317   -3.9451    0.6447 H   0  0  0  0  0  0  0  0  0  0  0  0
   -3.0149   -3.0404    0.0410 C   0  0  0  0  0  0  0  0  0  0  0  0
   -3.7961   -2.3293    0.3194 H   0  0  0  0  0  0  0  0  0  0  0  0
   -3.1288   -3.3058   -1.0126 H   0  0  0  0  0  0  0  0  0  0  0  0
   -1.6468   -2.4291    0.2791 C   0  0  0  0  0  0  0  0  0  0  0  0
   -0.9000   -2.9251    1.1020 O   0  0  0  0  0  0  0  0  0  0  0  0
   -1.2597   -1.3118   -0.4372 N   0  0  0  0  0  0  0  0  0  0  0  0
   -1.8890   -1.0113   -1.1755 H   0  0  0  0  0  0  0  0  0  0  0  0
    0.0923   -0.7156   -0.3865 C   0  0  1  0  0  0  0  0  0  0  0  0
    0.8342   -1.4565   -0.7042 H   0  0  0  0  0  0  0  0  0  0  0  0
    0.0987    0.4667   -1.3808 C   0  0  0  0  0  0  0  0  0  0  0  0
   -0.1729    0.0964   -2.3747 H   0  0  0  0  0  0  0  0  0  0  0  0
   -0.6697    1.1842   -1.0749 H   0  0  0  0  0  0  0  0  0  0  0  0
    1.4090    1.2148   -1.4845 C   0  0  0  0  0  0  0  0  0  0  0  0
    2.2545    1.6512   -0.4873 N   0  0  0  0  0  0  0  0  0  0  0  0
    2.2067    1.3669    0.4958 H   0  0  0  0  0  0  0  0  0  0  0  0
    3.3278    2.2984   -1.0662 C   0  0  0  0  0  0  0  0  0  0  0  0
    4.1703    2.7178   -0.5234 H   0  0  0  0  0  0  0  0  0  0  0  0
    3.1875    2.3242   -2.3701 N   0  0  0  0  0  0  0  0  0  0  0  0
    2.0018    1.6513   -2.6415 C   0  0  0  0  0  0  0  0  0  0  0  0
    1.5999    1.4956   -3.6382 H   0  0  0  0  0  0  0  0  0  0  0  0
    0.4635   -0.2589    1.0483 C   0  0  0  0  0  0  0  0  0  0  0  0
    1.6190   -0.3219    1.4538 O   0  0  0  0  0  0  0  0  0  0  0  0
   -0.4605    0.4380    1.8077 N   0  0  0  0  0  0  0  0  0  0  0  0
   -1.4244    0.3853    1.4953 H   0  0  0  0  0  0  0  0  0  0  0  0
   -0.1940    0.8799    3.1711 C   0  0  0  0  0  0  0  0  0  0  0  0
    0.6537    1.5727    3.1917 H   0  0  0  0  0  0  0  0  0  0  0  0
   -1.0686    1.3951    3.5797 H   0  0  0  0  0  0  0  0  0  0  0  0
    0.0355    0.0223    3.8126 H   0  0  0  0  0  0  0  0  0  0  0  0
  1  2  1  0  0  0  0
  2  3  1  0  0  0  0
  2  4  1  0  0  0  0
  2  5  1  0  0  0  0
  5  6  2  0  0  0  0
  5  7  1  0  0  0  0
  7  8  1  0  0  0  0
  7  9  1  0  0  0  0
  9 10  1  0  0  0  0
  9 11  1  0  0  0  0
  9 22  1  0  0  0  0
 11 12  1  0  0  0  0
 11 13  1  0  0  0  0
 11 14  1  0  0  0  0
 14 15  1  0  0  0  0
 14 20  2  0  0  0  0
 15 16  1  0  0  0  0
 15 17  1  0  0  0  0
 17 18  1  0  0  0  0
 17 19  2  0  0  0  0
 19 20  1  0  0  0  0
 20 21  1  0  0  0  0
 22 23  2  0  0  0  0
 22 24  1  0  0  0  0
 24 25  1  0  0  0  0
 24 26  1  0  0  0  0
 26 27  1  0  0  0  0
 26 28  1  0  0  0  0
 26 29  1  0  0  0  0
M  END
$$$$

  -OEChem-03222214043D

 29 29  0     1  0  0  0  0  0999 V2000
   -3.1479   -3.9359    0.6328 H   0  0  0  0  0  0  0  0  0  0  0  0
   -3.0253   -3.0289    0.0337 C   0  0  0  0  0  0  0  0  0  0  0  0
   -3.8024   -2.3144    0.3148 H   0  0  0  0  0  0  0  0  0  0  0  0
   -3.1401   -3.2884   -1.0213 H   0  0  0  0  0  0  0  0  0  0  0  0
   -1.6539   -2.4266    0.2749 C   0  0  0  0  0  0  0  0  0  0  0  0
   -0.9084   -2.9315    1.0934 O   0  0  0  0  0  0  0  0  0  0  0  0
   -1.2609   -1.3092   -0.4374 N   0  0  0  0  0  0  0  0  0  0  0  0
   -1.8886   -1.0023   -1.1744 H   0  0  0  0  0  0  0  0  0  0  0  0
    0.0930   -0.7181   -0.3816 C   0  0  1  0  0  0  0  0  0  0  0  0
    0.8314   -1.4631   -0.6978 H   0  0  0  0  0  0  0  0  0  0  0  0
    0.1039    0.4589   -1.3827 C   0  0  0  0  0  0  0  0  0  0  0  0
   -0.1677    0.0838   -2.3748 H   0  0  0  0  0  0  0  0  0  0  0  0
   -0.6660    1.1759   -1.0794 H   0  0  0  0  0  0  0  0  0  0  0  0
    1.4092    1.2155   -1.4967 C   0  0  0  0  0  0  0  0  0  0  0  0
    2.3937    1.4342   -0.5572 N   0  0  0  0  0  0  0  0  0  0  0  0
    2.4254    1.0230    0.3818 H   0  0  0  0  0  0  0  0  0  0  0  0
    3.4063    2.1746   -1.1324 C   0  0  0  0  0  0  0  0  0  0  0  0
    4.3188    2.4815   -0.6293 H   0  0  0  0  0  0  0  0  0  0  0  0
    3.1069    2.4482   -2.3799 N   0  0  0  0  0  0  0  0  0  0  0  0
    1.8730    1.8536   -2.6185 C   0  0  0  0  0  0  0  0  0  0  0  0
    1.3483    1.8907   -3.5683 H   0  0  0  0  0  0  0  0  0  0  0  0
    0.4663   -0.2650    1.0535 C   0  0  0  0  0  0  0  0  0  0  0  0
    1.6177   -0.3647    1.4651 O   0  0  0  0  0  0  0  0  0  0  0  0
   -0.4514    0.4351    1.8170 N   0  0  0  0  0  0  0  0  0  0  0  0
   -1.4137    0.4085    1.4967 H   0  0  0  0  0  0  0  0  0  0  0  0
   -0.1826    0.8643    3.1839 C   0  0  0  0  0  0  0  0  0  0  0  0
    0.6730    1.5472    3.2109 H   0  0  0  0  0  0  0  0  0  0  0  0
   -1.0522    1.3863    3.5942 H   0  0  0  0  0  0  0  0  0  0  0  0
    0.0357   -0.0002    3.8201 H   0  0  0  0  0  0  0  0  0  0  0  0
  1  2  1  0  0  0  0
  2  3  1  0  0  0  0
  2  4  1  0  0  0  0
  2  5  1  0  0  0  0
  5  6  2  0  0  0  0
  5  7  1  0  0  0  0
  7  8  1  0  0  0  0
  7  9  1  0  0  0  0
  9 10  1  0  0  0  0
  9 11  1  0  0  0  0
  9 22  1  0  0  0  0
 11 12  1  0  0  0  0
 11 13  1  0  0  0  0
 11 14  1  0  0  0  0
 14 15  1  0  0  0  0
 14 20  2  0  0  0  0
 15 16  1  0  0  0  0
 15 17  1  0  0  0  0
 17 18  1  0  0  0  0
 17 19  2  0  0  0  0
 19 20  1  0  0  0  0
 20 21  1  0  0  0  0
 22 23  2  0  0  0  0
 22 24  1  0  0  0  0
 24 25  1  0  0  0  0
 24 26  1  0  0  0  0
 26 27  1  0  0  0  0
 26 28  1  0  0  0  0
 26 29  1  0  0  0  0
M  END
$$$$

  -OEChem-03222214043D

 29 29  0     1  0  0  0  0  0999 V2000
   -3.1529   -3.9349    0.6309 H   0  0  0  0  0  0  0  0  0  0  0  0
   -3.0328   -3.0256    0.0347 C   0  0  0  0  0  0  0  0  0  0  0  0
   -3.8056   -2.3100    0.3252 H   0  0  0  0  0  0  0  0  0  0  0  0
   -3.1569   -3.2799   -1.0206 H   0  0  0  0  0  0  0  0  0  0  0  0
   -1.6581   -2.4277    0.2673 C   0  0  0  0  0  0  0  0  0  0  0  0
   -0.9066   -2.9382    1.0771 O   0  0  0  0  0  0  0  0  0  0  0  0
   -1.2685   -1.3079   -0.4429 N   0  0  0  0  0  0  0  0  0  0  0  0
   -1.9027   -0.9927   -1.1708 H   0  0  0  0  0  0  0  0  0  0  0  0
    0.0844   -0.7157   -0.3871 C   0  0  1  0  0  0  0  0  0  0  0  0
    0.8193   -1.4640   -0.7038 H   0  0  0  0  0  0  0  0  0  0  0  0
    0.0981    0.4540   -1.3964 C   0  0  0  0  0  0  0  0  0  0  0  0
   -0.1643    0.0699   -2.3874 H   0  0  0  0  0  0  0  0  0  0  0  0
   -0.6761    1.1712   -1.1046 H   0  0  0  0  0  0  0  0  0  0  0  0
    1.4022    1.2120   -1.5111 C   0  0  0  0  0  0  0  0  0  0  0  0
    2.5007    1.2170   -0.6787 N   0  0  0  0  0  0  0  0  0  0  0  0
    2.5920    0.6903    0.1971 H   0  0  0  0  0  0  0  0  0  0  0  0
    3.4630    2.0514   -1.2099 C   0  0  0  0  0  0  0  0  0  0  0  0
    4.4330    2.2502   -0.7631 H   0  0  0  0  0  0  0  0  0  0  0  0
    3.0325    2.5696   -2.3357 N   0  0  0  0  0  0  0  0  0  0  0  0
    1.7575    2.0519   -2.5351 C   0  0  0  0  0  0  0  0  0  0  0  0
    1.1292    2.2822   -3.3902 H   0  0  0  0  0  0  0  0  0  0  0  0
    0.4700   -0.2622    1.0441 C   0  0  0  0  0  0  0  0  0  0  0  0
    1.6202   -0.3953    1.4506 O   0  0  0  0  0  0  0  0  0  0  0  0
   -0.4366    0.4392    1.8195 N   0  0  0  0  0  0  0  0  0  0  0  0
   -1.3996    0.4367    1.5003 H   0  0  0  0  0  0  0  0  0  0  0  0
   -0.1531    0.8603    3.1859 C   0  0  0  0  0  0  0  0  0  0  0  0
    0.7101    1.5337    3.2091 H   0  0  0  0  0  0  0  0  0  0  0  0
   -1.0139    1.3904    3.6042 H   0  0  0  0  0  0  0  0  0  0  0  0
    0.0604   -0.0088    3.8174 H   0  0  0  0  0  0  0  0  0  0  0  0
  1  2  1  0  0  0  0
  2  3  1  0  0  0  0
  2  4  1  0  0  0  0
  2  5  1  0  0  0  0
  5  6  2  0  0  0  0
  5  7  1  0  0  0  0
  7  8  1  0  0  0  0
  7  9  1  0  0  0  0
  9 10  1  0  0  0  0
  9 11  1  0  0  0  0
  9 22  1  0  0  0  0
 11 12  1  0  0  0  0
 11 13  1  0  0  0  0
 11 14  1  0  0  0  0
 14 15  1  0  0  0  0
 14 20  2  0  0  0  0
 15 16  1  0  0  0  0
 15 17  1  0  0  0  0
 17 18  1  0  0  0  0
 17 19  2  0  0  0  0
 19 20  1  0  0  0  0
 20 21  1  0  0  0  0
 22 23  2  0  0  0  0
 22 24  1  0  0  0  0
 24 25  1  0  0  0  0
 24 26  1  0  0  0  0
 26 27  1  0  0  0  0
 26 28  1  0  0  0  0
 26 29  1  0  0  0  0
M  END
$$$$

  -OEChem-03222214043D

 29 29  0     1  0  0  0  0  0999 V2000
   -3.1409   -3.9481    0.6293 H   0  0  0  0  0  0  0  0  0  0  0  0
   -3.0348   -3.0310    0.0426 C   0  0  0  0  0  0  0  0  0  0  0  0
   -3.8026   -2.3208    0.3583 H   0  0  0  0  0  0  0  0  0  0  0  0
   -3.1800   -3.2721   -1.0131 H   0  0  0  0  0  0  0  0  0  0  0  0
   -1.6565   -2.4341    0.2549 C   0  0  0  0  0  0  0  0  0  0  0  0
   -0.8893   -2.9504    1.0460 O   0  0  0  0  0  0  0  0  0  0  0  0
   -1.2799   -1.3090   -0.4533 N   0  0  0  0  0  0  0  0  0  0  0  0
   -1.9290   -0.9807   -1.1618 H   0  0  0  0  0  0  0  0  0  0  0  0
    0.0684   -0.7080   -0.4023 C   0  0  1  0  0  0  0  0  0  0  0  0
    0.8011   -1.4571   -0.7225 H   0  0  0  0  0  0  0  0  0  0  0  0
    0.0807    0.4540   -1.4183 C   0  0  0  0  0  0  0  0  0  0  0  0
   -0.1652    0.0581   -2.4089 H   0  0  0  0  0  0  0  0  0  0  0  0
   -0.7008    1.1703   -1.1438 H   0  0  0  0  0  0  0  0  0  0  0  0
    1.3859    1.2082   -1.5242 C   0  0  0  0  0  0  0  0  0  0  0  0
    2.5704    1.0137   -0.8466 N   0  0  0  0  0  0  0  0  0  0  0  0
    2.7074    0.3782   -0.0533 H   0  0  0  0  0  0  0  0  0  0  0  0
    3.4968    1.9333   -1.2952 C   0  0  0  0  0  0  0  0  0  0  0  0
    4.5130    2.0279   -0.9234 H   0  0  0  0  0  0  0  0  0  0  0  0
    2.9664    2.6823   -2.2328 N   0  0  0  0  0  0  0  0  0  0  0  0
    1.6574    2.2394   -2.3852 C   0  0  0  0  0  0  0  0  0  0  0  0
    0.9476    2.6543   -3.0945 H   0  0  0  0  0  0  0  0  0  0  0  0
    0.4749   -0.2517    1.0213 C   0  0  0  0  0  0  0  0  0  0  0  0
    1.6298   -0.3992    1.4097 O   0  0  0  0  0  0  0  0  0  0  0  0
   -0.4201    0.4462    1.8128 N   0  0  0  0  0  0  0  0  0  0  0  0
   -1.3875    0.4495    1.5079 H   0  0  0  0  0  0  0  0  0  0  0  0
   -0.1119    0.8718    3.1723 C   0  0  0  0  0  0  0  0  0  0  0  0
    0.7512    1.5459    3.1769 H   0  0  0  0  0  0  0  0  0  0  0  0
   -0.9652    1.4026    3.6051 H   0  0  0  0  0  0  0  0  0  0  0  0
    0.1136    0.0046    3.8019 H   0  0  0  0  0  0  0  0  0  0  0  0
  1  2  1  0  0  0  0
  2  3  1  0  0  0  0
  2  4  1  0  0  0  0
  2  5  1  0  0  0  0
  5  6  2  0  0  0  0
  5  7  1  0  0  0  0
  7  8  1  0  0  0  0
  7  9  1  0  0  0  0
  9 10  1  0  0  0  0
  9 11  1  0  0  0  0
  9 22  1  0  0  0  0
 11 12  1  0  0  0  0
 11 13  1  0  0  0  0
 11 14  1  0  0  0  0
 14 15  1  0  0  0  0
 14 20  2  0  0  0  0
 15 16  1  0  0  0  0
 15 17  1  0  0  0  0
 17 18  1  0  0  0  0
 17 19  2  0  0  0  0
 19 20  1  0  0  0  0
 20 21  1  0  0  0  0
 22 23  2  0  0  0  0
 22 24  1  0  0  0  0
 24 25  1  0  0  0  0
 24 26  1  0  0  0  0
 26 27  1  0  0  0  0
 26 28  1  0  0  0  0
 26 29  1  0  0  0  0
M  END
$$$$

  -OEChem-03222214043D

 29 29  0     1  0  0  0  0  0999 V2000
   -3.1259   -3.9632    0.6374 H   0  0  0  0  0  0  0  0  0  0  0  0
   -3.0307   -3.0482    0.0455 C   0  0  0  0  0  0  0  0  0  0  0  0
   -3.8014   -2.3421    0.3635 H   0  0  0  0  0  0  0  0  0  0  0  0
   -3.1826   -3.2951   -1.0079 H   0  0  0  0  0  0  0  0  0  0  0  0
   -1.6549   -2.4404    0.2439 C   0  0  0  0  0  0  0  0  0  0  0  0
   -0.8738   -2.9523    1.0243 O   0  0  0  0  0  0  0  0  0  0  0  0
   -1.2961   -1.3097   -0.4643 N   0  0  0  0  0  0  0  0  0  0  0  0
   -1.9564   -0.9821   -1.1628 H   0  0  0  0  0  0  0  0  0  0  0  0
    0.0458   -0.6957   -0.4207 C   0  0  1  0  0  0  0  0  0  0  0  0
    0.7769   -1.4450   -0.7436 H   0  0  0  0  0  0  0  0  0  0  0  0
    0.0531    0.4555   -1.4465 C   0  0  0  0  0  0  0  0  0  0  0  0
   -0.1728    0.0433   -2.4352 H   0  0  0  0  0  0  0  0  0  0  0  0
   -0.7377    1.1697   -1.1940 H   0  0  0  0  0  0  0  0  0  0  0  0
    1.3599    1.2052   -1.5398 C   0  0  0  0  0  0  0  0  0  0  0  0
    2.6008    0.8450   -1.0597 N   0  0  0  0  0  0  0  0  0  0  0  0
    2.7805    0.0930   -0.3881 H   0  0  0  0  0  0  0  0  0  0  0  0
    3.5020    1.8402   -1.3829 C   0  0  0  0  0  0  0  0  0  0  0  0
    4.5512    1.8461   -1.1015 H   0  0  0  0  0  0  0  0  0  0  0  0
    2.9040    2.7852   -2.0694 N   0  0  0  0  0  0  0  0  0  0  0  0
    1.5717    2.4025   -2.1716 C   0  0  0  0  0  0  0  0  0  0  0  0
    0.8044    2.9754   -2.6836 H   0  0  0  0  0  0  0  0  0  0  0  0
    0.4800   -0.2315    0.9902 C   0  0  0  0  0  0  0  0  0  0  0  0
    1.6423   -0.3877    1.3515 O   0  0  0  0  0  0  0  0  0  0  0  0
   -0.3987    0.4634    1.8019 N   0  0  0  0  0  0  0  0  0  0  0  0
   -1.3720    0.4734    1.5163 H   0  0  0  0  0  0  0  0  0  0  0  0
   -0.0568    0.8944    3.1514 C   0  0  0  0  0  0  0  0  0  0  0  0
    0.8108    1.5623    3.1319 H   0  0  0  0  0  0  0  0  0  0  0  0
   -0.8961    1.4338    3.6006 H   0  0  0  0  0  0  0  0  0  0  0  0
    0.1785    0.0297    3.7810 H   0  0  0  0  0  0  0  0  0  0  0  0
  1  2  1  0  0  0  0
  2  3  1  0  0  0  0
  2  4  1  0  0  0  0
  2  5  1  0  0  0  0
  5  6  2  0  0  0  0
  5  7  1  0  0  0  0
  7  8  1  0  0  0  0
  7  9  1  0  0  0  0
  9 10  1  0  0  0  0
  9 11  1  0  0  0  0
  9 22  1  0  0  0  0
 11 12  1  0  0  0  0
 11 13  1  0  0  0  0
 11 14  1  0  0  0  0
 14 15  1  0  0  0  0
 14 20  2  0  0  0  0
 15 16  1  0  0  0  0
 15 17  1  0  0  0  0
 17 18  1  0  0  0  0
 17 19  2  0  0  0  0
 19 20  1  0  0  0  0
 20 21  1  0  0  0  0
 22 23  2  0  0  0  0
 22 24  1  0  0  0  0
 24 25  1  0  0  0  0
 24 26  1  0  0  0  0
 26 27  1  0  0  0  0
 26 28  1  0  0  0  0
 26 29  1  0  0  0  0
M  END
$$$$

  -OEChem-03222214043D

 29 29  0     1  0  0  0  0  0999 V2000
   -3.1014   -3.9747    0.6567 H   0  0  0  0  0  0  0  0  0  0  0  0
   -3.0194   -3.0618    0.0599 C   0  0  0  0  0  0  0  0  0  0  0  0
   -3.7861   -2.3567    0.3891 H   0  0  0  0  0  0  0  0  0  0  0  0
   -3.1889   -3.3130   -0.9896 H   0  0  0  0  0  0  0  0  0  0  0  0
   -1.6426   -2.4491    0.2326 C   0  0  0  0  0  0  0  0  0  0  0  0
   -0.8432   -2.9615    0.9939 O   0  0  0  0  0  0  0  0  0  0  0  0
   -1.3025   -1.3138   -0.4771 N   0  0  0  0  0  0  0  0  0  0  0  0
   -1.9807   -0.9778   -1.1540 H   0  0  0  0  0  0  0  0  0  0  0  0
    0.0320   -0.6842   -0.4419 C   0  0  1  0  0  0  0  0  0  0  0  0
    0.7651   -1.4296   -0.7691 H   0  0  0  0  0  0  0  0  0  0  0  0
    0.0268    0.4642   -1.4683 C   0  0  0  0  0  0  0  0  0  0  0  0
   -0.1898    0.0473   -2.4572 H   0  0  0  0  0  0  0  0  0  0  0  0
   -0.7709    1.1728   -1.2225 H   0  0  0  0  0  0  0  0  0  0  0  0
    1.3344    1.2113   -1.5483 C   0  0  0  0  0  0  0  0  0  0  0  0
    2.6078    0.7380   -1.3153 N   0  0  0  0  0  0  0  0  0  0  0  0
    2.8387   -0.1467   -0.8610 H   0  0  0  0  0  0  0  0  0  0  0  0
    3.4980    1.7790   -1.4949 C   0  0  0  0  0  0  0  0  0  0  0  0
    4.5714    1.7134   -1.3422 H   0  0  0  0  0  0  0  0  0  0  0  0
    2.8596    2.8635   -1.8664 N   0  0  0  0  0  0  0  0  0  0  0  0
    1.5123    2.5246   -1.8964 C   0  0  0  0  0  0  0  0  0  0  0  0
    0.7113    3.2091   -2.1591 H   0  0  0  0  0  0  0  0  0  0  0  0
    0.4835   -0.2111    0.9594 C   0  0  0  0  0  0  0  0  0  0  0  0
    1.6506   -0.3621    1.3041 O   0  0  0  0  0  0  0  0  0  0  0  0
   -0.3895    0.4780    1.7824 N   0  0  0  0  0  0  0  0  0  0  0  0
   -1.3652    0.4900    1.5063 H   0  0  0  0  0  0  0  0  0  0  0  0
   -0.0319    0.9162    3.1253 C   0  0  0  0  0  0  0  0  0  0  0  0
    0.8315    1.5891    3.0913 H   0  0  0  0  0  0  0  0  0  0  0  0
   -0.8682    1.4523    3.5840 H   0  0  0  0  0  0  0  0  0  0  0  0
    0.2165    0.0550    3.7547 H   0  0  0  0  0  0  0  0  0  0  0  0
  1  2  1  0  0  0  0
  2  3  1  0  0  0  0
  2  4  1  0  0  0  0
  2  5  1  0  0  0  0
  5  6  2  0  0  0  0
  5  7  1  0  0  0  0
  7  8  1  0  0  0  0
  7  9  1  0  0  0  0
  9 10  1  0  0  0  0
  9 11  1  0  0  0  0
  9 22  1  0  0  0  0
 11 12  1  0  0  0  0
 11 13  1  0  0  0  0
 11 14  1  0  0  0  0
 14 15  1  0  0  0  0
 14 20  2  0  0  0  0
 15 16  1  0  0  0  0
 15 17  1  0  0  0  0
 17 18  1  0  0  0  0
 17 19  2  0  0  0  0
 19 20  1  0  0  0  0
 20 21  1  0  0  0  0
 22 23  2  0  0  0  0
 22 24  1  0  0  0  0
 24 25  1  0  0  0  0
 24 26  1  0  0  0  0
 26 27  1  0  0  0  0
 26 28  1  0  0  0  0
 26 29  1  0  0  0  0
M  END
$$$$

  -OEChem-03222214043D

 29 29  0     1  0  0  0  0  0999 V2000
   -3.0799   -3.9878    0.6620 H   0  0  0  0  0  0  0  0  0  0  0  0
   -3.0070   -3.0744    0.0646 C   0  0  0  0  0  0  0  0  0  0  0  0
   -3.7735   -2.3724    0.4012 H   0  0  0  0  0  0  0  0  0  0  0  0
   -3.1860   -3.3257   -0.9836 H   0  0  0  0  0  0  0  0  0  0  0  0
   -1.6306   -2.4567    0.2245 C   0  0  0  0  0  0  0  0  0  0  0  0
   -0.8198   -2.9707    0.9725 O   0  0  0  0  0  0  0  0  0  0  0  0
   -1.3026   -1.3172   -0.4843 N   0  0  0  0  0  0  0  0  0  0  0  0
   -1.9915   -0.9778   -1.1487 H   0  0  0  0  0  0  0  0  0  0  0  0
    0.0264   -0.6756   -0.4538 C   0  0  1  0  0  0  0  0  0  0  0  0
    0.7651   -1.4126   -0.7866 H   0  0  0  0  0  0  0  0  0  0  0  0
    0.0058    0.4785   -1.4718 C   0  0  0  0  0  0  0  0  0  0  0  0
   -0.2129    0.0719   -2.4642 H   0  0  0  0  0  0  0  0  0  0  0  0
   -0.7940    1.1809   -1.2146 H   0  0  0  0  0  0  0  0  0  0  0  0
    1.3127    1.2252   -1.5414 C   0  0  0  0  0  0  0  0  0  0  0  0
    2.5881    0.7059   -1.5904 N   0  0  0  0  0  0  0  0  0  0  0  0
    2.8456   -0.2681   -1.4391 H   0  0  0  0  0  0  0  0  0  0  0  0
    3.4835    1.7577   -1.6357 C   0  0  0  0  0  0  0  0  0  0  0  0
    4.5649    1.6553   -1.6473 H   0  0  0  0  0  0  0  0  0  0  0  0
    2.8402    2.9008   -1.6595 N   0  0  0  0  0  0  0  0  0  0  0  0
    1.4891    2.5832   -1.5914 C   0  0  0  0  0  0  0  0  0  0  0  0
    0.6853    3.3132   -1.5799 H   0  0  0  0  0  0  0  0  0  0  0  0
    0.4829   -0.1993    0.9449 C   0  0  0  0  0  0  0  0  0  0  0  0
    1.6534   -0.3326    1.2820 O   0  0  0  0  0  0  0  0  0  0  0  0
   -0.3922    0.4819    1.7727 N   0  0  0  0  0  0  0  0  0  0  0  0
   -1.3709    0.4763    1.5074 H   0  0  0  0  0  0  0  0  0  0  0  0
   -0.0254    0.9402    3.1066 C   0  0  0  0  0  0  0  0  0  0  0  0
    0.8362    1.6142    3.0562 H   0  0  0  0  0  0  0  0  0  0  0  0
   -0.8587    1.4817    3.5638 H   0  0  0  0  0  0  0  0  0  0  0  0
    0.2303    0.0893    3.7469 H   0  0  0  0  0  0  0  0  0  0  0  0
  1  2  1  0  0  0  0
  2  3  1  0  0  0  0
  2  4  1  0  0  0  0
  2  5  1  0  0  0  0
  5  6  2  0  0  0  0
  5  7  1  0  0  0  0
  7  8  1  0  0  0  0
  7  9  1  0  0  0  0
  9 10  1  0  0  0  0
  9 11  1  0  0  0  0
  9 22  1  0  0  0  0
 11 12  1  0  0  0  0
 11 13  1  0  0  0  0
 11 14  1  0  0  0  0
 14 15  1  0  0  0  0
 14 20  2  0  0  0  0
 15 16  1  0  0  0  0
 15 17  1  0  0  0  0
 17 18  1  0  0  0  0
 17 19  2  0  0  0  0
 19 20  1  0  0  0  0
 20 21  1  0  0  0  0
 22 23  2  0  0  0  0
 22 24  1  0  0  0  0
 24 25  1  0  0  0  0
 24 26  1  0  0  0  0
 26 27  1  0  0  0  0
 26 28  1  0  0  0  0
 26 29  1  0  0  0  0
M  END
$$$$

  -OEChem-03222214043D

 29 29  0     1  0  0  0  0  0999 V2000
   -3.0638   -3.9858    0.6743 H   0  0  0  0  0  0  0  0  0  0  0  0
   -2.9959   -3.0706    0.0789 C   0  0  0  0  0  0  0  0  0  0  0  0
   -3.7547   -2.3669    0.4289 H   0  0  0  0  0  0  0  0  0  0  0  0
   -3.1909   -3.3182   -0.9673 H   0  0  0  0  0  0  0  0  0  0  0  0
   -1.6149   -2.4585    0.2211 C   0  0  0  0  0  0  0  0  0  0  0  0
   -0.7968   -2.9765    0.9582 O   0  0  0  0  0  0  0  0  0  0  0  0
   -1.2926   -1.3175   -0.4881 N   0  0  0  0  0  0  0  0  0  0  0  0
   -1.9905   -0.9705   -1.1390 H   0  0  0  0  0  0  0  0  0  0  0  0
    0.0334   -0.6686   -0.4585 C   0  0  1  0  0  0  0  0  0  0  0  0
    0.7798   -1.3969   -0.7937 H   0  0  0  0  0  0  0  0  0  0  0  0
    0.0013    0.4926   -1.4673 C   0  0  0  0  0  0  0  0  0  0  0  0
   -0.2259    0.1004   -2.4636 H   0  0  0  0  0  0  0  0  0  0  0  0
   -0.7968    1.1905   -1.1934 H   0  0  0  0  0  0  0  0  0  0  0  0
    1.3067    1.2404   -1.5310 C   0  0  0  0  0  0  0  0  0  0  0  0
    2.5479    0.7468   -1.8667 N   0  0  0  0  0  0  0  0  0  0  0  0
    2.7884   -0.2307   -2.0181 H   0  0  0  0  0  0  0  0  0  0  0  0
    3.4577    1.7862   -1.8099 C   0  0  0  0  0  0  0  0  0  0  0  0
    4.5230    1.6929   -2.0012 H   0  0  0  0  0  0  0  0  0  0  0  0
    2.8501    2.9054   -1.4954 N   0  0  0  0  0  0  0  0  0  0  0  0
    1.5125    2.5771   -1.3087 C   0  0  0  0  0  0  0  0  0  0  0  0
    0.7375    3.2855   -1.0322 H   0  0  0  0  0  0  0  0  0  0  0  0
    0.4810   -0.1919    0.9433 C   0  0  0  0  0  0  0  0  0  0  0  0
    1.6503   -0.3108    1.2870 O   0  0  0  0  0  0  0  0  0  0  0  0
   -0.4046    0.4820    1.7663 N   0  0  0  0  0  0  0  0  0  0  0  0
   -1.3825    0.4582    1.4997 H   0  0  0  0  0  0  0  0  0  0  0  0
   -0.0511    0.9334    3.1063 C   0  0  0  0  0  0  0  0  0  0  0  0
    0.8039    1.6169    3.0678 H   0  0  0  0  0  0  0  0  0  0  0  0
   -0.8936    1.4623    3.5619 H   0  0  0  0  0  0  0  0  0  0  0  0
    0.2089    0.0799    3.7414 H   0  0  0  0  0  0  0  0  0  0  0  0
  1  2  1  0  0  0  0
  2  3  1  0  0  0  0
  2  4  1  0  0  0  0
  2  5  1  0  0  0  0
  5  6  2  0  0  0  0
  5  7  1  0  0  0  0
  7  8  1  0  0  0  0
  7  9  1  0  0  0  0
  9 10  1  0  0  0  0
  9 11  1  0  0  0  0
  9 22  1  0  0  0  0
 11 12  1  0  0  0  0
 11 13  1  0  0  0  0
 11 14  1  0  0  0  0
 14 15  1  0  0  0  0
 14 20  2  0  0  0  0
 15 16  1  0  0  0  0
 15 17  1  0  0  0  0
 17 18  1  0  0  0  0
 17 19  2  0  0  0  0
 19 20  1  0  0  0  0
 20 21  1  0  0  0  0
 22 23  2  0  0  0  0
 22 24  1  0  0  0  0
 24 25  1  0  0  0  0
 24 26  1  0  0  0  0
 26 27  1  0  0  0  0
 26 28  1  0  0  0  0
 26 29  1  0  0  0  0
M  END
$$$$

  -OEChem-03222214043D

 29 29  0     1  0  0  0  0  0999 V2000
   -3.0633   -3.9892    0.6607 H   0  0  0  0  0  0  0  0  0  0  0  0
   -2.9919   -3.0739    0.0661 C   0  0  0  0  0  0  0  0  0  0  0  0
   -3.7583   -2.3734    0.4060 H   0  0  0  0  0  0  0  0  0  0  0  0
   -3.1720   -3.3224   -0.9824 H   0  0  0  0  0  0  0  0  0  0  0  0
   -1.6155   -2.4559    0.2259 C   0  0  0  0  0  0  0  0  0  0  0  0
   -0.8048   -2.9702    0.9733 O   0  0  0  0  0  0  0  0  0  0  0  0
   -1.2897   -1.3149   -0.4817 N   0  0  0  0  0  0  0  0  0  0  0  0
   -1.9811   -0.9747   -1.1429 H   0  0  0  0  0  0  0  0  0  0  0  0
    0.0372   -0.6677   -0.4501 C   0  0  1  0  0  0  0  0  0  0  0  0
    0.7862   -1.3920   -0.7881 H   0  0  0  0  0  0  0  0  0  0  0  0
   -0.0002    0.4995   -1.4520 C   0  0  0  0  0  0  0  0  0  0  0  0
   -0.2406    0.1206   -2.4503 H   0  0  0  0  0  0  0  0  0  0  0  0
   -0.7932    1.1963   -1.1608 H   0  0  0  0  0  0  0  0  0  0  0  0
    1.3045    1.2480   -1.5160 C   0  0  0  0  0  0  0  0  0  0  0  0
    2.4759    0.8481   -2.1194 N   0  0  0  0  0  0  0  0  0  0  0  0
    2.6641   -0.0639   -2.5299 H   0  0  0  0  0  0  0  0  0  0  0  0
    3.4057    1.8612   -1.9758 C   0  0  0  0  0  0  0  0  0  0  0  0
    4.4306    1.8218   -2.3332 H   0  0  0  0  0  0  0  0  0  0  0  0
    2.8714    2.8832   -1.3515 N   0  0  0  0  0  0  0  0  0  0  0  0
    1.5662    2.5109   -1.0509 C   0  0  0  0  0  0  0  0  0  0  0  0
    0.8498    3.1400   -0.5313 H   0  0  0  0  0  0  0  0  0  0  0  0
    0.4797   -0.1941    0.9544 C   0  0  0  0  0  0  0  0  0  0  0  0
    1.6484   -0.3050    1.3008 O   0  0  0  0  0  0  0  0  0  0  0  0
   -0.4092    0.4790    1.7747 N   0  0  0  0  0  0  0  0  0  0  0  0
   -1.3877    0.4444    1.5109 H   0  0  0  0  0  0  0  0  0  0  0  0
   -0.0566    0.9342    3.1139 C   0  0  0  0  0  0  0  0  0  0  0  0
    0.8002    1.6153    3.0740 H   0  0  0  0  0  0  0  0  0  0  0  0
   -0.8981    1.4669    3.5667 H   0  0  0  0  0  0  0  0  0  0  0  0
    0.2011    0.0823    3.7519 H   0  0  0  0  0  0  0  0  0  0  0  0
  1  2  1  0  0  0  0
  2  3  1  0  0  0  0
  2  4  1  0  0  0  0
  2  5  1  0  0  0  0
  5  6  2  0  0  0  0
  5  7  1  0  0  0  0
  7  8  1  0  0  0  0
  7  9  1  0  0  0  0
  9 10  1  0  0  0  0
  9 11  1  0  0  0  0
  9 22  1  0  0  0  0
 11 12  1  0  0  0  0
 11 13  1  0  0  0  0
 11 14  1  0  0  0  0
 14 15  1  0  0  0  0
 14 20  2  0  0  0  0
 15 16  1  0  0  0  0
 15 17  1  0  0  0  0
 17 18  1  0  0  0  0
 17 19  2  0  0  0  0
 19 20  1  0  0  0  0
 20 21  1  0  0  0  0
 22 23  2  0  0  0  0
 22 24  1  0  0  0  0
 24 25  1  0  0  0  0
 24 26  1  0  0  0  0
 26 27  1  0  0  0  0
 26 28  1  0  0  0  0
 26 29  1  0  0  0  0
M  END
$$$$

  -OEChem-03222214043D

 29 29  0     1  0  0  0  0  0999 V2000
   -3.0709   -3.9879    0.6471 H   0  0  0  0  0  0  0  0  0  0  0  0
   -2.9932   -3.0712    0.0553 C   0  0  0  0  0  0  0  0  0  0  0  0
   -3.7641   -2.3723    0.3878 H   0  0  0  0  0  0  0  0  0  0  0  0
   -3.1605   -3.3178   -0.9957 H   0  0  0  0  0  0  0  0  0  0  0  0
   -1.6194   -2.4526    0.2319 C   0  0  0  0  0  0  0  0  0  0  0  0
   -0.8183   -2.9667    0.9895 O   0  0  0  0  0  0  0  0  0  0  0  0
   -1.2854   -1.3126   -0.4732 N   0  0  0  0  0  0  0  0  0  0  0  0
   -1.9691   -0.9748   -1.1436 H   0  0  0  0  0  0  0  0  0  0  0  0
    0.0447   -0.6712   -0.4366 C   0  0  1  0  0  0  0  0  0  0  0  0
    0.7942   -1.3955   -0.7742 H   0  0  0  0  0  0  0  0  0  0  0  0
    0.0103    0.4992   -1.4357 C   0  0  0  0  0  0  0  0  0  0  0  0
   -0.2394    0.1269   -2.4341 H   0  0  0  0  0  0  0  0  0  0  0  0
   -0.7782    1.1974   -1.1358 H   0  0  0  0  0  0  0  0  0  0  0  0
    1.3132    1.2517   -1.5058 C   0  0  0  0  0  0  0  0  0  0  0  0
    2.3822    1.0016   -2.3373 N   0  0  0  0  0  0  0  0  0  0  0  0
    2.4882    0.2072   -2.9641 H   0  0  0  0  0  0  0  0  0  0  0  0
    3.3361    1.9800   -2.1264 C   0  0  0  0  0  0  0  0  0  0  0  0
    4.2975    2.0326   -2.6293 H   0  0  0  0  0  0  0  0  0  0  0  0
    2.9105    2.8445   -1.2376 N   0  0  0  0  0  0  0  0  0  0  0  0
    1.6556    2.3994   -0.8368 C   0  0  0  0  0  0  0  0  0  0  0  0
    1.0252    2.9033   -0.1102 H   0  0  0  0  0  0  0  0  0  0  0  0
    0.4789   -0.2031    0.9728 C   0  0  0  0  0  0  0  0  0  0  0  0
    1.6459   -0.3094    1.3254 O   0  0  0  0  0  0  0  0  0  0  0  0
   -0.4141    0.4711    1.7880 N   0  0  0  0  0  0  0  0  0  0  0  0
   -1.3917    0.4312    1.5217 H   0  0  0  0  0  0  0  0  0  0  0  0
   -0.0691    0.9242    3.1298 C   0  0  0  0  0  0  0  0  0  0  0  0
    0.7879    1.6055    3.0956 H   0  0  0  0  0  0  0  0  0  0  0  0
   -0.9130    1.4562    3.5791 H   0  0  0  0  0  0  0  0  0  0  0  0
    0.1848    0.0711    3.7679 H   0  0  0  0  0  0  0  0  0  0  0  0
  1  2  1  0  0  0  0
  2  3  1  0  0  0  0
  2  4  1  0  0  0  0
  2  5  1  0  0  0  0
  5  6  2  0  0  0  0
  5  7  1  0  0  0  0
  7  8  1  0  0  0  0
  7  9  1  0  0  0  0
  9 10  1  0  0  0  0
  9 11  1  0  0  0  0
  9 22  1  0  0  0  0
 11 12  1  0  0  0  0
 11 13  1  0  0  0  0
 11 14  1  0  0  0  0
 14 15  1  0  0  0  0
 14 20  2  0  0  0  0
 15 16  1  0  0  0  0
 15 17  1  0  0  0  0
 17 18  1  0  0  0  0
 17 19  2  0  0  0  0
 19 20  1  0  0  0  0
 20 21  1  0  0  0  0
 22 23  2  0  0  0  0
 22 24  1  0  0  0  0
 24 25  1  0  0  0  0
 24 26  1  0  0  0  0
 26 27  1  0  0  0  0
 26 28  1  0  0  0  0
 26 29  1  0  0  0  0
M  END
$$$$

  -OEChem-03222214043D

 29 29  0     1  0  0  0  0  0999 V2000
   -3.0819   -3.9786    0.6369 H   0  0  0  0  0  0  0  0  0  0  0  0
   -2.9968   -3.0584    0.0517 C   0  0  0  0  0  0  0  0  0  0  0  0
   -3.7646   -2.3568    0.3862 H   0  0  0  0  0  0  0  0  0  0  0  0
   -3.1622   -3.2967   -1.0017 H   0  0  0  0  0  0  0  0  0  0  0  0
   -1.6199   -2.4493    0.2383 C   0  0  0  0  0  0  0  0  0  0  0  0
   -0.8297   -2.9671    1.0047 O   0  0  0  0  0  0  0  0  0  0  0  0
   -1.2738   -1.3107   -0.4638 N   0  0  0  0  0  0  0  0  0  0  0  0
   -1.9507   -0.9697   -1.1392 H   0  0  0  0  0  0  0  0  0  0  0  0
    0.0598   -0.6763   -0.4195 C   0  0  1  0  0  0  0  0  0  0  0  0
    0.8094   -1.4031   -0.7515 H   0  0  0  0  0  0  0  0  0  0  0  0
    0.0334    0.4944   -1.4212 C   0  0  0  0  0  0  0  0  0  0  0  0
   -0.2203    0.1179   -2.4169 H   0  0  0  0  0  0  0  0  0  0  0  0
   -0.7546    1.1937   -1.1230 H   0  0  0  0  0  0  0  0  0  0  0  0
    1.3311    1.2585   -1.5046 C   0  0  0  0  0  0  0  0  0  0  0  0
    2.2662    1.1983   -2.5151 N   0  0  0  0  0  0  0  0  0  0  0  0
    2.2632    0.5563   -3.3044 H   0  0  0  0  0  0  0  0  0  0  0  0
    3.2531    2.1311   -2.2552 C   0  0  0  0  0  0  0  0  0  0  0  0
    4.1307    2.3007   -2.8725 H   0  0  0  0  0  0  0  0  0  0  0  0
    2.9734    2.7918   -1.1590 N   0  0  0  0  0  0  0  0  0  0  0  0
    1.7830    2.2569   -0.6773 C   0  0  0  0  0  0  0  0  0  0  0  0
    1.2692    2.6017    0.2154 H   0  0  0  0  0  0  0  0  0  0  0  0
    0.4775   -0.2156    0.9967 C   0  0  0  0  0  0  0  0  0  0  0  0
    1.6402   -0.3211    1.3625 O   0  0  0  0  0  0  0  0  0  0  0  0
   -0.4246    0.4586    1.8017 N   0  0  0  0  0  0  0  0  0  0  0  0
   -1.3990    0.4143    1.5243 H   0  0  0  0  0  0  0  0  0  0  0  0
   -0.0985    0.8971    3.1530 C   0  0  0  0  0  0  0  0  0  0  0  0
    0.7558    1.5822    3.1378 H   0  0  0  0  0  0  0  0  0  0  0  0
   -0.9502    1.4198    3.5981 H   0  0  0  0  0  0  0  0  0  0  0  0
    0.1513    0.0374    3.7839 H   0  0  0  0  0  0  0  0  0  0  0  0
  1  2  1  0  0  0  0
  2  3  1  0  0  0  0
  2  4  1  0  0  0  0
  2  5  1  0  0  0  0
  5  6  2  0  0  0  0
  5  7  1  0  0  0  0
  7  8  1  0  0  0  0
  7  9  1  0  0  0  0
  9 10  1  0  0  0  0
  9 11  1  0  0  0  0
  9 22  1  0  0  0  0
 11 12  1  0  0  0  0
 11 13  1  0  0  0  0
 11 14  1  0  0  0  0
 14 15  1  0  0  0  0
 14 20  2  0  0  0  0
 15 16  1  0  0  0  0
 15 17  1  0  0  0  0
 17 18  1  0  0  0  0
 17 19  2  0  0  0  0
 19 20  1  0  0  0  0
 20 21  1  0  0  0  0
 22 23  2  0  0  0  0
 22 24  1  0  0  0  0
 24 25  1  0  0  0  0
 24 26  1  0  0  0  0
 26 27  1  0  0  0  0
 26 28  1  0  0  0  0
 26 29  1  0  0  0  0
M  END
$$$$

  -OEChem-03222214043D

 29 29  0     1  0  0  0  0  0999 V2000
   -3.0914   -3.9656    0.6241 H   0  0  0  0  0  0  0  0  0  0  0  0
   -2.9964   -3.0440    0.0425 C   0  0  0  0  0  0  0  0  0  0  0  0
   -3.7634   -2.3396    0.3730 H   0  0  0  0  0  0  0  0  0  0  0  0
   -3.1539   -3.2782   -1.0130 H   0  0  0  0  0  0  0  0  0  0  0  0
   -1.6178   -2.4429    0.2417 C   0  0  0  0  0  0  0  0  0  0  0  0
   -0.8370   -2.9683    1.0126 O   0  0  0  0  0  0  0  0  0  0  0  0
   -1.2590   -1.3043   -0.4545 N   0  0  0  0  0  0  0  0  0  0  0  0
   -1.9271   -0.9589   -1.1364 H   0  0  0  0  0  0  0  0  0  0  0  0
    0.0780   -0.6771   -0.3961 C   0  0  1  0  0  0  0  0  0  0  0  0
    0.8290   -1.4063   -0.7200 H   0  0  0  0  0  0  0  0  0  0  0  0
    0.0632    0.4913   -1.4042 C   0  0  0  0  0  0  0  0  0  0  0  0
   -0.1837    0.0991   -2.3957 H   0  0  0  0  0  0  0  0  0  0  0  0
   -0.7308    1.1897   -1.1205 H   0  0  0  0  0  0  0  0  0  0  0  0
    1.3510    1.2752   -1.5056 C   0  0  0  0  0  0  0  0  0  0  0  0
    2.1189    1.4273   -2.6406 N   0  0  0  0  0  0  0  0  0  0  0  0
    1.9697    0.9695   -3.5365 H   0  0  0  0  0  0  0  0  0  0  0  0
    3.1603    2.2909   -2.3580 C   0  0  0  0  0  0  0  0  0  0  0  0
    3.9354    2.5864   -3.0594 H   0  0  0  0  0  0  0  0  0  0  0  0
    3.0738    2.7114   -1.1213 N   0  0  0  0  0  0  0  0  0  0  0  0
    1.9558    2.0877   -0.5761 C   0  0  0  0  0  0  0  0  0  0  0  0
    1.5984    2.2507    0.4362 H   0  0  0  0  0  0  0  0  0  0  0  0
    0.4713   -0.2272    1.0305 C   0  0  0  0  0  0  0  0  0  0  0  0
    1.6240   -0.3501    1.4216 O   0  0  0  0  0  0  0  0  0  0  0  0
   -0.4418    0.4455    1.8243 N   0  0  0  0  0  0  0  0  0  0  0  0
   -1.4103    0.4147    1.5252 H   0  0  0  0  0  0  0  0  0  0  0  0
   -0.1423    0.8605    3.1891 C   0  0  0  0  0  0  0  0  0  0  0  0
    0.7136    1.5438    3.2031 H   0  0  0  0  0  0  0  0  0  0  0  0
   -1.0023    1.3775    3.6253 H   0  0  0  0  0  0  0  0  0  0  0  0
    0.0922   -0.0107    3.8100 H   0  0  0  0  0  0  0  0  0  0  0  0
  1  2  1  0  0  0  0
  2  3  1  0  0  0  0
  2  4  1  0  0  0  0
  2  5  1  0  0  0  0
  5  6  2  0  0  0  0
  5  7  1  0  0  0  0
  7  8  1  0  0  0  0
  7  9  1  0  0  0  0
  9 10  1  0  0  0  0
  9 11  1  0  0  0  0
  9 22  1  0  0  0  0
 11 12  1  0  0  0  0
 11 13  1  0  0  0  0
 11 14  1  0  0  0  0
 14 15  1  0  0  0  0
 14 20  2  0  0  0  0
 15 16  1  0  0  0  0
 15 17  1  0  0  0  0
 17 18  1  0  0  0  0
 17 19  2  0  0  0  0
 19 20  1  0  0  0  0
 20 21  1  0  0  0  0
 22 23  2  0  0  0  0
 22 24  1  0  0  0  0
 24 25  1  0  0  0  0
 24 26  1  0  0  0  0
 26 27  1  0  0  0  0
 26 28  1  0  0  0  0
 26 29  1  0  0  0  0
M  END
$$$$

  -OEChem-03222214043D

 29 29  0     1  0  0  0  0  0999 V2000
   -3.1190   -3.9352    0.6019 H   0  0  0  0  0  0  0  0  0  0  0  0
   -2.9985   -3.0196    0.0155 C   0  0  0  0  0  0  0  0  0  0  0  0
   -3.7644   -2.3033    0.3218 H   0  0  0  0  0  0  0  0  0  0  0  0
   -3.1337   -3.2607   -1.0415 H   0  0  0  0  0  0  0  0  0  0  0  0
   -1.6175   -2.4339    0.2434 C   0  0  0  0  0  0  0  0  0  0  0  0
   -0.8565   -2.9723    1.0248 O   0  0  0  0  0  0  0  0  0  0  0  0
   -1.2340   -1.2970   -0.4427 N   0  0  0  0  0  0  0  0  0  0  0  0
   -1.8883   -0.9412   -1.1326 H   0  0  0  0  0  0  0  0  0  0  0  0
    0.1074   -0.6809   -0.3587 C   0  0  1  0  0  0  0  0  0  0  0  0
    0.8615   -1.4127   -0.6693 H   0  0  0  0  0  0  0  0  0  0  0  0
    0.1037    0.4839   -1.3742 C   0  0  0  0  0  0  0  0  0  0  0  0
   -0.1255    0.0676   -2.3602 H   0  0  0  0  0  0  0  0  0  0  0  0
   -0.7047    1.1753   -1.1152 H   0  0  0  0  0  0  0  0  0  0  0  0
    1.3744    1.2976   -1.4990 C   0  0  0  0  0  0  0  0  0  0  0  0
    1.9431    1.6752   -2.6982 N   0  0  0  0  0  0  0  0  0  0  0  0
    1.6217    1.4123   -3.6269 H   0  0  0  0  0  0  0  0  0  0  0  0
    3.0506    2.4596   -2.4411 C   0  0  0  0  0  0  0  0  0  0  0  0
    3.7012    2.8911   -3.1964 H   0  0  0  0  0  0  0  0  0  0  0  0
    3.1995    2.6145   -1.1508 N   0  0  0  0  0  0  0  0  0  0  0  0
    2.1682    1.8993   -0.5491 C   0  0  0  0  0  0  0  0  0  0  0  0
    2.0059    1.8666    0.5229 H   0  0  0  0  0  0  0  0  0  0  0  0
    0.4690   -0.2404    1.0785 C   0  0  0  0  0  0  0  0  0  0  0  0
    1.5998   -0.4135    1.5122 O   0  0  0  0  0  0  0  0  0  0  0  0
   -0.4564    0.4359    1.8544 N   0  0  0  0  0  0  0  0  0  0  0  0
   -1.4129    0.4403    1.5179 H   0  0  0  0  0  0  0  0  0  0  0  0
   -0.1975    0.8148    3.2380 C   0  0  0  0  0  0  0  0  0  0  0  0
    0.6756    1.4732    3.2990 H   0  0  0  0  0  0  0  0  0  0  0  0
   -1.0586    1.3470    3.6530 H   0  0  0  0  0  0  0  0  0  0  0  0
   -0.0107   -0.0752    3.8481 H   0  0  0  0  0  0  0  0  0  0  0  0
  1  2  1  0  0  0  0
  2  3  1  0  0  0  0
  2  4  1  0  0  0  0
  2  5  1  0  0  0  0
  5  6  2  0  0  0  0
  5  7  1  0  0  0  0
  7  8  1  0  0  0  0
  7  9  1  0  0  0  0
  9 10  1  0  0  0  0
  9 11  1  0  0  0  0
  9 22  1  0  0  0  0
 11 12  1  0  0  0  0
 11 13  1  0  0  0  0
 11 14  1  0  0  0  0
 14 15  1  0  0  0  0
 14 20  2  0  0  0  0
 15 16  1  0  0  0  0
 15 17  1  0  0  0  0
 17 18  1  0  0  0  0
 17 19  2  0  0  0  0
 19 20  1  0  0  0  0
 20 21  1  0  0  0  0
 22 23  2  0  0  0  0
 22 24  1  0  0  0  0
 24 25  1  0  0  0  0
 24 26  1  0  0  0  0
 26 27  1  0  0  0  0
 26 28  1  0  0  0  0
 26 29  1  0  0  0  0
M  END
$$$$

  -OEChem-03222214043D

 29 29  0     1  0  0  0  0  0999 V2000
   -3.1372   -3.9025    0.5898 H   0  0  0  0  0  0  0  0  0  0  0  0
   -2.9976   -2.9902    0.0027 C   0  0  0  0  0  0  0  0  0  0  0  0
   -3.7590   -2.2639    0.2963 H   0  0  0  0  0  0  0  0  0  0  0  0
   -3.1204   -3.2327   -1.0555 H   0  0  0  0  0  0  0  0  0  0  0  0
   -1.6129   -2.4209    0.2486 C   0  0  0  0  0  0  0  0  0  0  0  0
   -0.8682   -2.9709    1.0375 O   0  0  0  0  0  0  0  0  0  0  0  0
   -1.2074   -1.2891   -0.4338 N   0  0  0  0  0  0  0  0  0  0  0  0
   -1.8483   -0.9287   -1.1335 H   0  0  0  0  0  0  0  0  0  0  0  0
    0.1379   -0.6831   -0.3290 C   0  0  1  0  0  0  0  0  0  0  0  0
    0.8959   -1.4151   -0.6295 H   0  0  0  0  0  0  0  0  0  0  0  0
    0.1421    0.4854   -1.3418 C   0  0  0  0  0  0  0  0  0  0  0  0
   -0.0746    0.0585   -2.3262 H   0  0  0  0  0  0  0  0  0  0  0  0
   -0.6763    1.1692   -1.0938 H   0  0  0  0  0  0  0  0  0  0  0  0
    1.3996    1.3209   -1.4833 C   0  0  0  0  0  0  0  0  0  0  0  0
    1.7620    1.9379   -2.6640 N   0  0  0  0  0  0  0  0  0  0  0  0
    1.2543    1.8976   -3.5445 H   0  0  0  0  0  0  0  0  0  0  0  0
    2.9467    2.6204   -2.4725 C   0  0  0  0  0  0  0  0  0  0  0  0
    3.4677    3.1978   -3.2309 H   0  0  0  0  0  0  0  0  0  0  0  0
    3.3507    2.4725   -1.2380 N   0  0  0  0  0  0  0  0  0  0  0  0
    2.4079    1.6639   -0.6096 C   0  0  0  0  0  0  0  0  0  0  0  0
    2.4764    1.3804    0.4329 H   0  0  0  0  0  0  0  0  0  0  0  0
    0.4642   -0.2461    1.1188 C   0  0  0  0  0  0  0  0  0  0  0  0
    1.5595   -0.4875    1.6071 O   0  0  0  0  0  0  0  0  0  0  0  0
   -0.4757    0.4360    1.8724 N   0  0  0  0  0  0  0  0  0  0  0  0
   -1.4157    0.4790    1.4947 H   0  0  0  0  0  0  0  0  0  0  0  0
   -0.2677    0.7721    3.2756 C   0  0  0  0  0  0  0  0  0  0  0  0
    0.6262    1.3940    3.3922 H   0  0  0  0  0  0  0  0  0  0  0  0
   -1.1262    1.3284    3.6635 H   0  0  0  0  0  0  0  0  0  0  0  0
   -0.1439   -0.1378    3.8722 H   0  0  0  0  0  0  0  0  0  0  0  0
  1  2  1  0  0  0  0
  2  3  1  0  0  0  0
  2  4  1  0  0  0  0
  2  5  1  0  0  0  0
  5  6  2  0  0  0  0
  5  7  1  0  0  0  0
  7  8  1  0  0  0  0
  7  9  1  0  0  0  0
  9 10  1  0  0  0  0
  9 11  1  0  0  0  0
  9 22  1  0  0  0  0
 11 12  1  0  0  0  0
 11 13  1  0  0  0  0
 11 14  1  0  0  0  0
 14 15  1  0  0  0  0
 14 20  2  0  0  0  0
 15 16  1  0  0  0  0
 15 17  1  0  0  0  0
 17 18  1  0  0  0  0
 17 19  2  0  0  0  0
 19 20  1  0  0  0  0
 20 21  1  0  0  0  0
 22 23  2  0  0  0  0
 22 24  1  0  0  0  0
 24 25  1  0  0  0  0
 24 26  1  0  0  0  0
 26 27  1  0  0  0  0
 26 28  1  0  0  0  0
 26 29  1  0  0  0  0
M  END
$$$$

  -OEChem-03222214043D

 29 29  0     1  0  0  0  0  0999 V2000
   -3.1459   -3.8882    0.5988 H   0  0  0  0  0  0  0  0  0  0  0  0
   -2.9982   -2.9795    0.0079 C   0  0  0  0  0  0  0  0  0  0  0  0
   -3.7593   -2.2488    0.2914 H   0  0  0  0  0  0  0  0  0  0  0  0
   -3.1136   -3.2271   -1.0499 H   0  0  0  0  0  0  0  0  0  0  0  0
   -1.6137   -2.4132    0.2614 C   0  0  0  0  0  0  0  0  0  0  0  0
   -0.8790   -2.9586    1.0626 O   0  0  0  0  0  0  0  0  0  0  0  0
   -1.1977   -1.2900   -0.4287 N   0  0  0  0  0  0  0  0  0  0  0  0
   -1.8254   -0.9444   -1.1477 H   0  0  0  0  0  0  0  0  0  0  0  0
    0.1508   -0.6911   -0.3235 C   0  0  1  0  0  0  0  0  0  0  0  0
    0.9104   -1.4209   -0.6248 H   0  0  0  0  0  0  0  0  0  0  0  0
    0.1504    0.4919   -1.3177 C   0  0  0  0  0  0  0  0  0  0  0  0
   -0.0794    0.0874   -2.3086 H   0  0  0  0  0  0  0  0  0  0  0  0
   -0.6604    1.1748   -1.0438 H   0  0  0  0  0  0  0  0  0  0  0  0
    1.4093    1.3238   -1.4564 C   0  0  0  0  0  0  0  0  0  0  0  0
    1.6175    2.1947   -2.5070 N   0  0  0  0  0  0  0  0  0  0  0  0
    0.9612    2.4016   -3.2561 H   0  0  0  0  0  0  0  0  0  0  0  0
    2.8738    2.7546   -2.3872 C   0  0  0  0  0  0  0  0  0  0  0  0
    3.3020    3.4860   -3.0664 H   0  0  0  0  0  0  0  0  0  0  0  0
    3.4771    2.2726   -1.3325 N   0  0  0  0  0  0  0  0  0  0  0  0
    2.5911    1.3704   -0.7502 C   0  0  0  0  0  0  0  0  0  0  0  0
    2.8379    0.7843    0.1256 H   0  0  0  0  0  0  0  0  0  0  0  0
    0.4626   -0.2468    1.1276 C   0  0  0  0  0  0  0  0  0  0  0  0
    1.5452   -0.4949    1.6394 O   0  0  0  0  0  0  0  0  0  0  0  0
   -0.4852    0.4435    1.8641 N   0  0  0  0  0  0  0  0  0  0  0  0
   -1.4175    0.4940    1.4694 H   0  0  0  0  0  0  0  0  0  0  0  0
   -0.2998    0.7794    3.2705 C   0  0  0  0  0  0  0  0  0  0  0  0
    0.5943    1.3981    3.4020 H   0  0  0  0  0  0  0  0  0  0  0  0
   -1.1630    1.3386    3.6438 H   0  0  0  0  0  0  0  0  0  0  0  0
   -0.1892   -0.1309    3.8695 H   0  0  0  0  0  0  0  0  0  0  0  0
  1  2  1  0  0  0  0
  2  3  1  0  0  0  0
  2  4  1  0  0  0  0
  2  5  1  0  0  0  0
  5  6  2  0  0  0  0
  5  7  1  0  0  0  0
  7  8  1  0  0  0  0
  7  9  1  0  0  0  0
  9 10  1  0  0  0  0
  9 11  1  0  0  0  0
  9 22  1  0  0  0  0
 11 12  1  0  0  0  0
 11 13  1  0  0  0  0
 11 14  1  0  0  0  0
 14 15  1  0  0  0  0
 14 20  2  0  0  0  0
 15 16  1  0  0  0  0
 15 17  1  0  0  0  0
 17 18  1  0  0  0  0
 17 19  2  0  0  0  0
 19 20  1  0  0  0  0
 20 21  1  0  0  0  0
 22 23  2  0  0  0  0
 22 24  1  0  0  0  0
 24 25  1  0  0  0  0
 24 26  1  0  0  0  0
 26 27  1  0  0  0  0
 26 28  1  0  0  0  0
 26 29  1  0  0  0  0
M  END
$$$$

  -OEChem-03222214043D

 29 29  0     1  0  0  0  0  0999 V2000
   -3.0798   -3.9863    0.5955 H   0  0  0  0  0  0  0  0  0  0  0  0
   -2.9860   -3.0637    0.0151 C   0  0  0  0  0  0  0  0  0  0  0  0
   -3.7855   -2.3799    0.3099 H   0  0  0  0  0  0  0  0  0  0  0  0
   -3.0920   -3.3054   -1.0452 H   0  0  0  0  0  0  0  0  0  0  0  0
   -1.6345   -2.4233    0.2710 C   0  0  0  0  0  0  0  0  0  0  0  0
   -0.8859   -2.9075    1.0989 O   0  0  0  0  0  0  0  0  0  0  0  0
   -1.2658   -1.2954   -0.4374 N   0  0  0  0  0  0  0  0  0  0  0  0
   -1.8935   -1.0074   -1.1814 H   0  0  0  0  0  0  0  0  0  0  0  0
    0.0733   -0.6737   -0.3720 C   0  0  1  0  0  0  0  0  0  0  0  0
    0.8140   -1.4144   -0.6924 H   0  0  0  0  0  0  0  0  0  0  0  0
    0.0767    0.5109   -1.3600 C   0  0  0  0  0  0  0  0  0  0  0  0
   -0.3926    0.1891   -2.2949 H   0  0  0  0  0  0  0  0  0  0  0  0
   -0.5318    1.3213   -0.9460 H   0  0  0  0  0  0  0  0  0  0  0  0
    1.4401    1.0619   -1.7125 C   0  0  0  0  0  0  0  0  0  0  0  0
    1.6627    2.1162   -2.5732 N   0  0  0  0  0  0  0  0  0  0  0  0
    0.9521    2.6695   -3.0460 H   0  0  0  0  0  0  0  0  0  0  0  0
    3.0250    2.3132   -2.6917 C   0  0  0  0  0  0  0  0  0  0  0  0
    3.4963    3.0795   -3.3004 H   0  0  0  0  0  0  0  0  0  0  0  0
    3.6700    1.4366   -1.9654 N   0  0  0  0  0  0  0  0  0  0  0  0
    2.7013    0.6507   -1.3473 C   0  0  0  0  0  0  0  0  0  0  0  0
    2.9250   -0.1846   -0.6914 H   0  0  0  0  0  0  0  0  0  0  0  0
    0.4602   -0.2039    1.0520 C   0  0  0  0  0  0  0  0  0  0  0  0
    1.6078   -0.3260    1.4574 O   0  0  0  0  0  0  0  0  0  0  0  0
   -0.4570    0.4851    1.8274 N   0  0  0  0  0  0  0  0  0  0  0  0
   -1.4237    0.4408    1.5240 H   0  0  0  0  0  0  0  0  0  0  0  0
   -0.1734    0.8989    3.1960 C   0  0  0  0  0  0  0  0  0  0  0  0
    0.6907    1.5714    3.2216 H   0  0  0  0  0  0  0  0  0  0  0  0
   -1.0330    1.4274    3.6188 H   0  0  0  0  0  0  0  0  0  0  0  0
    0.0408    0.0259    3.8219 H   0  0  0  0  0  0  0  0  0  0  0  0
  1  2  1  0  0  0  0
  2  3  1  0  0  0  0
  2  4  1  0  0  0  0
  2  5  1  0  0  0  0
  5  6  2  0  0  0  0
  5  7  1  0  0  0  0
  7  8  1  0  0  0  0
  7  9  1  0  0  0  0
  9 10  1  0  0  0  0
  9 11  1  0  0  0  0
  9 22  1  0  0  0  0
 11 12  1  0  0  0  0
 11 13  1  0  0  0  0
 11 14  1  0  0  0  0
 14 15  1  0  0  0  0
 14 20  2  0  0  0  0
 15 16  1  0  0  0  0
 15 17  1  0  0  0  0
 17 18  1  0  0  0  0
 17 19  2  0  0  0  0
 19 20  1  0  0  0  0
 20 21  1  0  0  0  0
 22 23  2  0  0  0  0
 22 24  1  0  0  0  0
 24 25  1  0  0  0  0
 24 26  1  0  0  0  0
 26 27  1  0  0  0  0
 26 28  1  0  0  0  0
 26 29  1  0  0  0  0
M  END
$$$$

  -OEChem-03222214043D

 29 29  0     1  0  0  0  0  0999 V2000
   -3.0971   -3.9875    0.6173 H   0  0  0  0  0  0  0  0  0  0  0  0
   -2.9983   -3.0822    0.0112 C   0  0  0  0  0  0  0  0  0  0  0  0
   -3.8020   -2.3917    0.2776 H   0  0  0  0  0  0  0  0  0  0  0  0
   -3.0927   -3.3545   -1.0426 H   0  0  0  0  0  0  0  0  0  0  0  0
   -1.6498   -2.4334    0.2611 C   0  0  0  0  0  0  0  0  0  0  0  0
   -0.8931   -2.9132    1.0842 O   0  0  0  0  0  0  0  0  0  0  0  0
   -1.2914   -1.3013   -0.4459 N   0  0  0  0  0  0  0  0  0  0  0  0
   -1.9235   -1.0156   -1.1873 H   0  0  0  0  0  0  0  0  0  0  0  0
    0.0469   -0.6776   -0.3873 C   0  0  1  0  0  0  0  0  0  0  0  0
    0.7787   -1.4251   -0.7124 H   0  0  0  0  0  0  0  0  0  0  0  0
    0.0552    0.5038   -1.3777 C   0  0  0  0  0  0  0  0  0  0  0  0
   -0.4167    0.1904   -2.3142 H   0  0  0  0  0  0  0  0  0  0  0  0
   -0.5461    1.3180   -0.9603 H   0  0  0  0  0  0  0  0  0  0  0  0
    1.4271    1.0392   -1.7187 C   0  0  0  0  0  0  0  0  0  0  0  0
    1.6801    2.2477   -2.3322 N   0  0  0  0  0  0  0  0  0  0  0  0
    0.9878    2.9345   -2.6214 H   0  0  0  0  0  0  0  0  0  0  0  0
    3.0463    2.3900   -2.4841 C   0  0  0  0  0  0  0  0  0  0  0  0
    3.5398    3.2435   -2.9401 H   0  0  0  0  0  0  0  0  0  0  0  0
    3.6639    1.3413   -2.0027 N   0  0  0  0  0  0  0  0  0  0  0  0
    2.6737    0.4982   -1.5065 C   0  0  0  0  0  0  0  0  0  0  0  0
    2.8680   -0.4584   -1.0310 H   0  0  0  0  0  0  0  0  0  0  0  0
    0.4631   -0.2070    1.0266 C   0  0  0  0  0  0  0  0  0  0  0  0
    1.6249   -0.3125    1.3948 O   0  0  0  0  0  0  0  0  0  0  0  0
   -0.4362    0.4835    1.8208 N   0  0  0  0  0  0  0  0  0  0  0  0
   -1.4108    0.4313    1.5449 H   0  0  0  0  0  0  0  0  0  0  0  0
   -0.1153    0.9175    3.1749 C   0  0  0  0  0  0  0  0  0  0  0  0
    0.7509    1.5876    3.1678 H   0  0  0  0  0  0  0  0  0  0  0  0
   -0.9624    1.4553    3.6108 H   0  0  0  0  0  0  0  0  0  0  0  0
    0.1126    0.0540    3.8089 H   0  0  0  0  0  0  0  0  0  0  0  0
  1  2  1  0  0  0  0
  2  3  1  0  0  0  0
  2  4  1  0  0  0  0
  2  5  1  0  0  0  0
  5  6  2  0  0  0  0
  5  7  1  0  0  0  0
  7  8  1  0  0  0  0
  7  9  1  0  0  0  0
  9 10  1  0  0  0  0
  9 11  1  0  0  0  0
  9 22  1  0  0  0  0
 11 12  1  0  0  0  0
 11 13  1  0  0  0  0
 11 14  1  0  0  0  0
 14 15  1  0  0  0  0
 14 20  2  0  0  0  0
 15 16  1  0  0  0  0
 15 17  1  0  0  0  0
 17 18  1  0  0  0  0
 17 19  2  0  0  0  0
 19 20  1  0  0  0  0
 20 21  1  0  0  0  0
 22 23  2  0  0  0  0
 22 24  1  0  0  0  0
 24 25  1  0  0  0  0
 24 26  1  0  0  0  0
 26 27  1  0  0  0  0
 26 28  1  0  0  0  0
 26 29  1  0  0  0  0
M  END
$$$$

  -OEChem-03222214043D

 29 29  0     1  0  0  0  0  0999 V2000
   -3.0872   -4.0049    0.6112 H   0  0  0  0  0  0  0  0  0  0  0  0
   -2.9960   -3.0982    0.0060 C   0  0  0  0  0  0  0  0  0  0  0  0
   -3.8075   -2.4159    0.2700 H   0  0  0  0  0  0  0  0  0  0  0  0
   -3.0842   -3.3713   -1.0483 H   0  0  0  0  0  0  0  0  0  0  0  0
   -1.6556   -2.4350    0.2608 C   0  0  0  0  0  0  0  0  0  0  0  0
   -0.8981   -2.9039    1.0894 O   0  0  0  0  0  0  0  0  0  0  0  0
   -1.3061   -1.3013   -0.4477 N   0  0  0  0  0  0  0  0  0  0  0  0
   -1.9387   -1.0244   -1.1920 H   0  0  0  0  0  0  0  0  0  0  0  0
    0.0308   -0.6749   -0.3978 C   0  0  1  0  0  0  0  0  0  0  0  0
    0.7583   -1.4246   -0.7265 H   0  0  0  0  0  0  0  0  0  0  0  0
    0.0358    0.5065   -1.3875 C   0  0  0  0  0  0  0  0  0  0  0  0
   -0.4399    0.2007   -2.3245 H   0  0  0  0  0  0  0  0  0  0  0  0
   -0.5604    1.3219   -0.9652 H   0  0  0  0  0  0  0  0  0  0  0  0
    1.4131    1.0291   -1.7220 C   0  0  0  0  0  0  0  0  0  0  0  0
    1.7236    2.3291   -2.0590 N   0  0  0  0  0  0  0  0  0  0  0  0
    1.0741    3.1098   -2.1165 H   0  0  0  0  0  0  0  0  0  0  0  0
    3.0853    2.4146   -2.2794 C   0  0  0  0  0  0  0  0  0  0  0  0
    3.6173    3.3177   -2.5647 H   0  0  0  0  0  0  0  0  0  0  0  0
    3.6455    1.2449   -2.1011 N   0  0  0  0  0  0  0  0  0  0  0  0
    2.6232    0.3770   -1.7300 C   0  0  0  0  0  0  0  0  0  0  0  0
    2.7684   -0.6724   -1.4919 H   0  0  0  0  0  0  0  0  0  0  0  0
    0.4652   -0.2021    1.0092 C   0  0  0  0  0  0  0  0  0  0  0  0
    1.6359   -0.2900    1.3531 O   0  0  0  0  0  0  0  0  0  0  0  0
   -0.4252    0.4884    1.8136 N   0  0  0  0  0  0  0  0  0  0  0  0
   -1.4044    0.4169    1.5594 H   0  0  0  0  0  0  0  0  0  0  0  0
   -0.0840    0.9340    3.1591 C   0  0  0  0  0  0  0  0  0  0  0  0
    0.7814    1.6049    3.1332 H   0  0  0  0  0  0  0  0  0  0  0  0
   -0.9246    1.4751    3.6037 H   0  0  0  0  0  0  0  0  0  0  0  0
    0.1547    0.0762    3.7966 H   0  0  0  0  0  0  0  0  0  0  0  0
  1  2  1  0  0  0  0
  2  3  1  0  0  0  0
  2  4  1  0  0  0  0
  2  5  1  0  0  0  0
  5  6  2  0  0  0  0
  5  7  1  0  0  0  0
  7  8  1  0  0  0  0
  7  9  1  0  0  0  0
  9 10  1  0  0  0  0
  9 11  1  0  0  0  0
  9 22  1  0  0  0  0
 11 12  1  0  0  0  0
 11 13  1  0  0  0  0
 11 14  1  0  0  0  0
 14 15  1  0  0  0  0
 14 20  2  0  0  0  0
 15 16  1  0  0  0  0
 15 17  1  0  0  0  0
 17 18  1  0  0  0  0
 17 19  2  0  0  0  0
 19 20  1  0  0  0  0
 20 21  1  0  0  0  0
 22 23  2  0  0  0  0
 22 24  1  0  0  0  0
 24 25  1  0  0  0  0
 24 26  1  0  0  0  0
 26 27  1  0  0  0  0
 26 28  1  0  0  0  0
 26 29  1  0  0  0  0
M  END
$$$$

  -OEChem-03222214043D

 29 29  0     1  0  0  0  0  0999 V2000
   -3.0473   -4.0361    0.5918 H   0  0  0  0  0  0  0  0  0  0  0  0
   -2.9836   -3.1075    0.0171 C   0  0  0  0  0  0  0  0  0  0  0  0
   -3.7965   -2.4462    0.3262 H   0  0  0  0  0  0  0  0  0  0  0  0
   -3.0965   -3.3446   -1.0435 H   0  0  0  0  0  0  0  0  0  0  0  0
   -1.6455   -2.4355    0.2618 C   0  0  0  0  0  0  0  0  0  0  0  0
   -0.8831   -2.8957    1.0908 O   0  0  0  0  0  0  0  0  0  0  0  0
   -1.3056   -1.3012   -0.4507 N   0  0  0  0  0  0  0  0  0  0  0  0
   -1.9427   -1.0299   -1.1933 H   0  0  0  0  0  0  0  0  0  0  0  0
    0.0275   -0.6657   -0.4070 C   0  0  1  0  0  0  0  0  0  0  0  0
    0.7607   -1.4097   -0.7359 H   0  0  0  0  0  0  0  0  0  0  0  0
    0.0246    0.5162   -1.3947 C   0  0  0  0  0  0  0  0  0  0  0  0
   -0.4460    0.2089   -2.3338 H   0  0  0  0  0  0  0  0  0  0  0  0
   -0.5740    1.3322   -0.9770 H   0  0  0  0  0  0  0  0  0  0  0  0
    1.4071    1.0272   -1.7172 C   0  0  0  0  0  0  0  0  0  0  0  0
    1.8056    2.3452   -1.7677 N   0  0  0  0  0  0  0  0  0  0  0  0
    1.2309    3.1589   -1.5623 H   0  0  0  0  0  0  0  0  0  0  0  0
    3.1491    2.3849   -2.0908 C   0  0  0  0  0  0  0  0  0  0  0  0
    3.7395    3.2906   -2.1970 H   0  0  0  0  0  0  0  0  0  0  0  0
    3.6102    1.1703   -2.2584 N   0  0  0  0  0  0  0  0  0  0  0  0
    2.5440    0.3135   -2.0064 C   0  0  0  0  0  0  0  0  0  0  0  0
    2.6046   -0.7698   -2.0474 H   0  0  0  0  0  0  0  0  0  0  0  0
    0.4642   -0.1862    0.9972 C   0  0  0  0  0  0  0  0  0  0  0  0
    1.6377   -0.2571    1.3359 O   0  0  0  0  0  0  0  0  0  0  0  0
   -0.4293    0.5004    1.8019 N   0  0  0  0  0  0  0  0  0  0  0  0
   -1.4088    0.4121    1.5535 H   0  0  0  0  0  0  0  0  0  0  0  0
   -0.0906    0.9406    3.1499 C   0  0  0  0  0  0  0  0  0  0  0  0
    0.7674    1.6208    3.1279 H   0  0  0  0  0  0  0  0  0  0  0  0
   -0.9365    1.4692    3.5994 H   0  0  0  0  0  0  0  0  0  0  0  0
    0.1580    0.0809    3.7812 H   0  0  0  0  0  0  0  0  0  0  0  0
  1  2  1  0  0  0  0
  2  3  1  0  0  0  0
  2  4  1  0  0  0  0
  2  5  1  0  0  0  0
  5  6  2  0  0  0  0
  5  7  1  0  0  0  0
  7  8  1  0  0  0  0
  7  9  1  0  0  0  0
  9 10  1  0  0  0  0
  9 11  1  0  0  0  0
  9 22  1  0  0  0  0
 11 12  1  0  0  0  0
 11 13  1  0  0  0  0
 11 14  1  0  0  0  0
 14 15  1  0  0  0  0
 14 20  2  0  0  0  0
 15 16  1  0  0  0  0
 15 17  1  0  0  0  0
 17 18  1  0  0  0  0
 17 19  2  0  0  0  0
 19 20  1  0  0  0  0
 20 21  1  0  0  0  0
 22 23  2  0  0  0  0
 22 24  1  0  0  0  0
 24 25  1  0  0  0  0
 24 26  1  0  0  0  0
 26 27  1  0  0  0  0
 26 28  1  0  0  0  0
 26 29  1  0  0  0  0
M  END
$$$$

  -OEChem-03222214043D

 29 29  0     1  0  0  0  0  0999 V2000
   -3.0497   -4.0205    0.6199 H   0  0  0  0  0  0  0  0  0  0  0  0
   -2.9729   -3.1092    0.0196 C   0  0  0  0  0  0  0  0  0  0  0  0
   -3.7870   -2.4355    0.2969 H   0  0  0  0  0  0  0  0  0  0  0  0
   -3.0706   -3.3761   -1.0353 H   0  0  0  0  0  0  0  0  0  0  0  0
   -1.6360   -2.4358    0.2645 C   0  0  0  0  0  0  0  0  0  0  0  0
   -0.8735   -2.8920    1.0956 O   0  0  0  0  0  0  0  0  0  0  0  0
   -1.2990   -1.3022   -0.4500 N   0  0  0  0  0  0  0  0  0  0  0  0
   -1.9349   -1.0370   -1.1959 H   0  0  0  0  0  0  0  0  0  0  0  0
    0.0317   -0.6622   -0.4083 C   0  0  1  0  0  0  0  0  0  0  0  0
    0.7721   -1.3986   -0.7394 H   0  0  0  0  0  0  0  0  0  0  0  0
    0.0208    0.5215   -1.3915 C   0  0  0  0  0  0  0  0  0  0  0  0
   -0.4407    0.2061   -2.3326 H   0  0  0  0  0  0  0  0  0  0  0  0
   -0.5835    1.3387   -0.9847 H   0  0  0  0  0  0  0  0  0  0  0  0
    1.4081    1.0197   -1.7012 C   0  0  0  0  0  0  0  0  0  0  0  0
    1.9128    2.2809   -1.4752 N   0  0  0  0  0  0  0  0  0  0  0  0
    1.4415    3.0432   -0.9937 H   0  0  0  0  0  0  0  0  0  0  0  0
    3.2186    2.3149   -1.9282 C   0  0  0  0  0  0  0  0  0  0  0  0
    3.8776    3.1761   -1.8680 H   0  0  0  0  0  0  0  0  0  0  0  0
    3.5484    1.1579   -2.4487 N   0  0  0  0  0  0  0  0  0  0  0  0
    2.4358    0.3371   -2.3004 C   0  0  0  0  0  0  0  0  0  0  0  0
    2.3855   -0.6974   -2.6264 H   0  0  0  0  0  0  0  0  0  0  0  0
    0.4645   -0.1793    0.9961 C   0  0  0  0  0  0  0  0  0  0  0  0
    1.6391   -0.2308    1.3349 O   0  0  0  0  0  0  0  0  0  0  0  0
   -0.4352    0.5044    1.7965 N   0  0  0  0  0  0  0  0  0  0  0  0
   -1.4137    0.3994    1.5505 H   0  0  0  0  0  0  0  0  0  0  0  0
   -0.1024    0.9468    3.1451 C   0  0  0  0  0  0  0  0  0  0  0  0
    0.7510    1.6326    3.1242 H   0  0  0  0  0  0  0  0  0  0  0  0
   -0.9530    1.4695    3.5926 H   0  0  0  0  0  0  0  0  0  0  0  0
    0.1510    0.0889    3.7771 H   0  0  0  0  0  0  0  0  0  0  0  0
  1  2  1  0  0  0  0
  2  3  1  0  0  0  0
  2  4  1  0  0  0  0
  2  5  1  0  0  0  0
  5  6  2  0  0  0  0
  5  7  1  0  0  0  0
  7  8  1  0  0  0  0
  7  9  1  0  0  0  0
  9 10  1  0  0  0  0
  9 11  1  0  0  0  0
  9 22  1  0  0  0  0
 11 12  1  0  0  0  0
 11 13  1  0  0  0  0
 11 14  1  0  0  0  0
 14 15  1  0  0  0  0
 14 20  2  0  0  0  0
 15 16  1  0  0  0  0
 15 17  1  0  0  0  0
 17 18  1  0  0  0  0
 17 19  2  0  0  0  0
 19 20  1  0  0  0  0
 20 21  1  0  0  0  0
 22 23  2  0  0  0  0
 22 24  1  0  0  0  0
 24 25  1  0  0  0  0
 24 26  1  0  0  0  0
 26 27  1  0  0  0  0
 26 28  1  0  0  0  0
 26 29  1  0  0  0  0
M  END
$$$$

  -OEChem-03222214043D

 29 29  0     1  0  0  0  0  0999 V2000
   -3.0464   -4.0206    0.6324 H   0  0  0  0  0  0  0  0  0  0  0  0
   -2.9701   -3.1131    0.0263 C   0  0  0  0  0  0  0  0  0  0  0  0
   -3.7877   -2.4403    0.2956 H   0  0  0  0  0  0  0  0  0  0  0  0
   -3.0627   -3.3873   -1.0273 H   0  0  0  0  0  0  0  0  0  0  0  0
   -1.6361   -2.4339    0.2722 C   0  0  0  0  0  0  0  0  0  0  0  0
   -0.8765   -2.8812    1.1110 O   0  0  0  0  0  0  0  0  0  0  0  0
   -1.2990   -1.3045   -0.4489 N   0  0  0  0  0  0  0  0  0  0  0  0
   -1.9321   -1.0478   -1.2002 H   0  0  0  0  0  0  0  0  0  0  0  0
    0.0328   -0.6665   -0.4124 C   0  0  1  0  0  0  0  0  0  0  0  0
    0.7752   -1.4008   -0.7448 H   0  0  0  0  0  0  0  0  0  0  0  0
    0.0230    0.5190   -1.3916 C   0  0  0  0  0  0  0  0  0  0  0  0
   -0.4364    0.2017   -2.3332 H   0  0  0  0  0  0  0  0  0  0  0  0
   -0.5772    1.3425   -0.9916 H   0  0  0  0  0  0  0  0  0  0  0  0
    1.4178    0.9973   -1.6918 C   0  0  0  0  0  0  0  0  0  0  0  0
    2.0360    2.1315   -1.2158 N   0  0  0  0  0  0  0  0  0  0  0  0
    1.6862    2.7457   -0.4837 H   0  0  0  0  0  0  0  0  0  0  0  0
    3.2936    2.2110   -1.7839 C   0  0  0  0  0  0  0  0  0  0  0  0
    4.0253    2.9854   -1.5721 H   0  0  0  0  0  0  0  0  0  0  0  0
    3.4774    1.2177   -2.6206 N   0  0  0  0  0  0  0  0  0  0  0  0
    2.3188    0.4515   -2.5688 C   0  0  0  0  0  0  0  0  0  0  0  0
    2.1474   -0.4478   -3.1528 H   0  0  0  0  0  0  0  0  0  0  0  0
    0.4635   -0.1788    0.9919 C   0  0  0  0  0  0  0  0  0  0  0  0
    1.6397   -0.2109    1.3291 O   0  0  0  0  0  0  0  0  0  0  0  0
   -0.4387    0.5085    1.7866 N   0  0  0  0  0  0  0  0  0  0  0  0
   -1.4169    0.3931    1.5427 H   0  0  0  0  0  0  0  0  0  0  0  0
   -0.1091    0.9597    3.1333 C   0  0  0  0  0  0  0  0  0  0  0  0
    0.7414    1.6492    3.1108 H   0  0  0  0  0  0  0  0  0  0  0  0
   -0.9622    1.4815    3.5772 H   0  0  0  0  0  0  0  0  0  0  0  0
    0.1467    0.1058    3.7697 H   0  0  0  0  0  0  0  0  0  0  0  0
  1  2  1  0  0  0  0
  2  3  1  0  0  0  0
  2  4  1  0  0  0  0
  2  5  1  0  0  0  0
  5  6  2  0  0  0  0
  5  7  1  0  0  0  0
  7  8  1  0  0  0  0
  7  9  1  0  0  0  0
  9 10  1  0  0  0  0
  9 11  1  0  0  0  0
  9 22  1  0  0  0  0
 11 12  1  0  0  0  0
 11 13  1  0  0  0  0
 11 14  1  0  0  0  0
 14 15  1  0  0  0  0
 14 20  2  0  0  0  0
 15 16  1  0  0  0  0
 15 17  1  0  0  0  0
 17 18  1  0  0  0  0
 17 19  2  0  0  0  0
 19 20  1  0  0  0  0
 20 21  1  0  0  0  0
 22 23  2  0  0  0  0
 22 24  1  0  0  0  0
 24 25  1  0  0  0  0
 24 26  1  0  0  0  0
 26 27  1  0  0  0  0
 26 28  1  0  0  0  0
 26 29  1  0  0  0  0
M  END
$$$$

  -OEChem-03222214043D

 29 29  0     1  0  0  0  0  0999 V2000
   -3.0534   -4.0192    0.6413 H   0  0  0  0  0  0  0  0  0  0  0  0
   -2.9753   -3.1128    0.0339 C   0  0  0  0  0  0  0  0  0  0  0  0
   -3.7922   -2.4383    0.3013 H   0  0  0  0  0  0  0  0  0  0  0  0
   -3.0673   -3.3888   -1.0194 H   0  0  0  0  0  0  0  0  0  0  0  0
   -1.6411   -2.4341    0.2795 C   0  0  0  0  0  0  0  0  0  0  0  0
   -0.8825   -2.8790    1.1206 O   0  0  0  0  0  0  0  0  0  0  0  0
   -1.3019   -1.3086   -0.4467 N   0  0  0  0  0  0  0  0  0  0  0  0
   -1.9350   -1.0536   -1.1986 H   0  0  0  0  0  0  0  0  0  0  0  0
    0.0333   -0.6769   -0.4184 C   0  0  1  0  0  0  0  0  0  0  0  0
    0.7725   -1.4133   -0.7535 H   0  0  0  0  0  0  0  0  0  0  0  0
    0.0260    0.5114   -1.3947 C   0  0  0  0  0  0  0  0  0  0  0  0
   -0.4439    0.1997   -2.3330 H   0  0  0  0  0  0  0  0  0  0  0  0
   -0.5630    1.3405   -0.9893 H   0  0  0  0  0  0  0  0  0  0  0  0
    1.4245    0.9769   -1.6990 C   0  0  0  0  0  0  0  0  0  0  0  0
    2.1570    1.9260   -1.0223 N   0  0  0  0  0  0  0  0  0  0  0  0
    1.9345    2.3099   -0.1052 H   0  0  0  0  0  0  0  0  0  0  0  0
    3.3656    2.0864   -1.6731 C   0  0  0  0  0  0  0  0  0  0  0  0
    4.1682    2.7403   -1.3443 H   0  0  0  0  0  0  0  0  0  0  0  0
    3.4067    1.3330   -2.7463 N   0  0  0  0  0  0  0  0  0  0  0  0
    2.2038    0.6370   -2.7737 C   0  0  0  0  0  0  0  0  0  0  0  0
    1.9185   -0.0700   -3.5469 H   0  0  0  0  0  0  0  0  0  0  0  0
    0.4648   -0.1898    0.9868 C   0  0  0  0  0  0  0  0  0  0  0  0
    1.6440   -0.1945    1.3166 O   0  0  0  0  0  0  0  0  0  0  0  0
   -0.4379    0.5007    1.7780 N   0  0  0  0  0  0  0  0  0  0  0  0
   -1.4165    0.3784    1.5383 H   0  0  0  0  0  0  0  0  0  0  0  0
   -0.1071    0.9725    3.1174 C   0  0  0  0  0  0  0  0  0  0  0  0
    0.7364    1.6699    3.0821 H   0  0  0  0  0  0  0  0  0  0  0  0
   -0.9634    1.4914    3.5584 H   0  0  0  0  0  0  0  0  0  0  0  0
    0.1603    0.1300    3.7640 H   0  0  0  0  0  0  0  0  0  0  0  0
  1  2  1  0  0  0  0
  2  3  1  0  0  0  0
  2  4  1  0  0  0  0
  2  5  1  0  0  0  0
  5  6  2  0  0  0  0
  5  7  1  0  0  0  0
  7  8  1  0  0  0  0
  7  9  1  0  0  0  0
  9 10  1  0  0  0  0
  9 11  1  0  0  0  0
  9 22  1  0  0  0  0
 11 12  1  0  0  0  0
 11 13  1  0  0  0  0
 11 14  1  0  0  0  0
 14 15  1  0  0  0  0
 14 20  2  0  0  0  0
 15 16  1  0  0  0  0
 15 17  1  0  0  0  0
 17 18  1  0  0  0  0
 17 19  2  0  0  0  0
 19 20  1  0  0  0  0
 20 21  1  0  0  0  0
 22 23  2  0  0  0  0
 22 24  1  0  0  0  0
 24 25  1  0  0  0  0
 24 26  1  0  0  0  0
 26 27  1  0  0  0  0
 26 28  1  0  0  0  0
 26 29  1  0  0  0  0
M  END
$$$$

  -OEChem-03222214043D

 29 29  0     1  0  0  0  0  0999 V2000
   -3.0620   -4.0129    0.6521 H   0  0  0  0  0  0  0  0  0  0  0  0
   -2.9836   -3.1045    0.0477 C   0  0  0  0  0  0  0  0  0  0  0  0
   -3.7924   -2.4252    0.3271 H   0  0  0  0  0  0  0  0  0  0  0  0
   -3.0900   -3.3753   -1.0055 H   0  0  0  0  0  0  0  0  0  0  0  0
   -1.6409   -2.4378    0.2807 C   0  0  0  0  0  0  0  0  0  0  0  0
   -0.8767   -2.8916    1.1121 O   0  0  0  0  0  0  0  0  0  0  0  0
   -1.2990   -1.3136   -0.4464 N   0  0  0  0  0  0  0  0  0  0  0  0
   -1.9377   -1.0505   -1.1908 H   0  0  0  0  0  0  0  0  0  0  0  0
    0.0392   -0.6874   -0.4242 C   0  0  1  0  0  0  0  0  0  0  0  0
    0.7765   -1.4241   -0.7628 H   0  0  0  0  0  0  0  0  0  0  0  0
    0.0315    0.5041   -1.3990 C   0  0  0  0  0  0  0  0  0  0  0  0
   -0.4519    0.2008   -2.3332 H   0  0  0  0  0  0  0  0  0  0  0  0
   -0.5477    1.3343   -0.9815 H   0  0  0  0  0  0  0  0  0  0  0  0
    1.4284    0.9702   -1.7163 C   0  0  0  0  0  0  0  0  0  0  0  0
    2.2759    1.6932   -0.9071 N   0  0  0  0  0  0  0  0  0  0  0  0
    2.1745    1.8042    0.1030 H   0  0  0  0  0  0  0  0  0  0  0  0
    3.4360    1.9496   -1.6120 C   0  0  0  0  0  0  0  0  0  0  0  0
    4.3066    2.4628   -1.2136 H   0  0  0  0  0  0  0  0  0  0  0  0
    3.3396    1.4756   -2.8318 N   0  0  0  0  0  0  0  0  0  0  0  0
    2.0934    0.8653   -2.9097 C   0  0  0  0  0  0  0  0  0  0  0  0
    1.7000    0.3797   -3.7977 H   0  0  0  0  0  0  0  0  0  0  0  0
    0.4675   -0.2062    0.9857 C   0  0  0  0  0  0  0  0  0  0  0  0
    1.6478   -0.1926    1.3152 O   0  0  0  0  0  0  0  0  0  0  0  0
   -0.4384    0.4832    1.7738 N   0  0  0  0  0  0  0  0  0  0  0  0
   -1.4161    0.3637    1.5291 H   0  0  0  0  0  0  0  0  0  0  0  0
   -0.1121    0.9755    3.1069 C   0  0  0  0  0  0  0  0  0  0  0  0
    0.7189    1.6872    3.0615 H   0  0  0  0  0  0  0  0  0  0  0  0
   -0.9764    1.4846    3.5438 H   0  0  0  0  0  0  0  0  0  0  0  0
    0.1707    0.1451    3.7626 H   0  0  0  0  0  0  0  0  0  0  0  0
  1  2  1  0  0  0  0
  2  3  1  0  0  0  0
  2  4  1  0  0  0  0
  2  5  1  0  0  0  0
  5  6  2  0  0  0  0
  5  7  1  0  0  0  0
  7  8  1  0  0  0  0
  7  9  1  0  0  0  0
  9 10  1  0  0  0  0
  9 11  1  0  0  0  0
  9 22  1  0  0  0  0
 11 12  1  0  0  0  0
 11 13  1  0  0  0  0
 11 14  1  0  0  0  0
 14 15  1  0  0  0  0
 14 20  2  0  0  0  0
 15 16  1  0  0  0  0
 15 17  1  0  0  0  0
 17 18  1  0  0  0  0
 17 19  2  0  0  0  0
 19 20  1  0  0  0  0
 20 21  1  0  0  0  0
 22 23  2  0  0  0  0
 22 24  1  0  0  0  0
 24 25  1  0  0  0  0
 24 26  1  0  0  0  0
 26 27  1  0  0  0  0
 26 28  1  0  0  0  0
 26 29  1  0  0  0  0
M  END
$$$$

  -OEChem-03222214043D

 29 29  0     1  0  0  0  0  0999 V2000
   -3.0728   -3.9976    0.6636 H   0  0  0  0  0  0  0  0  0  0  0  0
   -2.9922   -3.0886    0.0604 C   0  0  0  0  0  0  0  0  0  0  0  0
   -3.7893   -2.4008    0.3526 H   0  0  0  0  0  0  0  0  0  0  0  0
   -3.1156   -3.3552   -0.9920 H   0  0  0  0  0  0  0  0  0  0  0  0
   -1.6389   -2.4382    0.2778 C   0  0  0  0  0  0  0  0  0  0  0  0
   -0.8695   -2.9032    1.0983 O   0  0  0  0  0  0  0  0  0  0  0  0
   -1.2939   -1.3140   -0.4481 N   0  0  0  0  0  0  0  0  0  0  0  0
   -1.9369   -1.0404   -1.1849 H   0  0  0  0  0  0  0  0  0  0  0  0
    0.0458   -0.6913   -0.4252 C   0  0  1  0  0  0  0  0  0  0  0  0
    0.7816   -1.4305   -0.7613 H   0  0  0  0  0  0  0  0  0  0  0  0
    0.0400    0.4957   -1.4084 C   0  0  0  0  0  0  0  0  0  0  0  0
   -0.4516    0.1922   -2.3383 H   0  0  0  0  0  0  0  0  0  0  0  0
   -0.5358    1.3258   -0.9860 H   0  0  0  0  0  0  0  0  0  0  0  0
    1.4314    0.9741   -1.7399 C   0  0  0  0  0  0  0  0  0  0  0  0
    2.3879    1.4583   -0.8757 N   0  0  0  0  0  0  0  0  0  0  0  0
    2.3664    1.3580    0.1432 H   0  0  0  0  0  0  0  0  0  0  0  0
    3.5032    1.8116   -1.6089 C   0  0  0  0  0  0  0  0  0  0  0  0
    4.4316    2.1883   -1.1891 H   0  0  0  0  0  0  0  0  0  0  0  0
    3.2830    1.6160   -2.8877 N   0  0  0  0  0  0  0  0  0  0  0  0
    1.9975    1.0957   -2.9820 C   0  0  0  0  0  0  0  0  0  0  0  0
    1.5094    0.8281   -3.9143 H   0  0  0  0  0  0  0  0  0  0  0  0
    0.4668   -0.2158    0.9894 C   0  0  0  0  0  0  0  0  0  0  0  0
    1.6448   -0.2180    1.3303 O   0  0  0  0  0  0  0  0  0  0  0  0
   -0.4402    0.4722    1.7771 N   0  0  0  0  0  0  0  0  0  0  0  0
   -1.4168    0.3711    1.5205 H   0  0  0  0  0  0  0  0  0  0  0  0
   -0.1200    0.9537    3.1156 C   0  0  0  0  0  0  0  0  0  0  0  0
    0.7093    1.6678    3.0790 H   0  0  0  0  0  0  0  0  0  0  0  0
   -0.9869    1.4568    3.5543 H   0  0  0  0  0  0  0  0  0  0  0  0
    0.1625    0.1182    3.7647 H   0  0  0  0  0  0  0  0  0  0  0  0
  1  2  1  0  0  0  0
  2  3  1  0  0  0  0
  2  4  1  0  0  0  0
  2  5  1  0  0  0  0
  5  6  2  0  0  0  0
  5  7  1  0  0  0  0
  7  8  1  0  0  0  0
  7  9  1  0  0  0  0
  9 10  1  0  0  0  0
  9 11  1  0  0  0  0
  9 22  1  0  0  0  0
 11 12  1  0  0  0  0
 11 13  1  0  0  0  0
 11 14  1  0  0  0  0
 14 15  1  0  0  0  0
 14 20  2  0  0  0  0
 15 16  1  0  0  0  0
 15 17  1  0  0  0  0
 17 18  1  0  0  0  0
 17 19  2  0  0  0  0
 19 20  1  0  0  0  0
 20 21  1  0  0  0  0
 22 23  2  0  0  0  0
 22 24  1  0  0  0  0
 24 25  1  0  0  0  0
 24 26  1  0  0  0  0
 26 27  1  0  0  0  0
 26 28  1  0  0  0  0
 26 29  1  0  0  0  0
M  END
$$$$

  -OEChem-03222214043D

 29 29  0     1  0  0  0  0  0999 V2000
   -3.0826   -3.9928    0.6486 H   0  0  0  0  0  0  0  0  0  0  0  0
   -2.9993   -3.0774    0.0556 C   0  0  0  0  0  0  0  0  0  0  0  0
   -3.7900   -2.3878    0.3602 H   0  0  0  0  0  0  0  0  0  0  0  0
   -3.1301   -3.3305   -0.9993 H   0  0  0  0  0  0  0  0  0  0  0  0
   -1.6409   -2.4382    0.2726 C   0  0  0  0  0  0  0  0  0  0  0  0
   -0.8709   -2.9152    1.0855 O   0  0  0  0  0  0  0  0  0  0  0  0
   -1.2911   -1.3119   -0.4477 N   0  0  0  0  0  0  0  0  0  0  0  0
   -1.9371   -1.0262   -1.1775 H   0  0  0  0  0  0  0  0  0  0  0  0
    0.0497   -0.6920   -0.4197 C   0  0  1  0  0  0  0  0  0  0  0  0
    0.7845   -1.4328   -0.7548 H   0  0  0  0  0  0  0  0  0  0  0  0
    0.0443    0.4895   -1.4116 C   0  0  0  0  0  0  0  0  0  0  0  0
   -0.4516    0.1836   -2.3384 H   0  0  0  0  0  0  0  0  0  0  0  0
   -0.5320    1.3174   -0.9861 H   0  0  0  0  0  0  0  0  0  0  0  0
    1.4288    0.9839   -1.7552 C   0  0  0  0  0  0  0  0  0  0  0  0
    2.4876    1.2250   -0.9080 N   0  0  0  0  0  0  0  0  0  0  0  0
    2.5215    0.9799    0.0873 H   0  0  0  0  0  0  0  0  0  0  0  0
    3.5616    1.6667   -1.6544 C   0  0  0  0  0  0  0  0  0  0  0  0
    4.5415    1.9107   -1.2541 H   0  0  0  0  0  0  0  0  0  0  0  0
    3.2273    1.7412   -2.9212 N   0  0  0  0  0  0  0  0  0  0  0  0
    1.9051    1.3173   -2.9967 C   0  0  0  0  0  0  0  0  0  0  0  0
    1.3305    1.2590   -3.9161 H   0  0  0  0  0  0  0  0  0  0  0  0
    0.4681   -0.2230    0.9979 C   0  0  0  0  0  0  0  0  0  0  0  0
    1.6427   -0.2601    1.3501 O   0  0  0  0  0  0  0  0  0  0  0  0
   -0.4365    0.4641    1.7887 N   0  0  0  0  0  0  0  0  0  0  0  0
   -1.4120    0.3878    1.5199 H   0  0  0  0  0  0  0  0  0  0  0  0
   -0.1189    0.9340    3.1318 C   0  0  0  0  0  0  0  0  0  0  0  0
    0.7180    1.6396    3.1039 H   0  0  0  0  0  0  0  0  0  0  0  0
   -0.9832    1.4436    3.5682 H   0  0  0  0  0  0  0  0  0  0  0  0
    0.1507    0.0915    3.7775 H   0  0  0  0  0  0  0  0  0  0  0  0
  1  2  1  0  0  0  0
  2  3  1  0  0  0  0
  2  4  1  0  0  0  0
  2  5  1  0  0  0  0
  5  6  2  0  0  0  0
  5  7  1  0  0  0  0
  7  8  1  0  0  0  0
  7  9  1  0  0  0  0
  9 10  1  0  0  0  0
  9 11  1  0  0  0  0
  9 22  1  0  0  0  0
 11 12  1  0  0  0  0
 11 13  1  0  0  0  0
 11 14  1  0  0  0  0
 14 15  1  0  0  0  0
 14 20  2  0  0  0  0
 15 16  1  0  0  0  0
 15 17  1  0  0  0  0
 17 18  1  0  0  0  0
 17 19  2  0  0  0  0
 19 20  1  0  0  0  0
 20 21  1  0  0  0  0
 22 23  2  0  0  0  0
 22 24  1  0  0  0  0
 24 25  1  0  0  0  0
 24 26  1  0  0  0  0
 26 27  1  0  0  0  0
 26 28  1  0  0  0  0
 26 29  1  0  0  0  0
M  END
$$$$

  -OEChem-03222214043D

 29 29  0     1  0  0  0  0  0999 V2000
   -3.0909   -3.9968    0.6235 H   0  0  0  0  0  0  0  0  0  0  0  0
   -3.0075   -3.0770    0.0374 C   0  0  0  0  0  0  0  0  0  0  0  0
   -3.8027   -2.3924    0.3417 H   0  0  0  0  0  0  0  0  0  0  0  0
   -3.1311   -3.3234   -1.0199 H   0  0  0  0  0  0  0  0  0  0  0  0
   -1.6524   -2.4350    0.2677 C   0  0  0  0  0  0  0  0  0  0  0  0
   -0.8858   -2.9151    1.0822 O   0  0  0  0  0  0  0  0  0  0  0  0
   -1.2985   -1.3069   -0.4473 N   0  0  0  0  0  0  0  0  0  0  0  0
   -1.9426   -1.0163   -1.1767 H   0  0  0  0  0  0  0  0  0  0  0  0
    0.0434   -0.6901   -0.4135 C   0  0  1  0  0  0  0  0  0  0  0  0
    0.7741   -1.4352   -0.7476 H   0  0  0  0  0  0  0  0  0  0  0  0
    0.0416    0.4843   -1.4139 C   0  0  0  0  0  0  0  0  0  0  0  0
   -0.4521    0.1730   -2.3402 H   0  0  0  0  0  0  0  0  0  0  0  0
   -0.5381    1.3118   -0.9921 H   0  0  0  0  0  0  0  0  0  0  0  0
    1.4220    0.9881   -1.7628 C   0  0  0  0  0  0  0  0  0  0  0  0
    2.5627    0.9878   -0.9903 N   0  0  0  0  0  0  0  0  0  0  0  0
    2.6401    0.6183   -0.0362 H   0  0  0  0  0  0  0  0  0  0  0  0
    3.5994    1.5259   -1.7256 C   0  0  0  0  0  0  0  0  0  0  0  0
    4.6186    1.6487   -1.3708 H   0  0  0  0  0  0  0  0  0  0  0  0
    3.1721    1.8654   -2.9190 N   0  0  0  0  0  0  0  0  0  0  0  0
    1.8225    1.5323   -2.9554 C   0  0  0  0  0  0  0  0  0  0  0  0
    1.1760    1.6816   -3.8148 H   0  0  0  0  0  0  0  0  0  0  0  0
    0.4702   -0.2233    1.0012 C   0  0  0  0  0  0  0  0  0  0  0  0
    1.6433   -0.2973    1.3537 O   0  0  0  0  0  0  0  0  0  0  0  0
   -0.4240    0.4675    1.8000 N   0  0  0  0  0  0  0  0  0  0  0  0
   -1.4006    0.4139    1.5299 H   0  0  0  0  0  0  0  0  0  0  0  0
   -0.0954    0.9248    3.1447 C   0  0  0  0  0  0  0  0  0  0  0  0
    0.7532    1.6167    3.1185 H   0  0  0  0  0  0  0  0  0  0  0  0
   -0.9500    1.4463    3.5864 H   0  0  0  0  0  0  0  0  0  0  0  0
    0.1627    0.0749    3.7855 H   0  0  0  0  0  0  0  0  0  0  0  0
  1  2  1  0  0  0  0
  2  3  1  0  0  0  0
  2  4  1  0  0  0  0
  2  5  1  0  0  0  0
  5  6  2  0  0  0  0
  5  7  1  0  0  0  0
  7  8  1  0  0  0  0
  7  9  1  0  0  0  0
  9 10  1  0  0  0  0
  9 11  1  0  0  0  0
  9 22  1  0  0  0  0
 11 12  1  0  0  0  0
 11 13  1  0  0  0  0
 11 14  1  0  0  0  0
 14 15  1  0  0  0  0
 14 20  2  0  0  0  0
 15 16  1  0  0  0  0
 15 17  1  0  0  0  0
 17 18  1  0  0  0  0
 17 19  2  0  0  0  0
 19 20  1  0  0  0  0
 20 21  1  0  0  0  0
 22 23  2  0  0  0  0
 22 24  1  0  0  0  0
 24 25  1  0  0  0  0
 24 26  1  0  0  0  0
 26 27  1  0  0  0  0
 26 28  1  0  0  0  0
 26 29  1  0  0  0  0
M  END
$$$$

  -OEChem-03222214043D

 29 29  0     1  0  0  0  0  0999 V2000
   -3.0932   -4.0010    0.6171 H   0  0  0  0  0  0  0  0  0  0  0  0
   -3.0128   -3.0805    0.0316 C   0  0  0  0  0  0  0  0  0  0  0  0
   -3.8071   -2.3967    0.3398 H   0  0  0  0  0  0  0  0  0  0  0  0
   -3.1400   -3.3260   -1.0255 H   0  0  0  0  0  0  0  0  0  0  0  0
   -1.6578   -2.4370    0.2564 C   0  0  0  0  0  0  0  0  0  0  0  0
   -0.8843   -2.9196    1.0628 O   0  0  0  0  0  0  0  0  0  0  0  0
   -1.3113   -1.3038   -0.4538 N   0  0  0  0  0  0  0  0  0  0  0  0
   -1.9602   -1.0087   -1.1771 H   0  0  0  0  0  0  0  0  0  0  0  0
    0.0276   -0.6821   -0.4181 C   0  0  1  0  0  0  0  0  0  0  0  0
    0.7543   -1.4311   -0.7526 H   0  0  0  0  0  0  0  0  0  0  0  0
    0.0296    0.4837   -1.4279 C   0  0  0  0  0  0  0  0  0  0  0  0
   -0.4529    0.1612   -2.3564 H   0  0  0  0  0  0  0  0  0  0  0  0
   -0.5581    1.3121   -1.0190 H   0  0  0  0  0  0  0  0  0  0  0  0
    1.4104    0.9897   -1.7707 C   0  0  0  0  0  0  0  0  0  0  0  0
    2.6019    0.7587   -1.1179 N   0  0  0  0  0  0  0  0  0  0  0  0
    2.7082    0.2704   -0.2218 H   0  0  0  0  0  0  0  0  0  0  0  0
    3.6164    1.3925   -1.8064 C   0  0  0  0  0  0  0  0  0  0  0  0
    4.6622    1.3969   -1.5128 H   0  0  0  0  0  0  0  0  0  0  0  0
    3.1303    1.9932   -2.8672 N   0  0  0  0  0  0  0  0  0  0  0  0
    1.7617    1.7460   -2.8584 C   0  0  0  0  0  0  0  0  0  0  0  0
    1.0682    2.1014   -3.6147 H   0  0  0  0  0  0  0  0  0  0  0  0
    0.4703   -0.2155    0.9903 C   0  0  0  0  0  0  0  0  0  0  0  0
    1.6457   -0.3140    1.3293 O   0  0  0  0  0  0  0  0  0  0  0  0
   -0.4109    0.4736    1.8046 N   0  0  0  0  0  0  0  0  0  0  0  0
   -1.3911    0.4303    1.5458 H   0  0  0  0  0  0  0  0  0  0  0  0
   -0.0610    0.9197    3.1475 C   0  0  0  0  0  0  0  0  0  0  0  0
    0.7946    1.6025    3.1140 H   0  0  0  0  0  0  0  0  0  0  0  0
   -0.9042    1.4476    3.6028 H   0  0  0  0  0  0  0  0  0  0  0  0
    0.1953    0.0630    3.7798 H   0  0  0  0  0  0  0  0  0  0  0  0
  1  2  1  0  0  0  0
  2  3  1  0  0  0  0
  2  4  1  0  0  0  0
  2  5  1  0  0  0  0
  5  6  2  0  0  0  0
  5  7  1  0  0  0  0
  7  8  1  0  0  0  0
  7  9  1  0  0  0  0
  9 10  1  0  0  0  0
  9 11  1  0  0  0  0
  9 22  1  0  0  0  0
 11 12  1  0  0  0  0
 11 13  1  0  0  0  0
 11 14  1  0  0  0  0
 14 15  1  0  0  0  0
 14 20  2  0  0  0  0
 15 16  1  0  0  0  0
 15 17  1  0  0  0  0
 17 18  1  0  0  0  0
 17 19  2  0  0  0  0
 19 20  1  0  0  0  0
 20 21  1  0  0  0  0
 22 23  2  0  0  0  0
 22 24  1  0  0  0  0
 24 25  1  0  0  0  0
 24 26  1  0  0  0  0
 26 27  1  0  0  0  0
 26 28  1  0  0  0  0
 26 29  1  0  0  0  0
M  END
$$$$

  -OEChem-03222214043D

 29 29  0     1  0  0  0  0  0999 V2000
   -3.0887   -4.0109    0.6188 H   0  0  0  0  0  0  0  0  0  0  0  0
   -3.0178   -3.0887    0.0348 C   0  0  0  0  0  0  0  0  0  0  0  0
   -3.8073   -2.4064    0.3581 H   0  0  0  0  0  0  0  0  0  0  0  0
   -3.1618   -3.3309   -1.0208 H   0  0  0  0  0  0  0  0  0  0  0  0
   -1.6594   -2.4456    0.2405 C   0  0  0  0  0  0  0  0  0  0  0  0
   -0.8708   -2.9345    1.0283 O   0  0  0  0  0  0  0  0  0  0  0  0
   -1.3259   -1.3052   -0.4643 N   0  0  0  0  0  0  0  0  0  0  0  0
   -1.9883   -0.9981   -1.1703 H   0  0  0  0  0  0  0  0  0  0  0  0
    0.0081   -0.6739   -0.4300 C   0  0  1  0  0  0  0  0  0  0  0  0
    0.7305   -1.4260   -0.7664 H   0  0  0  0  0  0  0  0  0  0  0  0
    0.0130    0.4838   -1.4470 C   0  0  0  0  0  0  0  0  0  0  0  0
   -0.4530    0.1470   -2.3785 H   0  0  0  0  0  0  0  0  0  0  0  0
   -0.5855    1.3133   -1.0561 H   0  0  0  0  0  0  0  0  0  0  0  0
    1.3965    0.9882   -1.7779 C   0  0  0  0  0  0  0  0  0  0  0  0
    2.6110    0.5527   -1.2929 N   0  0  0  0  0  0  0  0  0  0  0  0
    2.7407   -0.0618   -0.4832 H   0  0  0  0  0  0  0  0  0  0  0  0
    3.6141    1.2813   -1.9003 C   0  0  0  0  0  0  0  0  0  0  0  0
    4.6746    1.1777   -1.6896 H   0  0  0  0  0  0  0  0  0  0  0  0
    3.0986    2.1256   -2.7627 N   0  0  0  0  0  0  0  0  0  0  0  0
    1.7209    1.9518   -2.6965 C   0  0  0  0  0  0  0  0  0  0  0  0
    1.0016    2.5019   -3.2959 H   0  0  0  0  0  0  0  0  0  0  0  0
    0.4720   -0.2063    0.9688 C   0  0  0  0  0  0  0  0  0  0  0  0
    1.6522   -0.3169    1.2860 O   0  0  0  0  0  0  0  0  0  0  0  0
   -0.3964    0.4782    1.8001 N   0  0  0  0  0  0  0  0  0  0  0  0
   -1.3802    0.4416    1.5545 H   0  0  0  0  0  0  0  0  0  0  0  0
   -0.0238    0.9231    3.1369 C   0  0  0  0  0  0  0  0  0  0  0  0
    0.8337    1.6027    3.0897 H   0  0  0  0  0  0  0  0  0  0  0  0
   -0.8580    1.4543    3.6049 H   0  0  0  0  0  0  0  0  0  0  0  0
    0.2392    0.0658    3.7656 H   0  0  0  0  0  0  0  0  0  0  0  0
  1  2  1  0  0  0  0
  2  3  1  0  0  0  0
  2  4  1  0  0  0  0
  2  5  1  0  0  0  0
  5  6  2  0  0  0  0
  5  7  1  0  0  0  0
  7  8  1  0  0  0  0
  7  9  1  0  0  0  0
  9 10  1  0  0  0  0
  9 11  1  0  0  0  0
  9 22  1  0  0  0  0
 11 12  1  0  0  0  0
 11 13  1  0  0  0  0
 11 14  1  0  0  0  0
 14 15  1  0  0  0  0
 14 20  2  0  0  0  0
 15 16  1  0  0  0  0
 15 17  1  0  0  0  0
 17 18  1  0  0  0  0
 17 19  2  0  0  0  0
 19 20  1  0  0  0  0
 20 21  1  0  0  0  0
 22 23  2  0  0  0  0
 22 24  1  0  0  0  0
 24 25  1  0  0  0  0
 24 26  1  0  0  0  0
 26 27  1  0  0  0  0
 26 28  1  0  0  0  0
 26 29  1  0  0  0  0
M  END
$$$$

  -OEChem-03222214043D

 29 29  0     1  0  0  0  0  0999 V2000
   -3.0860   -4.0149    0.6367 H   0  0  0  0  0  0  0  0  0  0  0  0
   -3.0209   -3.0972    0.0450 C   0  0  0  0  0  0  0  0  0  0  0  0
   -3.8053   -2.4111    0.3729 H   0  0  0  0  0  0  0  0  0  0  0  0
   -3.1786   -3.3469   -1.0069 H   0  0  0  0  0  0  0  0  0  0  0  0
   -1.6590   -2.4548    0.2293 C   0  0  0  0  0  0  0  0  0  0  0  0
   -0.8546   -2.9498    0.9972 O   0  0  0  0  0  0  0  0  0  0  0  0
   -1.3376   -1.3110   -0.4754 N   0  0  0  0  0  0  0  0  0  0  0  0
   -2.0153   -0.9921   -1.1612 H   0  0  0  0  0  0  0  0  0  0  0  0
   -0.0083   -0.6703   -0.4456 C   0  0  1  0  0  0  0  0  0  0  0  0
    0.7112   -1.4250   -0.7814 H   0  0  0  0  0  0  0  0  0  0  0  0
   -0.0048    0.4796   -1.4694 C   0  0  0  0  0  0  0  0  0  0  0  0
   -0.4550    0.1255   -2.4022 H   0  0  0  0  0  0  0  0  0  0  0  0
   -0.6154    1.3091   -1.0978 H   0  0  0  0  0  0  0  0  0  0  0  0
    1.3806    0.9820   -1.7922 C   0  0  0  0  0  0  0  0  0  0  0  0
    2.5968    0.3897   -1.5254 N   0  0  0  0  0  0  0  0  0  0  0  0
    2.7476   -0.3903   -0.8829 H   0  0  0  0  0  0  0  0  0  0  0  0
    3.5971    1.2117   -2.0069 C   0  0  0  0  0  0  0  0  0  0  0  0
    4.6620    1.0217   -1.9065 H   0  0  0  0  0  0  0  0  0  0  0  0
    3.0762    2.2630   -2.5944 N   0  0  0  0  0  0  0  0  0  0  0  0
    1.6986    2.1339   -2.4624 C   0  0  0  0  0  0  0  0  0  0  0  0
    0.9745    2.8489   -2.8412 H   0  0  0  0  0  0  0  0  0  0  0  0
    0.4731   -0.1958    0.9432 C   0  0  0  0  0  0  0  0  0  0  0  0
    1.6551   -0.3166    1.2459 O   0  0  0  0  0  0  0  0  0  0  0  0
   -0.3842    0.4876    1.7869 N   0  0  0  0  0  0  0  0  0  0  0  0
   -1.3699    0.4662    1.5482 H   0  0  0  0  0  0  0  0  0  0  0  0
    0.0070    0.9342    3.1179 C   0  0  0  0  0  0  0  0  0  0  0  0
    0.8665    1.6103    3.0581 H   0  0  0  0  0  0  0  0  0  0  0  0
   -0.8188    1.4698    3.5957 H   0  0  0  0  0  0  0  0  0  0  0  0
    0.2752    0.0776    3.7452 H   0  0  0  0  0  0  0  0  0  0  0  0
  1  2  1  0  0  0  0
  2  3  1  0  0  0  0
  2  4  1  0  0  0  0
  2  5  1  0  0  0  0
  5  6  2  0  0  0  0
  5  7  1  0  0  0  0
  7  8  1  0  0  0  0
  7  9  1  0  0  0  0
  9 10  1  0  0  0  0
  9 11  1  0  0  0  0
  9 22  1  0  0  0  0
 11 12  1  0  0  0  0
 11 13  1  0  0  0  0
 11 14  1  0  0  0  0
 14 15  1  0  0  0  0
 14 20  2  0  0  0  0
 15 16  1  0  0  0  0
 15 17  1  0  0  0  0
 17 18  1  0  0  0  0
 17 19  2  0  0  0  0
 19 20  1  0  0  0  0
 20 21  1  0  0  0  0
 22 23  2  0  0  0  0
 22 24  1  0  0  0  0
 24 25  1  0  0  0  0
 24 26  1  0  0  0  0
 26 27  1  0  0  0  0
 26 28  1  0  0  0  0
 26 29  1  0  0  0  0
M  END
$$$$

  -OEChem-03222214043D

 29 29  0     1  0  0  0  0  0999 V2000
   -3.0802   -4.0103    0.6592 H   0  0  0  0  0  0  0  0  0  0  0  0
   -3.0169   -3.0959    0.0621 C   0  0  0  0  0  0  0  0  0  0  0  0
   -3.7919   -2.4028    0.3974 H   0  0  0  0  0  0  0  0  0  0  0  0
   -3.1904   -3.3493   -0.9865 H   0  0  0  0  0  0  0  0  0  0  0  0
   -1.6483   -2.4621    0.2246 C   0  0  0  0  0  0  0  0  0  0  0  0
   -0.8331   -2.9648    0.9757 O   0  0  0  0  0  0  0  0  0  0  0  0
   -1.3320   -1.3190   -0.4834 N   0  0  0  0  0  0  0  0  0  0  0  0
   -2.0222   -0.9889   -1.1511 H   0  0  0  0  0  0  0  0  0  0  0  0
   -0.0055   -0.6726   -0.4592 C   0  0  1  0  0  0  0  0  0  0  0  0
    0.7181   -1.4217   -0.7971 H   0  0  0  0  0  0  0  0  0  0  0  0
   -0.0160    0.4826   -1.4757 C   0  0  0  0  0  0  0  0  0  0  0  0
   -0.4663    0.1275   -2.4080 H   0  0  0  0  0  0  0  0  0  0  0  0
   -0.6324    1.3064   -1.1004 H   0  0  0  0  0  0  0  0  0  0  0  0
    1.3667    0.9885   -1.8018 C   0  0  0  0  0  0  0  0  0  0  0  0
    2.5594    0.2970   -1.8070 N   0  0  0  0  0  0  0  0  0  0  0  0
    2.7076   -0.6445   -1.4463 H   0  0  0  0  0  0  0  0  0  0  0  0
    3.5701    1.1741   -2.1509 C   0  0  0  0  0  0  0  0  0  0  0  0
    4.6243    0.9186   -2.2079 H   0  0  0  0  0  0  0  0  0  0  0  0
    3.0747    2.3640   -2.3947 N   0  0  0  0  0  0  0  0  0  0  0  0
    1.7070    2.2641   -2.1696 C   0  0  0  0  0  0  0  0  0  0  0  0
    1.0052    3.0864   -2.2723 H   0  0  0  0  0  0  0  0  0  0  0  0
    0.4758   -0.1928    0.9278 C   0  0  0  0  0  0  0  0  0  0  0  0
    1.6572   -0.3039    1.2322 O   0  0  0  0  0  0  0  0  0  0  0  0
   -0.3860    0.4884    1.7693 N   0  0  0  0  0  0  0  0  0  0  0  0
   -1.3713    0.4615    1.5306 H   0  0  0  0  0  0  0  0  0  0  0  0
    0.0039    0.9470    3.0967 C   0  0  0  0  0  0  0  0  0  0  0  0
    0.8613    1.6253    3.0314 H   0  0  0  0  0  0  0  0  0  0  0  0
   -0.8235    1.4840    3.5703 H   0  0  0  0  0  0  0  0  0  0  0  0
    0.2749    0.0961    3.7307 H   0  0  0  0  0  0  0  0  0  0  0  0
  1  2  1  0  0  0  0
  2  3  1  0  0  0  0
  2  4  1  0  0  0  0
  2  5  1  0  0  0  0
  5  6  2  0  0  0  0
  5  7  1  0  0  0  0
  7  8  1  0  0  0  0
  7  9  1  0  0  0  0
  9 10  1  0  0  0  0
  9 11  1  0  0  0  0
  9 22  1  0  0  0  0
 11 12  1  0  0  0  0
 11 13  1  0  0  0  0
 11 14  1  0  0  0  0
 14 15  1  0  0  0  0
 14 20  2  0  0  0  0
 15 16  1  0  0  0  0
 15 17  1  0  0  0  0
 17 18  1  0  0  0  0
 17 19  2  0  0  0  0
 19 20  1  0  0  0  0
 20 21  1  0  0  0  0
 22 23  2  0  0  0  0
 22 24  1  0  0  0  0
 24 25  1  0  0  0  0
 24 26  1  0  0  0  0
 26 27  1  0  0  0  0
 26 28  1  0  0  0  0
 26 29  1  0  0  0  0
M  END
$$$$

  -OEChem-03222214043D

 29 29  0     1  0  0  0  0  0999 V2000
   -3.0638   -4.0103    0.6687 H   0  0  0  0  0  0  0  0  0  0  0  0
   -3.0048   -3.0959    0.0711 C   0  0  0  0  0  0  0  0  0  0  0  0
   -3.7746   -2.4012    0.4151 H   0  0  0  0  0  0  0  0  0  0  0  0
   -3.1910   -3.3484   -0.9754 H   0  0  0  0  0  0  0  0  0  0  0  0
   -1.6326   -2.4656    0.2186 C   0  0  0  0  0  0  0  0  0  0  0  0
   -0.8095   -2.9724    0.9581 O   0  0  0  0  0  0  0  0  0  0  0  0
   -1.3224   -1.3204   -0.4890 N   0  0  0  0  0  0  0  0  0  0  0  0
   -2.0217   -0.9828   -1.1433 H   0  0  0  0  0  0  0  0  0  0  0  0
    0.0009   -0.6668   -0.4676 C   0  0  1  0  0  0  0  0  0  0  0  0
    0.7330   -1.4051   -0.8105 H   0  0  0  0  0  0  0  0  0  0  0  0
   -0.0258    0.4981   -1.4718 C   0  0  0  0  0  0  0  0  0  0  0  0
   -0.4833    0.1552   -2.4051 H   0  0  0  0  0  0  0  0  0  0  0  0
   -0.6413    1.3149   -1.0801 H   0  0  0  0  0  0  0  0  0  0  0  0
    1.3546    1.0070   -1.7973 C   0  0  0  0  0  0  0  0  0  0  0  0
    2.4888    0.2798   -2.0881 N   0  0  0  0  0  0  0  0  0  0  0  0
    2.5882   -0.7318   -2.0314 H   0  0  0  0  0  0  0  0  0  0  0  0
    3.5268    1.1643   -2.3132 C   0  0  0  0  0  0  0  0  0  0  0  0
    4.5495    0.8796   -2.5437 H   0  0  0  0  0  0  0  0  0  0  0  0
    3.1001    2.4002   -2.2109 N   0  0  0  0  0  0  0  0  0  0  0  0
    1.7537    2.3158   -1.8763 C   0  0  0  0  0  0  0  0  0  0  0  0
    1.1071    3.1714   -1.7052 H   0  0  0  0  0  0  0  0  0  0  0  0
    0.4756   -0.1879    0.9226 C   0  0  0  0  0  0  0  0  0  0  0  0
    1.6565   -0.2823    1.2312 O   0  0  0  0  0  0  0  0  0  0  0  0
   -0.3949    0.4853    1.7619 N   0  0  0  0  0  0  0  0  0  0  0  0
   -1.3802    0.4395    1.5260 H   0  0  0  0  0  0  0  0  0  0  0  0
   -0.0102    0.9530    3.0878 C   0  0  0  0  0  0  0  0  0  0  0  0
    0.8441    1.6349    3.0206 H   0  0  0  0  0  0  0  0  0  0  0  0
   -0.8411    1.4888    3.5562 H   0  0  0  0  0  0  0  0  0  0  0  0
    0.2644    0.1074    3.7272 H   0  0  0  0  0  0  0  0  0  0  0  0
  1  2  1  0  0  0  0
  2  3  1  0  0  0  0
  2  4  1  0  0  0  0
  2  5  1  0  0  0  0
  5  6  2  0  0  0  0
  5  7  1  0  0  0  0
  7  8  1  0  0  0  0
  7  9  1  0  0  0  0
  9 10  1  0  0  0  0
  9 11  1  0  0  0  0
  9 22  1  0  0  0  0
 11 12  1  0  0  0  0
 11 13  1  0  0  0  0
 11 14  1  0  0  0  0
 14 15  1  0  0  0  0
 14 20  2  0  0  0  0
 15 16  1  0  0  0  0
 15 17  1  0  0  0  0
 17 18  1  0  0  0  0
 17 19  2  0  0  0  0
 19 20  1  0  0  0  0
 20 21  1  0  0  0  0
 22 23  2  0  0  0  0
 22 24  1  0  0  0  0
 24 25  1  0  0  0  0
 24 26  1  0  0  0  0
 26 27  1  0  0  0  0
 26 28  1  0  0  0  0
 26 29  1  0  0  0  0
M  END
$$$$

  -OEChem-03222214043D

 29 29  0     1  0  0  0  0  0999 V2000
   -3.0493   -4.0050    0.6748 H   0  0  0  0  0  0  0  0  0  0  0  0
   -2.9921   -3.0892    0.0793 C   0  0  0  0  0  0  0  0  0  0  0  0
   -3.7560   -2.3927    0.4325 H   0  0  0  0  0  0  0  0  0  0  0  0
   -3.1889   -3.3378   -0.9662 H   0  0  0  0  0  0  0  0  0  0  0  0
   -1.6165   -2.4643    0.2157 C   0  0  0  0  0  0  0  0  0  0  0  0
   -0.7892   -2.9755    0.9473 O   0  0  0  0  0  0  0  0  0  0  0  0
   -1.3105   -1.3173   -0.4908 N   0  0  0  0  0  0  0  0  0  0  0  0
   -2.0167   -0.9731   -1.1341 H   0  0  0  0  0  0  0  0  0  0  0  0
    0.0103   -0.6580   -0.4700 C   0  0  1  0  0  0  0  0  0  0  0  0
    0.7506   -1.3873   -0.8166 H   0  0  0  0  0  0  0  0  0  0  0  0
   -0.0281    0.5134   -1.4655 C   0  0  0  0  0  0  0  0  0  0  0  0
   -0.4937    0.1837   -2.3996 H   0  0  0  0  0  0  0  0  0  0  0  0
   -0.6392    1.3259   -1.0581 H   0  0  0  0  0  0  0  0  0  0  0  0
    1.3512    1.0236   -1.7883 C   0  0  0  0  0  0  0  0  0  0  0  0
    2.4007    0.3325   -2.3535 N   0  0  0  0  0  0  0  0  0  0  0  0
    2.4251   -0.6623   -2.5665 H   0  0  0  0  0  0  0  0  0  0  0  0
    3.4708    1.1980   -2.4834 C   0  0  0  0  0  0  0  0  0  0  0  0
    4.4452    0.9298   -2.8817 H   0  0  0  0  0  0  0  0  0  0  0  0
    3.1403    2.3947   -2.0612 N   0  0  0  0  0  0  0  0  0  0  0  0
    1.8279    2.2968   -1.6133 C   0  0  0  0  0  0  0  0  0  0  0  0
    1.2578    3.1193   -1.1919 H   0  0  0  0  0  0  0  0  0  0  0  0
    0.4753   -0.1817    0.9248 C   0  0  0  0  0  0  0  0  0  0  0  0
    1.6544   -0.2644    1.2416 O   0  0  0  0  0  0  0  0  0  0  0  0
   -0.4054    0.4835    1.7602 N   0  0  0  0  0  0  0  0  0  0  0  0
   -1.3888    0.4291    1.5182 H   0  0  0  0  0  0  0  0  0  0  0  0
   -0.0343    0.9411    3.0934 C   0  0  0  0  0  0  0  0  0  0  0  0
    0.8140    1.6316    3.0390 H   0  0  0  0  0  0  0  0  0  0  0  0
   -0.8735    1.4641    3.5615 H   0  0  0  0  0  0  0  0  0  0  0  0
    0.2435    0.0911    3.7258 H   0  0  0  0  0  0  0  0  0  0  0  0
  1  2  1  0  0  0  0
  2  3  1  0  0  0  0
  2  4  1  0  0  0  0
  2  5  1  0  0  0  0
  5  6  2  0  0  0  0
  5  7  1  0  0  0  0
  7  8  1  0  0  0  0
  7  9  1  0  0  0  0
  9 10  1  0  0  0  0
  9 11  1  0  0  0  0
  9 22  1  0  0  0  0
 11 12  1  0  0  0  0
 11 13  1  0  0  0  0
 11 14  1  0  0  0  0
 14 15  1  0  0  0  0
 14 20  2  0  0  0  0
 15 16  1  0  0  0  0
 15 17  1  0  0  0  0
 17 18  1  0  0  0  0
 17 19  2  0  0  0  0
 19 20  1  0  0  0  0
 20 21  1  0  0  0  0
 22 23  2  0  0  0  0
 22 24  1  0  0  0  0
 24 25  1  0  0  0  0
 24 26  1  0  0  0  0
 26 27  1  0  0  0  0
 26 28  1  0  0  0  0
 26 29  1  0  0  0  0
M  END
$$$$

  -OEChem-03222214043D

 29 29  0     1  0  0  0  0  0999 V2000
   -3.0447   -4.0094    0.6623 H   0  0  0  0  0  0  0  0  0  0  0  0
   -2.9869   -3.0923    0.0688 C   0  0  0  0  0  0  0  0  0  0  0  0
   -3.7572   -2.3999    0.4163 H   0  0  0  0  0  0  0  0  0  0  0  0
   -3.1733   -3.3405   -0.9787 H   0  0  0  0  0  0  0  0  0  0  0  0
   -1.6154   -2.4612    0.2182 C   0  0  0  0  0  0  0  0  0  0  0  0
   -0.7939   -2.9681    0.9588 O   0  0  0  0  0  0  0  0  0  0  0  0
   -1.3078   -1.3136   -0.4864 N   0  0  0  0  0  0  0  0  0  0  0  0
   -2.0093   -0.9752   -1.1378 H   0  0  0  0  0  0  0  0  0  0  0  0
    0.0136   -0.6547   -0.4647 C   0  0  1  0  0  0  0  0  0  0  0  0
    0.7570   -1.3790   -0.8157 H   0  0  0  0  0  0  0  0  0  0  0  0
   -0.0277    0.5235   -1.4518 C   0  0  0  0  0  0  0  0  0  0  0  0
   -0.5035    0.2094   -2.3861 H   0  0  0  0  0  0  0  0  0  0  0  0
   -0.6305    1.3343   -1.0292 H   0  0  0  0  0  0  0  0  0  0  0  0
    1.3523    1.0321   -1.7728 C   0  0  0  0  0  0  0  0  0  0  0  0
    2.2975    0.4477   -2.5872 N   0  0  0  0  0  0  0  0  0  0  0  0
    2.2300   -0.4626   -3.0371 H   0  0  0  0  0  0  0  0  0  0  0  0
    3.4024    1.2775   -2.6347 C   0  0  0  0  0  0  0  0  0  0  0  0
    4.3141    1.0713   -3.1880 H   0  0  0  0  0  0  0  0  0  0  0  0
    3.1903    2.3566   -1.9213 N   0  0  0  0  0  0  0  0  0  0  0  0
    1.9221    2.2120   -1.3689 C   0  0  0  0  0  0  0  0  0  0  0  0
    1.4447    2.9407   -0.7205 H   0  0  0  0  0  0  0  0  0  0  0  0
    0.4739   -0.1822    0.9335 C   0  0  0  0  0  0  0  0  0  0  0  0
    1.6538   -0.2503    1.2498 O   0  0  0  0  0  0  0  0  0  0  0  0
   -0.4106    0.4804    1.7672 N   0  0  0  0  0  0  0  0  0  0  0  0
   -1.3943    0.4109    1.5301 H   0  0  0  0  0  0  0  0  0  0  0  0
   -0.0412    0.9423    3.0996 C   0  0  0  0  0  0  0  0  0  0  0  0
    0.8043    1.6362    3.0440 H   0  0  0  0  0  0  0  0  0  0  0  0
   -0.8826    1.4628    3.5668 H   0  0  0  0  0  0  0  0  0  0  0  0
    0.2403    0.0946    3.7334 H   0  0  0  0  0  0  0  0  0  0  0  0
  1  2  1  0  0  0  0
  2  3  1  0  0  0  0
  2  4  1  0  0  0  0
  2  5  1  0  0  0  0
  5  6  2  0  0  0  0
  5  7  1  0  0  0  0
  7  8  1  0  0  0  0
  7  9  1  0  0  0  0
  9 10  1  0  0  0  0
  9 11  1  0  0  0  0
  9 22  1  0  0  0  0
 11 12  1  0  0  0  0
 11 13  1  0  0  0  0
 11 14  1  0  0  0  0
 14 15  1  0  0  0  0
 14 20  2  0  0  0  0
 15 16  1  0  0  0  0
 15 17  1  0  0  0  0
 17 18  1  0  0  0  0
 17 19  2  0  0  0  0
 19 20  1  0  0  0  0
 20 21  1  0  0  0  0
 22 23  2  0  0  0  0
 22 24  1  0  0  0  0
 24 25  1  0  0  0  0
 24 26  1  0  0  0  0
 26 27  1  0  0  0  0
 26 28  1  0  0  0  0
 26 29  1  0  0  0  0
M  END
$$$$

  -OEChem-03222214043D

 29 29  0     1  0  0  0  0  0999 V2000
   -3.0475   -4.0080    0.6523 H   0  0  0  0  0  0  0  0  0  0  0  0
   -2.9855   -3.0906    0.0598 C   0  0  0  0  0  0  0  0  0  0  0  0
   -3.7614   -2.4004    0.3990 H   0  0  0  0  0  0  0  0  0  0  0  0
   -3.1598   -3.3391   -0.9897 H   0  0  0  0  0  0  0  0  0  0  0  0
   -1.6172   -2.4565    0.2245 C   0  0  0  0  0  0  0  0  0  0  0  0
   -0.8041   -2.9603    0.9766 O   0  0  0  0  0  0  0  0  0  0  0  0
   -1.3036   -1.3098   -0.4792 N   0  0  0  0  0  0  0  0  0  0  0  0
   -1.9974   -0.9773   -1.1417 H   0  0  0  0  0  0  0  0  0  0  0  0
    0.0204   -0.6557   -0.4550 C   0  0  1  0  0  0  0  0  0  0  0  0
    0.7643   -1.3791   -0.8073 H   0  0  0  0  0  0  0  0  0  0  0  0
   -0.0205    0.5252   -1.4396 C   0  0  0  0  0  0  0  0  0  0  0  0
   -0.5048    0.2196   -2.3722 H   0  0  0  0  0  0  0  0  0  0  0  0
   -0.6162    1.3366   -1.0083 H   0  0  0  0  0  0  0  0  0  0  0  0
    1.3580    1.0353   -1.7648 C   0  0  0  0  0  0  0  0  0  0  0  0
    2.1866    0.6207   -2.7842 N   0  0  0  0  0  0  0  0  0  0  0  0
    2.0184   -0.1507   -3.4257 H   0  0  0  0  0  0  0  0  0  0  0  0
    3.3277    1.4011   -2.7616 C   0  0  0  0  0  0  0  0  0  0  0  0
    4.1690    1.2967   -3.4407 H   0  0  0  0  0  0  0  0  0  0  0  0
    3.2472    2.2943   -1.8060 N   0  0  0  0  0  0  0  0  0  0  0  0
    2.0299    2.0727   -1.1698 C   0  0  0  0  0  0  0  0  0  0  0  0
    1.6560    2.6523   -0.3311 H   0  0  0  0  0  0  0  0  0  0  0  0
    0.4746   -0.1874    0.9470 C   0  0  0  0  0  0  0  0  0  0  0  0
    1.6534   -0.2511    1.2679 O   0  0  0  0  0  0  0  0  0  0  0  0
   -0.4132    0.4760    1.7765 N   0  0  0  0  0  0  0  0  0  0  0  0
   -1.3956    0.4049    1.5350 H   0  0  0  0  0  0  0  0  0  0  0  0
   -0.0508    0.9374    3.1110 C   0  0  0  0  0  0  0  0  0  0  0  0
    0.7923    1.6348    3.0602 H   0  0  0  0  0  0  0  0  0  0  0  0
   -0.8960    1.4539    3.5758 H   0  0  0  0  0  0  0  0  0  0  0  0
    0.2311    0.0901    3.7450 H   0  0  0  0  0  0  0  0  0  0  0  0
  1  2  1  0  0  0  0
  2  3  1  0  0  0  0
  2  4  1  0  0  0  0
  2  5  1  0  0  0  0
  5  6  2  0  0  0  0
  5  7  1  0  0  0  0
  7  8  1  0  0  0  0
  7  9  1  0  0  0  0
  9 10  1  0  0  0  0
  9 11  1  0  0  0  0
  9 22  1  0  0  0  0
 11 12  1  0  0  0  0
 11 13  1  0  0  0  0
 11 14  1  0  0  0  0
 14 15  1  0  0  0  0
 14 20  2  0  0  0  0
 15 16  1  0  0  0  0
 15 17  1  0  0  0  0
 17 18  1  0  0  0  0
 17 19  2  0  0  0  0
 19 20  1  0  0  0  0
 20 21  1  0  0  0  0
 22 23  2  0  0  0  0
 22 24  1  0  0  0  0
 24 25  1  0  0  0  0
 24 26  1  0  0  0  0
 26 27  1  0  0  0  0
 26 28  1  0  0  0  0
 26 29  1  0  0  0  0
M  END
$$$$

  -OEChem-03222214043D

 29 29  0     1  0  0  0  0  0999 V2000
   -3.0560   -4.0019    0.6408 H   0  0  0  0  0  0  0  0  0  0  0  0
   -2.9865   -3.0813    0.0538 C   0  0  0  0  0  0  0  0  0  0  0  0
   -3.7639   -2.3909    0.3896 H   0  0  0  0  0  0  0  0  0  0  0  0
   -3.1513   -3.3236   -0.9988 H   0  0  0  0  0  0  0  0  0  0  0  0
   -1.6185   -2.4510    0.2342 C   0  0  0  0  0  0  0  0  0  0  0  0
   -0.8163   -2.9564    0.9967 O   0  0  0  0  0  0  0  0  0  0  0  0
   -1.2938   -1.3070   -0.4690 N   0  0  0  0  0  0  0  0  0  0  0  0
   -1.9795   -0.9749   -1.1400 H   0  0  0  0  0  0  0  0  0  0  0  0
    0.0337   -0.6597   -0.4382 C   0  0  1  0  0  0  0  0  0  0  0  0
    0.7777   -1.3861   -0.7847 H   0  0  0  0  0  0  0  0  0  0  0  0
   -0.0006    0.5189   -1.4281 C   0  0  0  0  0  0  0  0  0  0  0  0
   -0.4872    0.2073   -2.3574 H   0  0  0  0  0  0  0  0  0  0  0  0
   -0.5971    1.3318   -1.0007 H   0  0  0  0  0  0  0  0  0  0  0  0
    1.3731    1.0402   -1.7644 C   0  0  0  0  0  0  0  0  0  0  0  0
    2.0736    0.8395   -2.9340 N   0  0  0  0  0  0  0  0  0  0  0  0
    1.7949    0.2471   -3.7126 H   0  0  0  0  0  0  0  0  0  0  0  0
    3.2520    1.5591   -2.8671 C   0  0  0  0  0  0  0  0  0  0  0  0
    4.0133    1.5846   -3.6415 H   0  0  0  0  0  0  0  0  0  0  0  0
    3.3169    2.2157   -1.7356 N   0  0  0  0  0  0  0  0  0  0  0  0
    2.1574    1.8985   -1.0345 C   0  0  0  0  0  0  0  0  0  0  0  0
    1.9000    2.2946   -0.0565 H   0  0  0  0  0  0  0  0  0  0  0  0
    0.4729   -0.1954    0.9700 C   0  0  0  0  0  0  0  0  0  0  0  0
    1.6466   -0.2667    1.3068 O   0  0  0  0  0  0  0  0  0  0  0  0
   -0.4220    0.4705    1.7898 N   0  0  0  0  0  0  0  0  0  0  0  0
   -1.4020    0.4001    1.5383 H   0  0  0  0  0  0  0  0  0  0  0  0
   -0.0741    0.9209    3.1319 C   0  0  0  0  0  0  0  0  0  0  0  0
    0.7713    1.6164    3.0960 H   0  0  0  0  0  0  0  0  0  0  0  0
   -0.9232    1.4357    3.5910 H   0  0  0  0  0  0  0  0  0  0  0  0
    0.1987    0.0676    3.7619 H   0  0  0  0  0  0  0  0  0  0  0  0
  1  2  1  0  0  0  0
  2  3  1  0  0  0  0
  2  4  1  0  0  0  0
  2  5  1  0  0  0  0
  5  6  2  0  0  0  0
  5  7  1  0  0  0  0
  7  8  1  0  0  0  0
  7  9  1  0  0  0  0
  9 10  1  0  0  0  0
  9 11  1  0  0  0  0
  9 22  1  0  0  0  0
 11 12  1  0  0  0  0
 11 13  1  0  0  0  0
 11 14  1  0  0  0  0
 14 15  1  0  0  0  0
 14 20  2  0  0  0  0
 15 16  1  0  0  0  0
 15 17  1  0  0  0  0
 17 18  1  0  0  0  0
 17 19  2  0  0  0  0
 19 20  1  0  0  0  0
 20 21  1  0  0  0  0
 22 23  2  0  0  0  0
 22 24  1  0  0  0  0
 24 25  1  0  0  0  0
 24 26  1  0  0  0  0
 26 27  1  0  0  0  0
 26 28  1  0  0  0  0
 26 29  1  0  0  0  0
M  END
$$$$

  -OEChem-03222214043D

 29 29  0     1  0  0  0  0  0999 V2000
   -3.0677   -3.9846    0.6323 H   0  0  0  0  0  0  0  0  0  0  0  0
   -2.9855   -3.0657    0.0445 C   0  0  0  0  0  0  0  0  0  0  0  0
   -3.7661   -2.3721    0.3658 H   0  0  0  0  0  0  0  0  0  0  0  0
   -3.1340   -3.3107   -1.0099 H   0  0  0  0  0  0  0  0  0  0  0  0
   -1.6184   -2.4395    0.2464 C   0  0  0  0  0  0  0  0  0  0  0  0
   -0.8334   -2.9438    1.0271 O   0  0  0  0  0  0  0  0  0  0  0  0
   -1.2764   -1.2999   -0.4565 N   0  0  0  0  0  0  0  0  0  0  0  0
   -1.9446   -0.9779   -1.1494 H   0  0  0  0  0  0  0  0  0  0  0  0
    0.0561   -0.6618   -0.4133 C   0  0  1  0  0  0  0  0  0  0  0  0
    0.8021   -1.3912   -0.7485 H   0  0  0  0  0  0  0  0  0  0  0  0
    0.0302    0.5113   -1.4139 C   0  0  0  0  0  0  0  0  0  0  0  0
   -0.4516    0.1817   -2.3396 H   0  0  0  0  0  0  0  0  0  0  0  0
   -0.5754    1.3250   -1.0012 H   0  0  0  0  0  0  0  0  0  0  0  0
    1.3947    1.0523   -1.7672 C   0  0  0  0  0  0  0  0  0  0  0  0
    1.9504    1.0917   -3.0286 N   0  0  0  0  0  0  0  0  0  0  0  0
    1.5481    0.7044   -3.8788 H   0  0  0  0  0  0  0  0  0  0  0  0
    3.1730    1.7313   -2.9524 C   0  0  0  0  0  0  0  0  0  0  0  0
    3.8446    1.8990   -3.7897 H   0  0  0  0  0  0  0  0  0  0  0  0
    3.4044    2.1146   -1.7223 N   0  0  0  0  0  0  0  0  0  0  0  0
    2.3088    1.6993   -0.9707 C   0  0  0  0  0  0  0  0  0  0  0  0
    2.1869    1.8922    0.0908 H   0  0  0  0  0  0  0  0  0  0  0  0
    0.4715   -0.2007    1.0034 C   0  0  0  0  0  0  0  0  0  0  0  0
    1.6322   -0.3083    1.3743 O   0  0  0  0  0  0  0  0  0  0  0  0
   -0.4331    0.4703    1.8084 N   0  0  0  0  0  0  0  0  0  0  0  0
   -1.4068    0.4208    1.5292 H   0  0  0  0  0  0  0  0  0  0  0  0
   -0.1159    0.8879    3.1686 C   0  0  0  0  0  0  0  0  0  0  0  0
    0.7419    1.5688    3.1705 H   0  0  0  0  0  0  0  0  0  0  0  0
   -0.9691    1.4086    3.6136 H   0  0  0  0  0  0  0  0  0  0  0  0
    0.1239    0.0181    3.7894 H   0  0  0  0  0  0  0  0  0  0  0  0
  1  2  1  0  0  0  0
  2  3  1  0  0  0  0
  2  4  1  0  0  0  0
  2  5  1  0  0  0  0
  5  6  2  0  0  0  0
  5  7  1  0  0  0  0
  7  8  1  0  0  0  0
  7  9  1  0  0  0  0
  9 10  1  0  0  0  0
  9 11  1  0  0  0  0
  9 22  1  0  0  0  0
 11 12  1  0  0  0  0
 11 13  1  0  0  0  0
 11 14  1  0  0  0  0
 14 15  1  0  0  0  0
 14 20  2  0  0  0  0
 15 16  1  0  0  0  0
 15 17  1  0  0  0  0
 17 18  1  0  0  0  0
 17 19  2  0  0  0  0
 19 20  1  0  0  0  0
 20 21  1  0  0  0  0
 22 23  2  0  0  0  0
 22 24  1  0  0  0  0
 24 25  1  0  0  0  0
 24 26  1  0  0  0  0
 26 27  1  0  0  0  0
 26 28  1  0  0  0  0
 26 29  1  0  0  0  0
M  END
$$$$

  -OEChem-03222214043D

 29 29  0     1  0  0  0  0  0999 V2000
   -3.0736   -3.9597    0.6216 H   0  0  0  0  0  0  0  0  0  0  0  0
   -2.9776   -3.0390    0.0388 C   0  0  0  0  0  0  0  0  0  0  0  0
   -3.7563   -2.3407    0.3543 H   0  0  0  0  0  0  0  0  0  0  0  0
   -3.1157   -3.2779   -1.0183 H   0  0  0  0  0  0  0  0  0  0  0  0
   -1.6081   -2.4246    0.2591 C   0  0  0  0  0  0  0  0  0  0  0  0
   -0.8406   -2.9345    1.0533 O   0  0  0  0  0  0  0  0  0  0  0  0
   -1.2449   -1.2921   -0.4451 N   0  0  0  0  0  0  0  0  0  0  0  0
   -1.9006   -0.9674   -1.1487 H   0  0  0  0  0  0  0  0  0  0  0  0
    0.0912   -0.6621   -0.3826 C   0  0  1  0  0  0  0  0  0  0  0  0
    0.8425   -1.3929   -0.7024 H   0  0  0  0  0  0  0  0  0  0  0  0
    0.0721    0.5061   -1.3918 C   0  0  0  0  0  0  0  0  0  0  0  0
   -0.3964    0.1512   -2.3152 H   0  0  0  0  0  0  0  0  0  0  0  0
   -0.5518    1.3156   -0.9990 H   0  0  0  0  0  0  0  0  0  0  0  0
    1.4228    1.0764   -1.7642 C   0  0  0  0  0  0  0  0  0  0  0  0
    1.8180    1.3757   -3.0518 N   0  0  0  0  0  0  0  0  0  0  0  0
    1.2758    1.2263   -3.8994 H   0  0  0  0  0  0  0  0  0  0  0  0
    3.0934    1.9047   -3.0157 C   0  0  0  0  0  0  0  0  0  0  0  0
    3.6632    2.2255   -3.8831 H   0  0  0  0  0  0  0  0  0  0  0  0
    3.5168    1.9676   -1.7796 N   0  0  0  0  0  0  0  0  0  0  0  0
    2.4932    1.4552   -0.9873 C   0  0  0  0  0  0  0  0  0  0  0  0
    2.5425    1.3994    0.0939 H   0  0  0  0  0  0  0  0  0  0  0  0
    0.4683   -0.1995    1.0447 C   0  0  0  0  0  0  0  0  0  0  0  0
    1.6004   -0.3701    1.4750 O   0  0  0  0  0  0  0  0  0  0  0  0
   -0.4544    0.4782    1.8232 N   0  0  0  0  0  0  0  0  0  0  0  0
   -1.4152    0.4620    1.4993 H   0  0  0  0  0  0  0  0  0  0  0  0
   -0.1907    0.8471    3.2085 C   0  0  0  0  0  0  0  0  0  0  0  0
    0.6811    1.5070    3.2704 H   0  0  0  0  0  0  0  0  0  0  0  0
   -1.0513    1.3737    3.6314 H   0  0  0  0  0  0  0  0  0  0  0  0
    0.0011   -0.0471    3.8110 H   0  0  0  0  0  0  0  0  0  0  0  0
  1  2  1  0  0  0  0
  2  3  1  0  0  0  0
  2  4  1  0  0  0  0
  2  5  1  0  0  0  0
  5  6  2  0  0  0  0
  5  7  1  0  0  0  0
  7  8  1  0  0  0  0
  7  9  1  0  0  0  0
  9 10  1  0  0  0  0
  9 11  1  0  0  0  0
  9 22  1  0  0  0  0
 11 12  1  0  0  0  0
 11 13  1  0  0  0  0
 11 14  1  0  0  0  0
 14 15  1  0  0  0  0
 14 20  2  0  0  0  0
 15 16  1  0  0  0  0
 15 17  1  0  0  0  0
 17 18  1  0  0  0  0
 17 19  2  0  0  0  0
 19 20  1  0  0  0  0
 20 21  1  0  0  0  0
 22 23  2  0  0  0  0
 22 24  1  0  0  0  0
 24 25  1  0  0  0  0
 24 26  1  0  0  0  0
 26 27  1  0  0  0  0
 26 28  1  0  0  0  0
 26 29  1  0  0  0  0
M  END
$$$$

  -OEChem-03222214043D

 29 29  0     1  0  0  0  0  0999 V2000
   -3.0950   -3.9325    0.6251 H   0  0  0  0  0  0  0  0  0  0  0  0
   -2.9722   -3.0302    0.0191 C   0  0  0  0  0  0  0  0  0  0  0  0
   -3.7584   -2.3195    0.2839 H   0  0  0  0  0  0  0  0  0  0  0  0
   -3.0720   -3.3006   -1.0348 H   0  0  0  0  0  0  0  0  0  0  0  0
   -1.6083   -2.4150    0.2718 C   0  0  0  0  0  0  0  0  0  0  0  0
   -0.8618   -2.9215    1.0877 O   0  0  0  0  0  0  0  0  0  0  0  0
   -1.2249   -1.2896   -0.4335 N   0  0  0  0  0  0  0  0  0  0  0  0
   -1.8602   -0.9763   -1.1604 H   0  0  0  0  0  0  0  0  0  0  0  0
    0.1155   -0.6688   -0.3566 C   0  0  1  0  0  0  0  0  0  0  0  0
    0.8702   -1.3994   -0.6691 H   0  0  0  0  0  0  0  0  0  0  0  0
    0.1017    0.5093   -1.3552 C   0  0  0  0  0  0  0  0  0  0  0  0
   -0.3601    0.1532   -2.2814 H   0  0  0  0  0  0  0  0  0  0  0  0
   -0.5302    1.3122   -0.9615 H   0  0  0  0  0  0  0  0  0  0  0  0
    1.4434    1.0976   -1.7373 C   0  0  0  0  0  0  0  0  0  0  0  0
    1.7017    1.6804   -2.9615 N   0  0  0  0  0  0  0  0  0  0  0  0
    1.0373    1.8052   -3.7215 H   0  0  0  0  0  0  0  0  0  0  0  0
    3.0250    2.0730   -3.0020 C   0  0  0  0  0  0  0  0  0  0  0  0
    3.5073    2.5666   -3.8409 H   0  0  0  0  0  0  0  0  0  0  0  0
    3.6166    1.7624   -1.8780 N   0  0  0  0  0  0  0  0  0  0  0  0
    2.6538    1.1458   -1.0835 C   0  0  0  0  0  0  0  0  0  0  0  0
    2.8591    0.7620   -0.0923 H   0  0  0  0  0  0  0  0  0  0  0  0
    0.4658   -0.2035    1.0785 C   0  0  0  0  0  0  0  0  0  0  0  0
    1.5792   -0.3963    1.5457 O   0  0  0  0  0  0  0  0  0  0  0  0
   -0.4699    0.4822    1.8345 N   0  0  0  0  0  0  0  0  0  0  0  0
   -1.4211    0.4803    1.4833 H   0  0  0  0  0  0  0  0  0  0  0  0
   -0.2396    0.8477    3.2270 C   0  0  0  0  0  0  0  0  0  0  0  0
    0.6518    1.4778    3.3161 H   0  0  0  0  0  0  0  0  0  0  0  0
   -1.0951    1.4058    3.6191 H   0  0  0  0  0  0  0  0  0  0  0  0
   -0.0985   -0.0497    3.8388 H   0  0  0  0  0  0  0  0  0  0  0  0
  1  2  1  0  0  0  0
  2  3  1  0  0  0  0
  2  4  1  0  0  0  0
  2  5  1  0  0  0  0
  5  6  2  0  0  0  0
  5  7  1  0  0  0  0
  7  8  1  0  0  0  0
  7  9  1  0  0  0  0
  9 10  1  0  0  0  0
  9 11  1  0  0  0  0
  9 22  1  0  0  0  0
 11 12  1  0  0  0  0
 11 13  1  0  0  0  0
 11 14  1  0  0  0  0
 14 15  1  0  0  0  0
 14 20  2  0  0  0  0
 15 16  1  0  0  0  0
 15 17  1  0  0  0  0
 17 18  1  0  0  0  0
 17 19  2  0  0  0  0
 19 20  1  0  0  0  0
 20 21  1  0  0  0  0
 22 23  2  0  0  0  0
 22 24  1  0  0  0  0
 24 25  1  0  0  0  0
 24 26  1  0  0  0  0
 26 27  1  0  0  0  0
 26 28  1  0  0  0  0
 26 29  1  0  0  0  0
M  END
$$$$

  -OEChem-03222214043D

 29 29  0     1  0  0  0  0  0999 V2000
   -3.0943   -3.9458    0.6204 H   0  0  0  0  0  0  0  0  0  0  0  0
   -2.9767   -3.0395    0.0194 C   0  0  0  0  0  0  0  0  0  0  0  0
   -3.7650   -2.3332    0.2901 H   0  0  0  0  0  0  0  0  0  0  0  0
   -3.0777   -3.3038   -1.0359 H   0  0  0  0  0  0  0  0  0  0  0  0
   -1.6153   -2.4203    0.2730 C   0  0  0  0  0  0  0  0  0  0  0  0
   -0.8701   -2.9190    1.0949 O   0  0  0  0  0  0  0  0  0  0  0  0
   -1.2346   -1.2955   -0.4341 N   0  0  0  0  0  0  0  0  0  0  0  0
   -1.8649   -0.9928   -1.1700 H   0  0  0  0  0  0  0  0  0  0  0  0
    0.1055   -0.6753   -0.3598 C   0  0  1  0  0  0  0  0  0  0  0  0
    0.8566   -1.4077   -0.6763 H   0  0  0  0  0  0  0  0  0  0  0  0
    0.0988    0.5132   -1.3439 C   0  0  0  0  0  0  0  0  0  0  0  0
   -0.3686    0.1799   -2.2758 H   0  0  0  0  0  0  0  0  0  0  0  0
   -0.5213    1.3167   -0.9335 H   0  0  0  0  0  0  0  0  0  0  0  0
    1.4493    1.0879   -1.7119 C   0  0  0  0  0  0  0  0  0  0  0  0
    1.6598    1.9359   -2.7796 N   0  0  0  0  0  0  0  0  0  0  0  0
    0.9471    2.3099   -3.4014 H   0  0  0  0  0  0  0  0  0  0  0  0
    3.0101    2.2101   -2.8741 C   0  0  0  0  0  0  0  0  0  0  0  0
    3.4669    2.8601   -3.6148 H   0  0  0  0  0  0  0  0  0  0  0  0
    3.6629    1.5676   -1.9404 N   0  0  0  0  0  0  0  0  0  0  0  0
    2.7116    0.8560   -1.2143 C   0  0  0  0  0  0  0  0  0  0  0  0
    2.9579    0.1923   -0.3937 H   0  0  0  0  0  0  0  0  0  0  0  0
    0.4619   -0.2081    1.0739 C   0  0  0  0  0  0  0  0  0  0  0  0
    1.5900   -0.3582    1.5214 O   0  0  0  0  0  0  0  0  0  0  0  0
   -0.4731    0.4785    1.8301 N   0  0  0  0  0  0  0  0  0  0  0  0
   -1.4293    0.4533    1.4935 H   0  0  0  0  0  0  0  0  0  0  0  0
   -0.2289    0.8765    3.2112 C   0  0  0  0  0  0  0  0  0  0  0  0
    0.6460    1.5325    3.2721 H   0  0  0  0  0  0  0  0  0  0  0  0
   -1.0928    1.4180    3.6080 H   0  0  0  0  0  0  0  0  0  0  0  0
   -0.0524   -0.0048    3.8372 H   0  0  0  0  0  0  0  0  0  0  0  0
  1  2  1  0  0  0  0
  2  3  1  0  0  0  0
  2  4  1  0  0  0  0
  2  5  1  0  0  0  0
  5  6  2  0  0  0  0
  5  7  1  0  0  0  0
  7  8  1  0  0  0  0
  7  9  1  0  0  0  0
  9 10  1  0  0  0  0
  9 11  1  0  0  0  0
  9 22  1  0  0  0  0
 11 12  1  0  0  0  0
 11 13  1  0  0  0  0
 11 14  1  0  0  0  0
 14 15  1  0  0  0  0
 14 20  2  0  0  0  0
 15 16  1  0  0  0  0
 15 17  1  0  0  0  0
 17 18  1  0  0  0  0
 17 19  2  0  0  0  0
 19 20  1  0  0  0  0
 20 21  1  0  0  0  0
 22 23  2  0  0  0  0
 22 24  1  0  0  0  0
 24 25  1  0  0  0  0
 24 26  1  0  0  0  0
 26 27  1  0  0  0  0
 26 28  1  0  0  0  0
 26 29  1  0  0  0  0
M  END
$$$$

  -OEChem-03222214043D

 29 29  0     1  0  0  0  0  0999 V2000
   -3.0807   -4.0204    0.5982 H   0  0  0  0  0  0  0  0  0  0  0  0
   -2.9930   -3.1120   -0.0048 C   0  0  0  0  0  0  0  0  0  0  0  0
   -3.8124   -2.4375    0.2544 H   0  0  0  0  0  0  0  0  0  0  0  0
   -3.0716   -3.3836   -1.0601 H   0  0  0  0  0  0  0  0  0  0  0  0
   -1.6603   -2.4372    0.2606 C   0  0  0  0  0  0  0  0  0  0  0  0
   -0.9037   -2.8999    1.0937 O   0  0  0  0  0  0  0  0  0  0  0  0
   -1.3179   -1.2981   -0.4424 N   0  0  0  0  0  0  0  0  0  0  0  0
   -1.9474   -1.0292   -1.1921 H   0  0  0  0  0  0  0  0  0  0  0  0
    0.0165   -0.6658   -0.3916 C   0  0  1  0  0  0  0  0  0  0  0  0
    0.7350   -1.4239   -0.7200 H   0  0  0  0  0  0  0  0  0  0  0  0
    0.0372    0.5177   -1.3828 C   0  0  0  0  0  0  0  0  0  0  0  0
   -0.6382    0.2971   -2.2149 H   0  0  0  0  0  0  0  0  0  0  0  0
   -0.3395    1.4173   -0.8847 H   0  0  0  0  0  0  0  0  0  0  0  0
    1.3918    0.8156   -1.9854 C   0  0  0  0  0  0  0  0  0  0  0  0
    1.6480    1.8225   -2.8920 N   0  0  0  0  0  0  0  0  0  0  0  0
    0.9736    2.4897   -3.2592 H   0  0  0  0  0  0  0  0  0  0  0  0
    2.9912    1.7970   -3.2155 C   0  0  0  0  0  0  0  0  0  0  0  0
    3.4805    2.4742   -3.9098 H   0  0  0  0  0  0  0  0  0  0  0  0
    3.5917    0.8331   -2.5650 N   0  0  0  0  0  0  0  0  0  0  0  0
    2.6161    0.2218   -1.7824 C   0  0  0  0  0  0  0  0  0  0  0  0
    2.8069   -0.6106   -1.1120 H   0  0  0  0  0  0  0  0  0  0  0  0
    0.4593   -0.1963    1.0130 C   0  0  0  0  0  0  0  0  0  0  0  0
    1.6385   -0.2531    1.3339 O   0  0  0  0  0  0  0  0  0  0  0  0
   -0.4286    0.4878    1.8251 N   0  0  0  0  0  0  0  0  0  0  0  0
   -1.4102    0.4057    1.5828 H   0  0  0  0  0  0  0  0  0  0  0  0
   -0.0760    0.9481    3.1625 C   0  0  0  0  0  0  0  0  0  0  0  0
    0.7714    1.6405    3.1189 H   0  0  0  0  0  0  0  0  0  0  0  0
   -0.9226    1.4696    3.6187 H   0  0  0  0  0  0  0  0  0  0  0  0
    0.1949    0.0996    3.7998 H   0  0  0  0  0  0  0  0  0  0  0  0
  1  2  1  0  0  0  0
  2  3  1  0  0  0  0
  2  4  1  0  0  0  0
  2  5  1  0  0  0  0
  5  6  2  0  0  0  0
  5  7  1  0  0  0  0
  7  8  1  0  0  0  0
  7  9  1  0  0  0  0
  9 10  1  0  0  0  0
  9 11  1  0  0  0  0
  9 22  1  0  0  0  0
 11 12  1  0  0  0  0
 11 13  1  0  0  0  0
 11 14  1  0  0  0  0
 14 15  1  0  0  0  0
 14 20  2  0  0  0  0
 15 16  1  0  0  0  0
 15 17  1  0  0  0  0
 17 18  1  0  0  0  0
 17 19  2  0  0  0  0
 19 20  1  0  0  0  0
 20 21  1  0  0  0  0
 22 23  2  0  0  0  0
 22 24  1  0  0  0  0
 24 25  1  0  0  0  0
 24 26  1  0  0  0  0
 26 27  1  0  0  0  0
 26 28  1  0  0  0  0
 26 29  1  0  0  0  0
M  END
$$$$

  -OEChem-03222214043D

 29 29  0     1  0  0  0  0  0999 V2000
   -3.0832   -4.0314    0.5896 H   0  0  0  0  0  0  0  0  0  0  0  0
   -3.0072   -3.1110    0.0033 C   0  0  0  0  0  0  0  0  0  0  0  0
   -3.8212   -2.4418    0.2919 H   0  0  0  0  0  0  0  0  0  0  0  0
   -3.1068   -3.3616   -1.0555 H   0  0  0  0  0  0  0  0  0  0  0  0
   -1.6698   -2.4413    0.2573 C   0  0  0  0  0  0  0  0  0  0  0  0
   -0.9125   -2.9009    1.0915 O   0  0  0  0  0  0  0  0  0  0  0  0
   -1.3279   -1.3030   -0.4470 N   0  0  0  0  0  0  0  0  0  0  0  0
   -1.9591   -1.0321   -1.1946 H   0  0  0  0  0  0  0  0  0  0  0  0
    0.0071   -0.6723   -0.3981 C   0  0  1  0  0  0  0  0  0  0  0  0
    0.7195   -1.4375   -0.7214 H   0  0  0  0  0  0  0  0  0  0  0  0
    0.0351    0.5067   -1.3944 C   0  0  0  0  0  0  0  0  0  0  0  0
   -0.6413    0.2931   -2.2274 H   0  0  0  0  0  0  0  0  0  0  0  0
   -0.3366    1.4076   -0.8949 H   0  0  0  0  0  0  0  0  0  0  0  0
    1.3930    0.7973   -1.9932 C   0  0  0  0  0  0  0  0  0  0  0  0
    1.7285    1.9544   -2.6636 N   0  0  0  0  0  0  0  0  0  0  0  0
    1.1174    2.7485   -2.8390 H   0  0  0  0  0  0  0  0  0  0  0  0
    3.0540    1.8776   -3.0460 C   0  0  0  0  0  0  0  0  0  0  0  0
    3.5911    2.6436   -3.5982 H   0  0  0  0  0  0  0  0  0  0  0  0
    3.5712    0.7422   -2.6501 N   0  0  0  0  0  0  0  0  0  0  0  0
    2.5596    0.0686   -1.9723 C   0  0  0  0  0  0  0  0  0  0  0  0
    2.6874   -0.9005   -1.5000 H   0  0  0  0  0  0  0  0  0  0  0  0
    0.4591   -0.2005    1.0018 C   0  0  0  0  0  0  0  0  0  0  0  0
    1.6423   -0.2483    1.3089 O   0  0  0  0  0  0  0  0  0  0  0  0
   -0.4230    0.4871    1.8172 N   0  0  0  0  0  0  0  0  0  0  0  0
   -1.4068    0.3887    1.5901 H   0  0  0  0  0  0  0  0  0  0  0  0
   -0.0590    0.9498    3.1507 C   0  0  0  0  0  0  0  0  0  0  0  0
    0.7902    1.6395    3.0990 H   0  0  0  0  0  0  0  0  0  0  0  0
   -0.9007    1.4750    3.6118 H   0  0  0  0  0  0  0  0  0  0  0  0
    0.2144    0.1022    3.7880 H   0  0  0  0  0  0  0  0  0  0  0  0
  1  2  1  0  0  0  0
  2  3  1  0  0  0  0
  2  4  1  0  0  0  0
  2  5  1  0  0  0  0
  5  6  2  0  0  0  0
  5  7  1  0  0  0  0
  7  8  1  0  0  0  0
  7  9  1  0  0  0  0
  9 10  1  0  0  0  0
  9 11  1  0  0  0  0
  9 22  1  0  0  0  0
 11 12  1  0  0  0  0
 11 13  1  0  0  0  0
 11 14  1  0  0  0  0
 14 15  1  0  0  0  0
 14 20  2  0  0  0  0
 15 16  1  0  0  0  0
 15 17  1  0  0  0  0
 17 18  1  0  0  0  0
 17 19  2  0  0  0  0
 19 20  1  0  0  0  0
 20 21  1  0  0  0  0
 22 23  2  0  0  0  0
 22 24  1  0  0  0  0
 24 25  1  0  0  0  0
 24 26  1  0  0  0  0
 26 27  1  0  0  0  0
 26 28  1  0  0  0  0
 26 29  1  0  0  0  0
M  END
$$$$

  -OEChem-03222214043D

 29 29  0     1  0  0  0  0  0999 V2000
   -3.0693   -4.0444    0.5841 H   0  0  0  0  0  0  0  0  0  0  0  0
   -3.0025   -3.1184    0.0056 C   0  0  0  0  0  0  0  0  0  0  0  0
   -3.8203   -2.4578    0.3029 H   0  0  0  0  0  0  0  0  0  0  0  0
   -3.1040   -3.3607   -1.0549 H   0  0  0  0  0  0  0  0  0  0  0  0
   -1.6687   -2.4416    0.2598 C   0  0  0  0  0  0  0  0  0  0  0  0
   -0.9080   -2.8990    1.0921 O   0  0  0  0  0  0  0  0  0  0  0  0
   -1.3304   -1.3041   -0.4476 N   0  0  0  0  0  0  0  0  0  0  0  0
   -1.9624   -1.0380   -1.1963 H   0  0  0  0  0  0  0  0  0  0  0  0
    0.0037   -0.6711   -0.4025 C   0  0  1  0  0  0  0  0  0  0  0  0
    0.7192   -1.4342   -0.7231 H   0  0  0  0  0  0  0  0  0  0  0  0
    0.0265    0.5093   -1.3970 C   0  0  0  0  0  0  0  0  0  0  0  0
   -0.6534    0.3027   -2.2294 H   0  0  0  0  0  0  0  0  0  0  0  0
   -0.3407    1.4091   -0.8923 H   0  0  0  0  0  0  0  0  0  0  0  0
    1.3863    0.7930   -1.9934 C   0  0  0  0  0  0  0  0  0  0  0  0
    1.8380    2.0299   -2.4017 N   0  0  0  0  0  0  0  0  0  0  0  0
    1.3288    2.9084   -2.3407 H   0  0  0  0  0  0  0  0  0  0  0  0
    3.1317    1.8968   -2.8691 C   0  0  0  0  0  0  0  0  0  0  0  0
    3.7432    2.7066   -3.2565 H   0  0  0  0  0  0  0  0  0  0  0  0
    3.5154    0.6479   -2.7834 N   0  0  0  0  0  0  0  0  0  0  0  0
    2.4506   -0.0472   -2.2196 C   0  0  0  0  0  0  0  0  0  0  0  0
    2.4667   -1.1106   -2.0018 H   0  0  0  0  0  0  0  0  0  0  0  0
    0.4587   -0.1949    0.9952 C   0  0  0  0  0  0  0  0  0  0  0  0
    1.6427   -0.2376    1.2995 O   0  0  0  0  0  0  0  0  0  0  0  0
   -0.4220    0.4937    1.8118 N   0  0  0  0  0  0  0  0  0  0  0  0
   -1.4065    0.3920    1.5892 H   0  0  0  0  0  0  0  0  0  0  0  0
   -0.0532    0.9579    3.1435 C   0  0  0  0  0  0  0  0  0  0  0  0
    0.7985    1.6442    3.0886 H   0  0  0  0  0  0  0  0  0  0  0  0
   -0.8916    1.4870    3.6062 H   0  0  0  0  0  0  0  0  0  0  0  0
    0.2187    0.1101    3.7814 H   0  0  0  0  0  0  0  0  0  0  0  0
  1  2  1  0  0  0  0
  2  3  1  0  0  0  0
  2  4  1  0  0  0  0
  2  5  1  0  0  0  0
  5  6  2  0  0  0  0
  5  7  1  0  0  0  0
  7  8  1  0  0  0  0
  7  9  1  0  0  0  0
  9 10  1  0  0  0  0
  9 11  1  0  0  0  0
  9 22  1  0  0  0  0
 11 12  1  0  0  0  0
 11 13  1  0  0  0  0
 11 14  1  0  0  0  0
 14 15  1  0  0  0  0
 14 20  2  0  0  0  0
 15 16  1  0  0  0  0
 15 17  1  0  0  0  0
 17 18  1  0  0  0  0
 17 19  2  0  0  0  0
 19 20  1  0  0  0  0
 20 21  1  0  0  0  0
 22 23  2  0  0  0  0
 22 24  1  0  0  0  0
 24 25  1  0  0  0  0
 24 26  1  0  0  0  0
 26 27  1  0  0  0  0
 26 28  1  0  0  0  0
 26 29  1  0  0  0  0
M  END
$$$$

  -OEChem-03222214043D

 29 29  0     1  0  0  0  0  0999 V2000
   -3.0497   -4.0501    0.5867 H   0  0  0  0  0  0  0  0  0  0  0  0
   -2.9822   -3.1293   -0.0000 C   0  0  0  0  0  0  0  0  0  0  0  0
   -3.8076   -2.4712    0.2815 H   0  0  0  0  0  0  0  0  0  0  0  0
   -3.0697   -3.3826   -1.0594 H   0  0  0  0  0  0  0  0  0  0  0  0
   -1.6563   -2.4402    0.2625 C   0  0  0  0  0  0  0  0  0  0  0  0
   -0.8976   -2.8889    1.1014 O   0  0  0  0  0  0  0  0  0  0  0  0
   -1.3242   -1.3011   -0.4453 N   0  0  0  0  0  0  0  0  0  0  0  0
   -1.9560   -1.0415   -1.1966 H   0  0  0  0  0  0  0  0  0  0  0  0
    0.0070   -0.6620   -0.4046 C   0  0  1  0  0  0  0  0  0  0  0  0
    0.7318   -1.4149   -0.7309 H   0  0  0  0  0  0  0  0  0  0  0  0
    0.0173    0.5250   -1.3900 C   0  0  0  0  0  0  0  0  0  0  0  0
   -0.6613    0.3201   -2.2236 H   0  0  0  0  0  0  0  0  0  0  0  0
   -0.3511    1.4238   -0.8851 H   0  0  0  0  0  0  0  0  0  0  0  0
    1.3802    0.7958   -1.9776 C   0  0  0  0  0  0  0  0  0  0  0  0
    1.9809    2.0276   -2.1184 N   0  0  0  0  0  0  0  0  0  0  0  0
    1.6110    2.9199   -1.7986 H   0  0  0  0  0  0  0  0  0  0  0  0
    3.2185    1.8476   -2.7073 C   0  0  0  0  0  0  0  0  0  0  0  0
    3.9229    2.6423   -2.9354 H   0  0  0  0  0  0  0  0  0  0  0  0
    3.4194    0.5773   -2.9583 N   0  0  0  0  0  0  0  0  0  0  0  0
    2.2920   -0.0912   -2.4940 C   0  0  0  0  0  0  0  0  0  0  0  0
    2.1510   -1.1663   -2.5498 H   0  0  0  0  0  0  0  0  0  0  0  0
    0.4605   -0.1854    0.9943 C   0  0  0  0  0  0  0  0  0  0  0  0
    1.6459   -0.2093    1.2962 O   0  0  0  0  0  0  0  0  0  0  0  0
   -0.4259    0.4970    1.8101 N   0  0  0  0  0  0  0  0  0  0  0  0
   -1.4095    0.3787    1.5912 H   0  0  0  0  0  0  0  0  0  0  0  0
   -0.0619    0.9670    3.1411 C   0  0  0  0  0  0  0  0  0  0  0  0
    0.7825    1.6622    3.0853 H   0  0  0  0  0  0  0  0  0  0  0  0
   -0.9062    1.4883    3.6019 H   0  0  0  0  0  0  0  0  0  0  0  0
    0.2184    0.1235    3.7808 H   0  0  0  0  0  0  0  0  0  0  0  0
  1  2  1  0  0  0  0
  2  3  1  0  0  0  0
  2  4  1  0  0  0  0
  2  5  1  0  0  0  0
  5  6  2  0  0  0  0
  5  7  1  0  0  0  0
  7  8  1  0  0  0  0
  7  9  1  0  0  0  0
  9 10  1  0  0  0  0
  9 11  1  0  0  0  0
  9 22  1  0  0  0  0
 11 12  1  0  0  0  0
 11 13  1  0  0  0  0
 11 14  1  0  0  0  0
 14 15  1  0  0  0  0
 14 20  2  0  0  0  0
 15 16  1  0  0  0  0
 15 17  1  0  0  0  0
 17 18  1  0  0  0  0
 17 19  2  0  0  0  0
 19 20  1  0  0  0  0
 20 21  1  0  0  0  0
 22 23  2  0  0  0  0
 22 24  1  0  0  0  0
 24 25  1  0  0  0  0
 24 26  1  0  0  0  0
 26 27  1  0  0  0  0
 26 28  1  0  0  0  0
 26 29  1  0  0  0  0
M  END
$$$$

  -OEChem-03222214043D

 29 29  0     1  0  0  0  0  0999 V2000
   -3.0320   -4.0536    0.5990 H   0  0  0  0  0  0  0  0  0  0  0  0
   -2.9669   -3.1393    0.0020 C   0  0  0  0  0  0  0  0  0  0  0  0
   -3.7975   -2.4830    0.2721 H   0  0  0  0  0  0  0  0  0  0  0  0
   -3.0476   -3.4052   -1.0547 H   0  0  0  0  0  0  0  0  0  0  0  0
   -1.6463   -2.4397    0.2630 C   0  0  0  0  0  0  0  0  0  0  0  0
   -0.8853   -2.8794    1.1045 O   0  0  0  0  0  0  0  0  0  0  0  0
   -1.3234   -1.2995   -0.4471 N   0  0  0  0  0  0  0  0  0  0  0  0
   -1.9552   -1.0502   -1.2019 H   0  0  0  0  0  0  0  0  0  0  0  0
    0.0049   -0.6543   -0.4119 C   0  0  1  0  0  0  0  0  0  0  0  0
    0.7357   -1.3987   -0.7467 H   0  0  0  0  0  0  0  0  0  0  0  0
    0.0081    0.5374   -1.3888 C   0  0  0  0  0  0  0  0  0  0  0  0
   -0.6651    0.3270   -2.2257 H   0  0  0  0  0  0  0  0  0  0  0  0
   -0.3631    1.4390   -0.8909 H   0  0  0  0  0  0  0  0  0  0  0  0
    1.3781    0.7879   -1.9621 C   0  0  0  0  0  0  0  0  0  0  0  0
    2.1307    1.9354   -1.8485 N   0  0  0  0  0  0  0  0  0  0  0  0
    1.9087    2.7480   -1.2775 H   0  0  0  0  0  0  0  0  0  0  0  0
    3.3088    1.7552   -2.5490 C   0  0  0  0  0  0  0  0  0  0  0  0
    4.1099    2.4854   -2.6211 H   0  0  0  0  0  0  0  0  0  0  0  0
    3.3203    0.5747   -3.1196 N   0  0  0  0  0  0  0  0  0  0  0  0
    2.1286   -0.0417   -2.7555 C   0  0  0  0  0  0  0  0  0  0  0  0
    1.8298   -1.0381   -3.0672 H   0  0  0  0  0  0  0  0  0  0  0  0
    0.4594   -0.1759    0.9865 C   0  0  0  0  0  0  0  0  0  0  0  0
    1.6469   -0.1785    1.2822 O   0  0  0  0  0  0  0  0  0  0  0  0
   -0.4301    0.5016    1.8030 N   0  0  0  0  0  0  0  0  0  0  0  0
   -1.4133    0.3709    1.5887 H   0  0  0  0  0  0  0  0  0  0  0  0
   -0.0671    0.9770    3.1326 C   0  0  0  0  0  0  0  0  0  0  0  0
    0.7679    1.6832    3.0736 H   0  0  0  0  0  0  0  0  0  0  0  0
   -0.9163    1.4872    3.5970 H   0  0  0  0  0  0  0  0  0  0  0  0
    0.2269    0.1376    3.7717 H   0  0  0  0  0  0  0  0  0  0  0  0
  1  2  1  0  0  0  0
  2  3  1  0  0  0  0
  2  4  1  0  0  0  0
  2  5  1  0  0  0  0
  5  6  2  0  0  0  0
  5  7  1  0  0  0  0
  7  8  1  0  0  0  0
  7  9  1  0  0  0  0
  9 10  1  0  0  0  0
  9 11  1  0  0  0  0
  9 22  1  0  0  0  0
 11 12  1  0  0  0  0
 11 13  1  0  0  0  0
 11 14  1  0  0  0  0
 14 15  1  0  0  0  0
 14 20  2  0  0  0  0
 15 16  1  0  0  0  0
 15 17  1  0  0  0  0
 17 18  1  0  0  0  0
 17 19  2  0  0  0  0
 19 20  1  0  0  0  0
 20 21  1  0  0  0  0
 22 23  2  0  0  0  0
 22 24  1  0  0  0  0
 24 25  1  0  0  0  0
 24 26  1  0  0  0  0
 26 27  1  0  0  0  0
 26 28  1  0  0  0  0
 26 29  1  0  0  0  0
M  END
$$$$

  -OEChem-03222214043D

 29 29  0     1  0  0  0  0  0999 V2000
   -3.0236   -4.0585    0.6117 H   0  0  0  0  0  0  0  0  0  0  0  0
   -2.9663   -3.1428    0.0163 C   0  0  0  0  0  0  0  0  0  0  0  0
   -3.7934   -2.4871    0.2987 H   0  0  0  0  0  0  0  0  0  0  0  0
   -3.0605   -3.4057   -1.0400 H   0  0  0  0  0  0  0  0  0  0  0  0
   -1.6424   -2.4446    0.2627 C   0  0  0  0  0  0  0  0  0  0  0  0
   -0.8738   -2.8834    1.0980 O   0  0  0  0  0  0  0  0  0  0  0  0
   -1.3258   -1.3045   -0.4502 N   0  0  0  0  0  0  0  0  0  0  0  0
   -1.9639   -1.0546   -1.1995 H   0  0  0  0  0  0  0  0  0  0  0  0
    0.0013   -0.6565   -0.4226 C   0  0  1  0  0  0  0  0  0  0  0  0
    0.7338   -1.3974   -0.7633 H   0  0  0  0  0  0  0  0  0  0  0  0
    0.0042    0.5376   -1.3937 C   0  0  0  0  0  0  0  0  0  0  0  0
   -0.6673    0.3255   -2.2315 H   0  0  0  0  0  0  0  0  0  0  0  0
   -0.3632    1.4445   -0.9023 H   0  0  0  0  0  0  0  0  0  0  0  0
    1.3812    0.7653   -1.9554 C   0  0  0  0  0  0  0  0  0  0  0  0
    2.2667    1.7611   -1.6116 N   0  0  0  0  0  0  0  0  0  0  0  0
    2.1778    2.3971   -0.8214 H   0  0  0  0  0  0  0  0  0  0  0  0
    3.3901    1.6366   -2.4071 C   0  0  0  0  0  0  0  0  0  0  0  0
    4.2734    2.2654   -2.3410 H   0  0  0  0  0  0  0  0  0  0  0  0
    3.2372    0.6489   -3.2568 N   0  0  0  0  0  0  0  0  0  0  0  0
    1.9905    0.0974   -2.9854 C   0  0  0  0  0  0  0  0  0  0  0  0
    1.5565   -0.7399   -3.5236 H   0  0  0  0  0  0  0  0  0  0  0  0
    0.4600   -0.1766    0.9743 C   0  0  0  0  0  0  0  0  0  0  0  0
    1.6507   -0.1485    1.2575 O   0  0  0  0  0  0  0  0  0  0  0  0
   -0.4311    0.4984    1.7911 N   0  0  0  0  0  0  0  0  0  0  0  0
   -1.4141    0.3572    1.5822 H   0  0  0  0  0  0  0  0  0  0  0  0
   -0.0670    0.9913    3.1141 C   0  0  0  0  0  0  0  0  0  0  0  0
    0.7581    1.7079    3.0440 H   0  0  0  0  0  0  0  0  0  0  0  0
   -0.9203    1.4948    3.5781 H   0  0  0  0  0  0  0  0  0  0  0  0
    0.2409    0.1617    3.7593 H   0  0  0  0  0  0  0  0  0  0  0  0
  1  2  1  0  0  0  0
  2  3  1  0  0  0  0
  2  4  1  0  0  0  0
  2  5  1  0  0  0  0
  5  6  2  0  0  0  0
  5  7  1  0  0  0  0
  7  8  1  0  0  0  0
  7  9  1  0  0  0  0
  9 10  1  0  0  0  0
  9 11  1  0  0  0  0
  9 22  1  0  0  0  0
 11 12  1  0  0  0  0
 11 13  1  0  0  0  0
 11 14  1  0  0  0  0
 14 15  1  0  0  0  0
 14 20  2  0  0  0  0
 15 16  1  0  0  0  0
 15 17  1  0  0  0  0
 17 18  1  0  0  0  0
 17 19  2  0  0  0  0
 19 20  1  0  0  0  0
 20 21  1  0  0  0  0
 22 23  2  0  0  0  0
 22 24  1  0  0  0  0
 24 25  1  0  0  0  0
 24 26  1  0  0  0  0
 26 27  1  0  0  0  0
 26 28  1  0  0  0  0
 26 29  1  0  0  0  0
M  END
$$$$

  -OEChem-03222214043D

 29 29  0     1  0  0  0  0  0999 V2000
   -3.0258   -4.0630    0.6255 H   0  0  0  0  0  0  0  0  0  0  0  0
   -2.9730   -3.1467    0.0304 C   0  0  0  0  0  0  0  0  0  0  0  0
   -3.7963   -2.4901    0.3213 H   0  0  0  0  0  0  0  0  0  0  0  0
   -3.0784   -3.4086   -1.0250 H   0  0  0  0  0  0  0  0  0  0  0  0
   -1.6460   -2.4495    0.2634 C   0  0  0  0  0  0  0  0  0  0  0  0
   -0.8683   -2.8887    1.0903 O   0  0  0  0  0  0  0  0  0  0  0  0
   -1.3351   -1.3096   -0.4524 N   0  0  0  0  0  0  0  0  0  0  0  0
   -1.9814   -1.0559   -1.1933 H   0  0  0  0  0  0  0  0  0  0  0  0
   -0.0071   -0.6632   -0.4366 C   0  0  1  0  0  0  0  0  0  0  0  0
    0.7214   -1.4046   -0.7851 H   0  0  0  0  0  0  0  0  0  0  0  0
   -0.0034    0.5341   -1.4024 C   0  0  0  0  0  0  0  0  0  0  0  0
   -0.6812    0.3300   -2.2371 H   0  0  0  0  0  0  0  0  0  0  0  0
   -0.3582    1.4440   -0.9069 H   0  0  0  0  0  0  0  0  0  0  0  0
    1.3759    0.7442   -1.9637 C   0  0  0  0  0  0  0  0  0  0  0  0
    2.3707    1.5310   -1.4308 N   0  0  0  0  0  0  0  0  0  0  0  0
    2.3845    1.9134   -0.4856 H   0  0  0  0  0  0  0  0  0  0  0  0
    3.4552    1.4965   -2.2863 C   0  0  0  0  0  0  0  0  0  0  0  0
    4.4051    1.9925   -2.1085 H   0  0  0  0  0  0  0  0  0  0  0  0
    3.1745    0.7737   -3.3451 N   0  0  0  0  0  0  0  0  0  0  0  0
    1.8800    0.3027   -3.1585 C   0  0  0  0  0  0  0  0  0  0  0  0
    1.3416   -0.3200   -3.8666 H   0  0  0  0  0  0  0  0  0  0  0  0
    0.4629   -0.1844    0.9576 C   0  0  0  0  0  0  0  0  0  0  0  0
    1.6583   -0.1232    1.2197 O   0  0  0  0  0  0  0  0  0  0  0  0
   -0.4245    0.4900    1.7786 N   0  0  0  0  0  0  0  0  0  0  0  0
   -1.4087    0.3367    1.5837 H   0  0  0  0  0  0  0  0  0  0  0  0
   -0.0493    1.0082    3.0886 C   0  0  0  0  0  0  0  0  0  0  0  0
    0.7631    1.7365    2.9958 H   0  0  0  0  0  0  0  0  0  0  0  0
   -0.9040    1.5053    3.5571 H   0  0  0  0  0  0  0  0  0  0  0  0
    0.2809    0.1934    3.7417 H   0  0  0  0  0  0  0  0  0  0  0  0
  1  2  1  0  0  0  0
  2  3  1  0  0  0  0
  2  4  1  0  0  0  0
  2  5  1  0  0  0  0
  5  6  2  0  0  0  0
  5  7  1  0  0  0  0
  7  8  1  0  0  0  0
  7  9  1  0  0  0  0
  9 10  1  0  0  0  0
  9 11  1  0  0  0  0
  9 22  1  0  0  0  0
 11 12  1  0  0  0  0
 11 13  1  0  0  0  0
 11 14  1  0  0  0  0
 14 15  1  0  0  0  0
 14 20  2  0  0  0  0
 15 16  1  0  0  0  0
 15 17  1  0  0  0  0
 17 18  1  0  0  0  0
 17 19  2  0  0  0  0
 19 20  1  0  0  0  0
 20 21  1  0  0  0  0
 22 23  2  0  0  0  0
 22 24  1  0  0  0  0
 24 25  1  0  0  0  0
 24 26  1  0  0  0  0
 26 27  1  0  0  0  0
 26 28  1  0  0  0  0
 26 29  1  0  0  0  0
M  END
$$$$

  -OEChem-03222214043D

 29 29  0     1  0  0  0  0  0999 V2000
   -3.0264   -4.0622    0.6379 H   0  0  0  0  0  0  0  0  0  0  0  0
   -2.9783   -3.1461    0.0420 C   0  0  0  0  0  0  0  0  0  0  0  0
   -3.7978   -2.4882    0.3406 H   0  0  0  0  0  0  0  0  0  0  0  0
   -3.0947   -3.4082   -1.0123 H   0  0  0  0  0  0  0  0  0  0  0  0
   -1.6474   -2.4518    0.2619 C   0  0  0  0  0  0  0  0  0  0  0  0
   -0.8604   -2.8954    1.0777 O   0  0  0  0  0  0  0  0  0  0  0  0
   -1.3423   -1.3106   -0.4543 N   0  0  0  0  0  0  0  0  0  0  0  0
   -1.9949   -1.0552   -1.1894 H   0  0  0  0  0  0  0  0  0  0  0  0
   -0.0138   -0.6651   -0.4484 C   0  0  1  0  0  0  0  0  0  0  0  0
    0.7110   -1.4073   -0.8031 H   0  0  0  0  0  0  0  0  0  0  0  0
   -0.0131    0.5327   -1.4150 C   0  0  0  0  0  0  0  0  0  0  0  0
   -0.7014    0.3371   -2.2432 H   0  0  0  0  0  0  0  0  0  0  0  0
   -0.3549    1.4432   -0.9112 H   0  0  0  0  0  0  0  0  0  0  0  0
    1.3643    0.7388   -1.9845 C   0  0  0  0  0  0  0  0  0  0  0  0
    2.4464    1.2785   -1.3283 N   0  0  0  0  0  0  0  0  0  0  0  0
    2.5211    1.4005   -0.3157 H   0  0  0  0  0  0  0  0  0  0  0  0
    3.5049    1.3392   -2.2138 C   0  0  0  0  0  0  0  0  0  0  0  0
    4.5055    1.6822   -1.9665 H   0  0  0  0  0  0  0  0  0  0  0  0
    3.1297    0.9131   -3.3975 N   0  0  0  0  0  0  0  0  0  0  0  0
    1.7961    0.5408   -3.2693 C   0  0  0  0  0  0  0  0  0  0  0  0
    1.1833    0.1538   -4.0777 H   0  0  0  0  0  0  0  0  0  0  0  0
    0.4655   -0.1903    0.9455 C   0  0  0  0  0  0  0  0  0  0  0  0
    1.6638   -0.1184    1.1962 O   0  0  0  0  0  0  0  0  0  0  0  0
   -0.4163    0.4818    1.7744 N   0  0  0  0  0  0  0  0  0  0  0  0
   -1.4022    0.3318    1.5852 H   0  0  0  0  0  0  0  0  0  0  0  0
   -0.0316    1.0110    3.0774 C   0  0  0  0  0  0  0  0  0  0  0  0
    0.7726    1.7465    2.9714 H   0  0  0  0  0  0  0  0  0  0  0  0
   -0.8856    1.5029    3.5527 H   0  0  0  0  0  0  0  0  0  0  0  0
    0.3134    0.2035    3.7319 H   0  0  0  0  0  0  0  0  0  0  0  0
  1  2  1  0  0  0  0
  2  3  1  0  0  0  0
  2  4  1  0  0  0  0
  2  5  1  0  0  0  0
  5  6  2  0  0  0  0
  5  7  1  0  0  0  0
  7  8  1  0  0  0  0
  7  9  1  0  0  0  0
  9 10  1  0  0  0  0
  9 11  1  0  0  0  0
  9 22  1  0  0  0  0
 11 12  1  0  0  0  0
 11 13  1  0  0  0  0
 11 14  1  0  0  0  0
 14 15  1  0  0  0  0
 14 20  2  0  0  0  0
 15 16  1  0  0  0  0
 15 17  1  0  0  0  0
 17 18  1  0  0  0  0
 17 19  2  0  0  0  0
 19 20  1  0  0  0  0
 20 21  1  0  0  0  0
 22 23  2  0  0  0  0
 22 24  1  0  0  0  0
 24 25  1  0  0  0  0
 24 26  1  0  0  0  0
 26 27  1  0  0  0  0
 26 28  1  0  0  0  0
 26 29  1  0  0  0  0
M  END
$$$$

  -OEChem-03222214043D

 29 29  0     1  0  0  0  0  0999 V2000
   -3.0310   -4.0543    0.6399 H   0  0  0  0  0  0  0  0  0  0  0  0
   -2.9826   -3.1367    0.0464 C   0  0  0  0  0  0  0  0  0  0  0  0
   -3.7970   -2.4760    0.3527 H   0  0  0  0  0  0  0  0  0  0  0  0
   -3.1070   -3.3948   -1.0079 H   0  0  0  0  0  0  0  0  0  0  0  0
   -1.6475   -2.4485    0.2597 C   0  0  0  0  0  0  0  0  0  0  0  0
   -0.8579   -2.8961    1.0708 O   0  0  0  0  0  0  0  0  0  0  0  0
   -1.3426   -1.3064   -0.4553 N   0  0  0  0  0  0  0  0  0  0  0  0
   -1.9971   -1.0484   -1.1875 H   0  0  0  0  0  0  0  0  0  0  0  0
   -0.0135   -0.6625   -0.4506 C   0  0  1  0  0  0  0  0  0  0  0  0
    0.7094   -1.4060   -0.8063 H   0  0  0  0  0  0  0  0  0  0  0  0
   -0.0173    0.5296   -1.4266 C   0  0  0  0  0  0  0  0  0  0  0  0
   -0.7119    0.3335   -2.2494 H   0  0  0  0  0  0  0  0  0  0  0  0
   -0.3560    1.4391   -0.9194 H   0  0  0  0  0  0  0  0  0  0  0  0
    1.3549    0.7474   -2.0074 C   0  0  0  0  0  0  0  0  0  0  0  0
    2.5059    1.0286   -1.3075 N   0  0  0  0  0  0  0  0  0  0  0  0
    2.6103    0.9699   -0.2897 H   0  0  0  0  0  0  0  0  0  0  0  0
    3.5408    1.1795   -2.2089 C   0  0  0  0  0  0  0  0  0  0  0  0
    4.5753    1.3782   -1.9437 H   0  0  0  0  0  0  0  0  0  0  0  0
    3.0931    1.0400   -3.4354 N   0  0  0  0  0  0  0  0  0  0  0  0
    1.7327    0.7732   -3.3239 C   0  0  0  0  0  0  0  0  0  0  0  0
    1.0650    0.6116   -4.1648 H   0  0  0  0  0  0  0  0  0  0  0  0
    0.4675   -0.1911    0.9439 C   0  0  0  0  0  0  0  0  0  0  0  0
    1.6662   -0.1478    1.2022 O   0  0  0  0  0  0  0  0  0  0  0  0
   -0.4098    0.4805    1.7770 N   0  0  0  0  0  0  0  0  0  0  0  0
   -1.3968    0.3485    1.5805 H   0  0  0  0  0  0  0  0  0  0  0  0
   -0.0236    0.9903    3.0871 C   0  0  0  0  0  0  0  0  0  0  0  0
    0.7861    1.7215    2.9916 H   0  0  0  0  0  0  0  0  0  0  0  0
   -0.8752    1.4817    3.5674 H   0  0  0  0  0  0  0  0  0  0  0  0
    0.3145    0.1718    3.7316 H   0  0  0  0  0  0  0  0  0  0  0  0
  1  2  1  0  0  0  0
  2  3  1  0  0  0  0
  2  4  1  0  0  0  0
  2  5  1  0  0  0  0
  5  6  2  0  0  0  0
  5  7  1  0  0  0  0
  7  8  1  0  0  0  0
  7  9  1  0  0  0  0
  9 10  1  0  0  0  0
  9 11  1  0  0  0  0
  9 22  1  0  0  0  0
 11 12  1  0  0  0  0
 11 13  1  0  0  0  0
 11 14  1  0  0  0  0
 14 15  1  0  0  0  0
 14 20  2  0  0  0  0
 15 16  1  0  0  0  0
 15 17  1  0  0  0  0
 17 18  1  0  0  0  0
 17 19  2  0  0  0  0
 19 20  1  0  0  0  0
 20 21  1  0  0  0  0
 22 23  2  0  0  0  0
 22 24  1  0  0  0  0
 24 25  1  0  0  0  0
 24 26  1  0  0  0  0
 26 27  1  0  0  0  0
 26 28  1  0  0  0  0
 26 29  1  0  0  0  0
M  END
$$$$

  -OEChem-03222214043D

 29 29  0     1  0  0  0  0  0999 V2000
   -3.0344   -4.0547    0.6229 H   0  0  0  0  0  0  0  0  0  0  0  0
   -2.9863   -3.1332    0.0354 C   0  0  0  0  0  0  0  0  0  0  0  0
   -3.8007   -2.4749    0.3470 H   0  0  0  0  0  0  0  0  0  0  0  0
   -3.1117   -3.3845   -1.0206 H   0  0  0  0  0  0  0  0  0  0  0  0
   -1.6509   -2.4463    0.2519 C   0  0  0  0  0  0  0  0  0  0  0  0
   -0.8589   -2.9010    1.0568 O   0  0  0  0  0  0  0  0  0  0  0  0
   -1.3459   -1.3000   -0.4563 N   0  0  0  0  0  0  0  0  0  0  0  0
   -2.0029   -1.0330   -1.1832 H   0  0  0  0  0  0  0  0  0  0  0  0
   -0.0172   -0.6556   -0.4467 C   0  0  1  0  0  0  0  0  0  0  0  0
    0.7033   -1.4013   -0.8021 H   0  0  0  0  0  0  0  0  0  0  0  0
   -0.0220    0.5295   -1.4337 C   0  0  0  0  0  0  0  0  0  0  0  0
   -0.7180    0.3304   -2.2546 H   0  0  0  0  0  0  0  0  0  0  0  0
   -0.3623    1.4382   -0.9261 H   0  0  0  0  0  0  0  0  0  0  0  0
    1.3466    0.7624   -2.0200 C   0  0  0  0  0  0  0  0  0  0  0  0
    2.5456    0.7821   -1.3438 N   0  0  0  0  0  0  0  0  0  0  0  0
    2.6718    0.5861   -0.3446 H   0  0  0  0  0  0  0  0  0  0  0  0
    3.5594    1.0182   -2.2505 C   0  0  0  0  0  0  0  0  0  0  0  0
    4.6158    1.0759   -2.0043 H   0  0  0  0  0  0  0  0  0  0  0  0
    3.0587    1.1587   -3.4563 N   0  0  0  0  0  0  0  0  0  0  0  0
    1.6830    1.0002   -3.3264 C   0  0  0  0  0  0  0  0  0  0  0  0
    0.9755    1.0555   -4.1482 H   0  0  0  0  0  0  0  0  0  0  0  0
    0.4673   -0.1898    0.9477 C   0  0  0  0  0  0  0  0  0  0  0  0
    1.6658   -0.1834    1.2117 O   0  0  0  0  0  0  0  0  0  0  0  0
   -0.4031    0.4795    1.7896 N   0  0  0  0  0  0  0  0  0  0  0  0
   -1.3918    0.3705    1.5873 H   0  0  0  0  0  0  0  0  0  0  0  0
   -0.0107    0.9717    3.1043 C   0  0  0  0  0  0  0  0  0  0  0  0
    0.8093    1.6922    3.0160 H   0  0  0  0  0  0  0  0  0  0  0  0
   -0.8556    1.4706    3.5884 H   0  0  0  0  0  0  0  0  0  0  0  0
    0.3156    0.1427    3.7411 H   0  0  0  0  0  0  0  0  0  0  0  0
  1  2  1  0  0  0  0
  2  3  1  0  0  0  0
  2  4  1  0  0  0  0
  2  5  1  0  0  0  0
  5  6  2  0  0  0  0
  5  7  1  0  0  0  0
  7  8  1  0  0  0  0
  7  9  1  0  0  0  0
  9 10  1  0  0  0  0
  9 11  1  0  0  0  0
  9 22  1  0  0  0  0
 11 12  1  0  0  0  0
 11 13  1  0  0  0  0
 11 14  1  0  0  0  0
 14 15  1  0  0  0  0
 14 20  2  0  0  0  0
 15 16  1  0  0  0  0
 15 17  1  0  0  0  0
 17 18  1  0  0  0  0
 17 19  2  0  0  0  0
 19 20  1  0  0  0  0
 20 21  1  0  0  0  0
 22 23  2  0  0  0  0
 22 24  1  0  0  0  0
 24 25  1  0  0  0  0
 24 26  1  0  0  0  0
 26 27  1  0  0  0  0
 26 28  1  0  0  0  0
 26 29  1  0  0  0  0
M  END
$$$$

  -OEChem-03222214043D

 29 29  0     1  0  0  0  0  0999 V2000
   -3.0388   -4.0533    0.6126 H   0  0  0  0  0  0  0  0  0  0  0  0
   -2.9922   -3.1295    0.0288 C   0  0  0  0  0  0  0  0  0  0  0  0
   -3.8029   -2.4704    0.3482 H   0  0  0  0  0  0  0  0  0  0  0  0
   -3.1249   -3.3758   -1.0274 H   0  0  0  0  0  0  0  0  0  0  0  0
   -1.6542   -2.4464    0.2406 C   0  0  0  0  0  0  0  0  0  0  0  0
   -0.8576   -2.9069    1.0378 O   0  0  0  0  0  0  0  0  0  0  0  0
   -1.3525   -1.2953   -0.4608 N   0  0  0  0  0  0  0  0  0  0  0  0
   -2.0134   -1.0210   -1.1814 H   0  0  0  0  0  0  0  0  0  0  0  0
   -0.0262   -0.6468   -0.4452 C   0  0  1  0  0  0  0  0  0  0  0  0
    0.6912   -1.3968   -0.7980 H   0  0  0  0  0  0  0  0  0  0  0  0
   -0.0276    0.5288   -1.4437 C   0  0  0  0  0  0  0  0  0  0  0  0
   -0.7184    0.3213   -2.2672 H   0  0  0  0  0  0  0  0  0  0  0  0
   -0.3764    1.4377   -0.9420 H   0  0  0  0  0  0  0  0  0  0  0  0
    1.3414    0.7735   -2.0277 C   0  0  0  0  0  0  0  0  0  0  0  0
    2.5603    0.5410   -1.4292 N   0  0  0  0  0  0  0  0  0  0  0  0
    2.7019    0.2193   -0.4653 H   0  0  0  0  0  0  0  0  0  0  0  0
    3.5607    0.8701   -2.3216 C   0  0  0  0  0  0  0  0  0  0  0  0
    4.6258    0.7993   -2.1197 H   0  0  0  0  0  0  0  0  0  0  0  0
    3.0352    1.2838   -3.4513 N   0  0  0  0  0  0  0  0  0  0  0  0
    1.6558    1.2253   -3.2824 C   0  0  0  0  0  0  0  0  0  0  0  0
    0.9299    1.4962   -4.0432 H   0  0  0  0  0  0  0  0  0  0  0  0
    0.4652   -0.1834    0.9460 C   0  0  0  0  0  0  0  0  0  0  0  0
    1.6639   -0.2093    1.2078 O   0  0  0  0  0  0  0  0  0  0  0  0
   -0.3967    0.4831    1.7985 N   0  0  0  0  0  0  0  0  0  0  0  0
   -1.3869    0.3904    1.5960 H   0  0  0  0  0  0  0  0  0  0  0  0
    0.0043    0.9513    3.1193 C   0  0  0  0  0  0  0  0  0  0  0  0
    0.8336    1.6620    3.0395 H   0  0  0  0  0  0  0  0  0  0  0  0
   -0.8332    1.4543    3.6121 H   0  0  0  0  0  0  0  0  0  0  0  0
    0.3207    0.1093    3.7440 H   0  0  0  0  0  0  0  0  0  0  0  0
  1  2  1  0  0  0  0
  2  3  1  0  0  0  0
  2  4  1  0  0  0  0
  2  5  1  0  0  0  0
  5  6  2  0  0  0  0
  5  7  1  0  0  0  0
  7  8  1  0  0  0  0
  7  9  1  0  0  0  0
  9 10  1  0  0  0  0
  9 11  1  0  0  0  0
  9 22  1  0  0  0  0
 11 12  1  0  0  0  0
 11 13  1  0  0  0  0
 11 14  1  0  0  0  0
 14 15  1  0  0  0  0
 14 20  2  0  0  0  0
 15 16  1  0  0  0  0
 15 17  1  0  0  0  0
 17 18  1  0  0  0  0
 17 19  2  0  0  0  0
 19 20  1  0  0  0  0
 20 21  1  0  0  0  0
 22 23  2  0  0  0  0
 22 24  1  0  0  0  0
 24 25  1  0  0  0  0
 24 26  1  0  0  0  0
 26 27  1  0  0  0  0
 26 28  1  0  0  0  0
 26 29  1  0  0  0  0
M  END
$$$$

  -OEChem-03222214043D

 29 29  0     1  0  0  0  0  0999 V2000
   -3.0443   -4.0629    0.5941 H   0  0  0  0  0  0  0  0  0  0  0  0
   -3.0009   -3.1375    0.0124 C   0  0  0  0  0  0  0  0  0  0  0  0
   -3.8151   -2.4829    0.3320 H   0  0  0  0  0  0  0  0  0  0  0  0
   -3.1303   -3.3824   -1.0445 H   0  0  0  0  0  0  0  0  0  0  0  0
   -1.6662   -2.4495    0.2279 C   0  0  0  0  0  0  0  0  0  0  0  0
   -0.8654   -2.9149    1.0181 O   0  0  0  0  0  0  0  0  0  0  0  0
   -1.3691   -1.2917   -0.4647 N   0  0  0  0  0  0  0  0  0  0  0  0
   -2.0339   -1.0081   -1.1781 H   0  0  0  0  0  0  0  0  0  0  0  0
   -0.0452   -0.6394   -0.4419 C   0  0  1  0  0  0  0  0  0  0  0  0
    0.6649   -1.3968   -0.7923 H   0  0  0  0  0  0  0  0  0  0  0  0
   -0.0372    0.5257   -1.4523 C   0  0  0  0  0  0  0  0  0  0  0  0
   -0.7155    0.3042   -2.2824 H   0  0  0  0  0  0  0  0  0  0  0  0
   -0.3988    1.4369   -0.9643 H   0  0  0  0  0  0  0  0  0  0  0  0
    1.3355    0.7764   -2.0269 C   0  0  0  0  0  0  0  0  0  0  0  0
    2.5468    0.3145   -1.5583 N   0  0  0  0  0  0  0  0  0  0  0  0
    2.6999   -0.1406   -0.6527 H   0  0  0  0  0  0  0  0  0  0  0  0
    3.5425    0.7446   -2.4127 C   0  0  0  0  0  0  0  0  0  0  0  0
    4.6038    0.5545   -2.2801 H   0  0  0  0  0  0  0  0  0  0  0  0
    3.0193    1.4235   -3.4067 N   0  0  0  0  0  0  0  0  0  0  0  0
    1.6474    1.4473   -3.1800 C   0  0  0  0  0  0  0  0  0  0  0  0
    0.9233    1.9263   -3.8322 H   0  0  0  0  0  0  0  0  0  0  0  0
    0.4615   -0.1780    0.9419 C   0  0  0  0  0  0  0  0  0  0  0  0
    1.6617   -0.2312    1.1907 O   0  0  0  0  0  0  0  0  0  0  0  0
   -0.3860    0.4871    1.8094 N   0  0  0  0  0  0  0  0  0  0  0  0
   -1.3791    0.4140    1.6136 H   0  0  0  0  0  0  0  0  0  0  0  0
    0.0356    0.9468    3.1267 C   0  0  0  0  0  0  0  0  0  0  0  0
    0.8728    1.6471    3.0386 H   0  0  0  0  0  0  0  0  0  0  0  0
   -0.7892    1.4595    3.6306 H   0  0  0  0  0  0  0  0  0  0  0  0
    0.3485    0.0995    3.7458 H   0  0  0  0  0  0  0  0  0  0  0  0
  1  2  1  0  0  0  0
  2  3  1  0  0  0  0
  2  4  1  0  0  0  0
  2  5  1  0  0  0  0
  5  6  2  0  0  0  0
  5  7  1  0  0  0  0
  7  8  1  0  0  0  0
  7  9  1  0  0  0  0
  9 10  1  0  0  0  0
  9 11  1  0  0  0  0
  9 22  1  0  0  0  0
 11 12  1  0  0  0  0
 11 13  1  0  0  0  0
 11 14  1  0  0  0  0
 14 15  1  0  0  0  0
 14 20  2  0  0  0  0
 15 16  1  0  0  0  0
 15 17  1  0  0  0  0
 17 18  1  0  0  0  0
 17 19  2  0  0  0  0
 19 20  1  0  0  0  0
 20 21  1  0  0  0  0
 22 23  2  0  0  0  0
 22 24  1  0  0  0  0
 24 25  1  0  0  0  0
 24 26  1  0  0  0  0
 26 27  1  0  0  0  0
 26 28  1  0  0  0  0
 26 29  1  0  0  0  0
M  END
$$$$

  -OEChem-03222214043D

 29 29  0     1  0  0  0  0  0999 V2000
   -3.0636   -4.0552    0.6081 H   0  0  0  0  0  0  0  0  0  0  0  0
   -3.0167   -3.1323    0.0229 C   0  0  0  0  0  0  0  0  0  0  0  0
   -3.8201   -2.4678    0.3495 H   0  0  0  0  0  0  0  0  0  0  0  0
   -3.1602   -3.3787   -1.0319 H   0  0  0  0  0  0  0  0  0  0  0  0
   -1.6725   -2.4582    0.2213 C   0  0  0  0  0  0  0  0  0  0  0  0
   -0.8636   -2.9340    0.9968 O   0  0  0  0  0  0  0  0  0  0  0  0
   -1.3745   -1.3010   -0.4714 N   0  0  0  0  0  0  0  0  0  0  0  0
   -2.0487   -1.0027   -1.1697 H   0  0  0  0  0  0  0  0  0  0  0  0
   -0.0522   -0.6465   -0.4449 C   0  0  1  0  0  0  0  0  0  0  0  0
    0.6535   -1.4108   -0.7869 H   0  0  0  0  0  0  0  0  0  0  0  0
   -0.0382    0.5085   -1.4655 C   0  0  0  0  0  0  0  0  0  0  0  0
   -0.7036    0.2673   -2.3004 H   0  0  0  0  0  0  0  0  0  0  0  0
   -0.4165    1.4227   -0.9958 H   0  0  0  0  0  0  0  0  0  0  0  0
    1.3350    0.7648   -2.0368 C   0  0  0  0  0  0  0  0  0  0  0  0
    2.5183    0.1142   -1.7563 N   0  0  0  0  0  0  0  0  0  0  0  0
    2.6750   -0.5186   -0.9688 H   0  0  0  0  0  0  0  0  0  0  0  0
    3.5167    0.6673   -2.5340 C   0  0  0  0  0  0  0  0  0  0  0  0
    4.5637    0.3801   -2.5011 H   0  0  0  0  0  0  0  0  0  0  0  0
    3.0191    1.5992   -3.3124 N   0  0  0  0  0  0  0  0  0  0  0  0
    1.6636    1.6698   -3.0117 C   0  0  0  0  0  0  0  0  0  0  0  0
    0.9619    2.3473   -3.4887 H   0  0  0  0  0  0  0  0  0  0  0  0
    0.4597   -0.1782    0.9329 C   0  0  0  0  0  0  0  0  0  0  0  0
    1.6580   -0.2527    1.1813 O   0  0  0  0  0  0  0  0  0  0  0  0
   -0.3817    0.4914    1.8029 N   0  0  0  0  0  0  0  0  0  0  0  0
   -1.3753    0.4319    1.6059 H   0  0  0  0  0  0  0  0  0  0  0  0
    0.0456    0.9438    3.1209 C   0  0  0  0  0  0  0  0  0  0  0  0
    0.8899    1.6361    3.0340 H   0  0  0  0  0  0  0  0  0  0  0  0
   -0.7737    1.4631    3.6269 H   0  0  0  0  0  0  0  0  0  0  0  0
    0.3505    0.0913    3.7370 H   0  0  0  0  0  0  0  0  0  0  0  0
  1  2  1  0  0  0  0
  2  3  1  0  0  0  0
  2  4  1  0  0  0  0
  2  5  1  0  0  0  0
  5  6  2  0  0  0  0
  5  7  1  0  0  0  0
  7  8  1  0  0  0  0
  7  9  1  0  0  0  0
  9 10  1  0  0  0  0
  9 11  1  0  0  0  0
  9 22  1  0  0  0  0
 11 12  1  0  0  0  0
 11 13  1  0  0  0  0
 11 14  1  0  0  0  0
 14 15  1  0  0  0  0
 14 20  2  0  0  0  0
 15 16  1  0  0  0  0
 15 17  1  0  0  0  0
 17 18  1  0  0  0  0
 17 19  2  0  0  0  0
 19 20  1  0  0  0  0
 20 21  1  0  0  0  0
 22 23  2  0  0  0  0
 22 24  1  0  0  0  0
 24 25  1  0  0  0  0
 24 26  1  0  0  0  0
 26 27  1  0  0  0  0
 26 28  1  0  0  0  0
 26 29  1  0  0  0  0
M  END
$$$$

  -OEChem-03222214043D

 29 29  0     1  0  0  0  0  0999 V2000
   -3.0851   -4.0367    0.6447 H   0  0  0  0  0  0  0  0  0  0  0  0
   -3.0305   -3.1196    0.0510 C   0  0  0  0  0  0  0  0  0  0  0  0
   -3.8187   -2.4393    0.3821 H   0  0  0  0  0  0  0  0  0  0  0  0
   -3.1919   -3.3724   -0.9997 H   0  0  0  0  0  0  0  0  0  0  0  0
   -1.6728   -2.4660    0.2266 C   0  0  0  0  0  0  0  0  0  0  0  0
   -0.8595   -2.9535    0.9899 O   0  0  0  0  0  0  0  0  0  0  0  0
   -1.3659   -1.3166   -0.4753 N   0  0  0  0  0  0  0  0  0  0  0  0
   -2.0485   -1.0036   -1.1590 H   0  0  0  0  0  0  0  0  0  0  0  0
   -0.0410   -0.6660   -0.4521 C   0  0  1  0  0  0  0  0  0  0  0  0
    0.6669   -1.4303   -0.7873 H   0  0  0  0  0  0  0  0  0  0  0  0
   -0.0301    0.4903   -1.4709 C   0  0  0  0  0  0  0  0  0  0  0  0
   -0.6928    0.2373   -2.3046 H   0  0  0  0  0  0  0  0  0  0  0  0
   -0.4185    1.4038   -1.0078 H   0  0  0  0  0  0  0  0  0  0  0  0
    1.3360    0.7540   -2.0562 C   0  0  0  0  0  0  0  0  0  0  0  0
    2.4674   -0.0347   -2.0274 N   0  0  0  0  0  0  0  0  0  0  0  0
    2.5948   -0.8789   -1.4700 H   0  0  0  0  0  0  0  0  0  0  0  0
    3.4811    0.6300   -2.6907 C   0  0  0  0  0  0  0  0  0  0  0  0
    4.4970    0.2629   -2.8052 H   0  0  0  0  0  0  0  0  0  0  0  0
    3.0417    1.7734   -3.1593 N   0  0  0  0  0  0  0  0  0  0  0  0
    1.7129    1.8662   -2.7628 C   0  0  0  0  0  0  0  0  0  0  0  0
    1.0624    2.7068   -2.9848 H   0  0  0  0  0  0  0  0  0  0  0  0
    0.4607   -0.1892    0.9266 C   0  0  0  0  0  0  0  0  0  0  0  0
    1.6534   -0.2702    1.1932 O   0  0  0  0  0  0  0  0  0  0  0  0
   -0.3880    0.4885    1.7837 N   0  0  0  0  0  0  0  0  0  0  0  0
   -1.3796    0.4349    1.5755 H   0  0  0  0  0  0  0  0  0  0  0  0
    0.0281    0.9489    3.1025 C   0  0  0  0  0  0  0  0  0  0  0  0
    0.8766    1.6361    3.0189 H   0  0  0  0  0  0  0  0  0  0  0  0
   -0.7934    1.4762    3.5964 H   0  0  0  0  0  0  0  0  0  0  0  0
    0.3229    0.0997    3.7279 H   0  0  0  0  0  0  0  0  0  0  0  0
  1  2  1  0  0  0  0
  2  3  1  0  0  0  0
  2  4  1  0  0  0  0
  2  5  1  0  0  0  0
  5  6  2  0  0  0  0
  5  7  1  0  0  0  0
  7  8  1  0  0  0  0
  7  9  1  0  0  0  0
  9 10  1  0  0  0  0
  9 11  1  0  0  0  0
  9 22  1  0  0  0  0
 11 12  1  0  0  0  0
 11 13  1  0  0  0  0
 11 14  1  0  0  0  0
 14 15  1  0  0  0  0
 14 20  2  0  0  0  0
 15 16  1  0  0  0  0
 15 17  1  0  0  0  0
 17 18  1  0  0  0  0
 17 19  2  0  0  0  0
 19 20  1  0  0  0  0
 20 21  1  0  0  0  0
 22 23  2  0  0  0  0
 22 24  1  0  0  0  0
 24 25  1  0  0  0  0
 24 26  1  0  0  0  0
 26 27  1  0  0  0  0
 26 28  1  0  0  0  0
 26 29  1  0  0  0  0
M  END
$$$$

  -OEChem-03222214043D

 29 29  0     1  0  0  0  0  0999 V2000
   -3.0792   -4.0219    0.6753 H   0  0  0  0  0  0  0  0  0  0  0  0
   -3.0248   -3.1070    0.0781 C   0  0  0  0  0  0  0  0  0  0  0  0
   -3.7971   -2.4157    0.4236 H   0  0  0  0  0  0  0  0  0  0  0  0
   -3.2110   -3.3600   -0.9683 H   0  0  0  0  0  0  0  0  0  0  0  0
   -1.6550   -2.4716    0.2239 C   0  0  0  0  0  0  0  0  0  0  0  0
   -0.8283   -2.9759    0.9612 O   0  0  0  0  0  0  0  0  0  0  0  0
   -1.3501   -1.3238   -0.4817 N   0  0  0  0  0  0  0  0  0  0  0  0
   -2.0504   -0.9889   -1.1365 H   0  0  0  0  0  0  0  0  0  0  0  0
   -0.0267   -0.6697   -0.4644 C   0  0  1  0  0  0  0  0  0  0  0  0
    0.6900   -1.4248   -0.8018 H   0  0  0  0  0  0  0  0  0  0  0  0
   -0.0323    0.4955   -1.4731 C   0  0  0  0  0  0  0  0  0  0  0  0
   -0.6999    0.2436   -2.3029 H   0  0  0  0  0  0  0  0  0  0  0  0
   -0.4234    1.4031   -1.0011 H   0  0  0  0  0  0  0  0  0  0  0  0
    1.3269    0.7667   -2.0699 C   0  0  0  0  0  0  0  0  0  0  0  0
    2.3663   -0.1083   -2.3079 N   0  0  0  0  0  0  0  0  0  0  0  0
    2.4066   -1.0870   -2.0298 H   0  0  0  0  0  0  0  0  0  0  0  0
    3.4213    0.6022   -2.8482 C   0  0  0  0  0  0  0  0  0  0  0  0
    4.3840    0.1788   -3.1202 H   0  0  0  0  0  0  0  0  0  0  0  0
    3.0938    1.8645   -2.9855 N   0  0  0  0  0  0  0  0  0  0  0  0
    1.7997    1.9820   -2.4919 C   0  0  0  0  0  0  0  0  0  0  0  0
    1.2402    2.9116   -2.4491 H   0  0  0  0  0  0  0  0  0  0  0  0
    0.4643   -0.1920    0.9188 C   0  0  0  0  0  0  0  0  0  0  0  0
    1.6531   -0.2654    1.2009 O   0  0  0  0  0  0  0  0  0  0  0  0
   -0.3968    0.4812    1.7676 N   0  0  0  0  0  0  0  0  0  0  0  0
   -1.3854    0.4258    1.5475 H   0  0  0  0  0  0  0  0  0  0  0  0
    0.0027    0.9474    3.0896 C   0  0  0  0  0  0  0  0  0  0  0  0
    0.8484    1.6391    3.0134 H   0  0  0  0  0  0  0  0  0  0  0  0
   -0.8272    1.4716    3.5728 H   0  0  0  0  0  0  0  0  0  0  0  0
    0.2953    0.1013    3.7205 H   0  0  0  0  0  0  0  0  0  0  0  0
  1  2  1  0  0  0  0
  2  3  1  0  0  0  0
  2  4  1  0  0  0  0
  2  5  1  0  0  0  0
  5  6  2  0  0  0  0
  5  7  1  0  0  0  0
  7  8  1  0  0  0  0
  7  9  1  0  0  0  0
  9 10  1  0  0  0  0
  9 11  1  0  0  0  0
  9 22  1  0  0  0  0
 11 12  1  0  0  0  0
 11 13  1  0  0  0  0
 11 14  1  0  0  0  0
 14 15  1  0  0  0  0
 14 20  2  0  0  0  0
 15 16  1  0  0  0  0
 15 17  1  0  0  0  0
 17 18  1  0  0  0  0
 17 19  2  0  0  0  0
 19 20  1  0  0  0  0
 20 21  1  0  0  0  0
 22 23  2  0  0  0  0
 22 24  1  0  0  0  0
 24 25  1  0  0  0  0
 24 26  1  0  0  0  0
 26 27  1  0  0  0  0
 26 28  1  0  0  0  0
 26 29  1  0  0  0  0
M  END
$$$$

  -OEChem-03222214043D

 29 29  0     1  0  0  0  0  0999 V2000
   -3.0609   -4.0225    0.6772 H   0  0  0  0  0  0  0  0  0  0  0  0
   -3.0101   -3.1071    0.0804 C   0  0  0  0  0  0  0  0  0  0  0  0
   -3.7801   -2.4159    0.4313 H   0  0  0  0  0  0  0  0  0  0  0  0
   -3.2035   -3.3594   -0.9650 H   0  0  0  0  0  0  0  0  0  0  0  0
   -1.6390   -2.4721    0.2169 C   0  0  0  0  0  0  0  0  0  0  0  0
   -0.8054   -2.9802    0.9436 O   0  0  0  0  0  0  0  0  0  0  0  0
   -1.3409   -1.3215   -0.4868 N   0  0  0  0  0  0  0  0  0  0  0  0
   -2.0502   -0.9796   -1.1281 H   0  0  0  0  0  0  0  0  0  0  0  0
   -0.0208   -0.6602   -0.4719 C   0  0  1  0  0  0  0  0  0  0  0  0
    0.7054   -1.4036   -0.8156 H   0  0  0  0  0  0  0  0  0  0  0  0
   -0.0416    0.5146   -1.4682 C   0  0  0  0  0  0  0  0  0  0  0  0
   -0.7147    0.2730   -2.2965 H   0  0  0  0  0  0  0  0  0  0  0  0
   -0.4304    1.4161   -0.9825 H   0  0  0  0  0  0  0  0  0  0  0  0
    1.3155    0.7885   -2.0652 C   0  0  0  0  0  0  0  0  0  0  0  0
    2.2352   -0.1083   -2.5664 N   0  0  0  0  0  0  0  0  0  0  0  0
    2.1595   -1.1232   -2.5534 H   0  0  0  0  0  0  0  0  0  0  0  0
    3.3417    0.5976   -3.0003 C   0  0  0  0  0  0  0  0  0  0  0  0
    4.2350    0.1547   -3.4313 H   0  0  0  0  0  0  0  0  0  0  0  0
    3.1577    1.8832   -2.8205 N   0  0  0  0  0  0  0  0  0  0  0  0
    1.9081    2.0142   -2.2255 C   0  0  0  0  0  0  0  0  0  0  0  0
    1.4621    2.9600   -1.9330 H   0  0  0  0  0  0  0  0  0  0  0  0
    0.4646   -0.1850    0.9151 C   0  0  0  0  0  0  0  0  0  0  0  0
    1.6531   -0.2427    1.1999 O   0  0  0  0  0  0  0  0  0  0  0  0
   -0.4033    0.4793    1.7645 N   0  0  0  0  0  0  0  0  0  0  0  0
   -1.3915    0.4118    1.5459 H   0  0  0  0  0  0  0  0  0  0  0  0
   -0.0076    0.9467    3.0874 C   0  0  0  0  0  0  0  0  0  0  0  0
    0.8328    1.6451    3.0122 H   0  0  0  0  0  0  0  0  0  0  0  0
   -0.8417    1.4637    3.5713 H   0  0  0  0  0  0  0  0  0  0  0  0
    0.2919    0.1024    3.7172 H   0  0  0  0  0  0  0  0  0  0  0  0
  1  2  1  0  0  0  0
  2  3  1  0  0  0  0
  2  4  1  0  0  0  0
  2  5  1  0  0  0  0
  5  6  2  0  0  0  0
  5  7  1  0  0  0  0
  7  8  1  0  0  0  0
  7  9  1  0  0  0  0
  9 10  1  0  0  0  0
  9 11  1  0  0  0  0
  9 22  1  0  0  0  0
 11 12  1  0  0  0  0
 11 13  1  0  0  0  0
 11 14  1  0  0  0  0
 14 15  1  0  0  0  0
 14 20  2  0  0  0  0
 15 16  1  0  0  0  0
 15 17  1  0  0  0  0
 17 18  1  0  0  0  0
 17 19  2  0  0  0  0
 19 20  1  0  0  0  0
 20 21  1  0  0  0  0
 22 23  2  0  0  0  0
 22 24  1  0  0  0  0
 24 25  1  0  0  0  0
 24 26  1  0  0  0  0
 26 27  1  0  0  0  0
 26 28  1  0  0  0  0
 26 29  1  0  0  0  0
M  END
$$$$

  -OEChem-03222214043D

 29 29  0     1  0  0  0  0  0999 V2000
   -3.0405   -4.0250    0.6669 H   0  0  0  0  0  0  0  0  0  0  0  0
   -2.9938   -3.1062    0.0751 C   0  0  0  0  0  0  0  0  0  0  0  0
   -3.7620   -2.4176    0.4345 H   0  0  0  0  0  0  0  0  0  0  0  0
   -3.1929   -3.3522   -0.9706 H   0  0  0  0  0  0  0  0  0  0  0  0
   -1.6227   -2.4707    0.2080 C   0  0  0  0  0  0  0  0  0  0  0  0
   -0.7862   -2.9800    0.9303 O   0  0  0  0  0  0  0  0  0  0  0  0
   -1.3310   -1.3150   -0.4900 N   0  0  0  0  0  0  0  0  0  0  0  0
   -2.0455   -0.9691   -1.1232 H   0  0  0  0  0  0  0  0  0  0  0  0
   -0.0141   -0.6470   -0.4755 C   0  0  1  0  0  0  0  0  0  0  0  0
    0.7203   -1.3789   -0.8285 H   0  0  0  0  0  0  0  0  0  0  0  0
   -0.0478    0.5369   -1.4596 C   0  0  0  0  0  0  0  0  0  0  0  0
   -0.7280    0.3113   -2.2867 H   0  0  0  0  0  0  0  0  0  0  0  0
   -0.4276    1.4334   -0.9577 H   0  0  0  0  0  0  0  0  0  0  0  0
    1.3101    0.8081   -2.0512 C   0  0  0  0  0  0  0  0  0  0  0  0
    2.0952   -0.0401   -2.8016 N   0  0  0  0  0  0  0  0  0  0  0  0
    1.8957   -1.0131   -3.0222 H   0  0  0  0  0  0  0  0  0  0  0  0
    3.2540    0.6307   -3.1457 C   0  0  0  0  0  0  0  0  0  0  0  0
    4.0696    0.2100   -3.7266 H   0  0  0  0  0  0  0  0  0  0  0  0
    3.2267    1.8535   -2.6740 N   0  0  0  0  0  0  0  0  0  0  0  0
    2.0283    1.9732   -1.9783 C   0  0  0  0  0  0  0  0  0  0  0  0
    1.7040    2.8692   -1.4574 H   0  0  0  0  0  0  0  0  0  0  0  0
    0.4660   -0.1795    0.9165 C   0  0  0  0  0  0  0  0  0  0  0  0
    1.6553   -0.2162    1.2005 O   0  0  0  0  0  0  0  0  0  0  0  0
   -0.4100    0.4727    1.7671 N   0  0  0  0  0  0  0  0  0  0  0  0
   -1.3973    0.3882    1.5505 H   0  0  0  0  0  0  0  0  0  0  0  0
   -0.0205    0.9428    3.0908 C   0  0  0  0  0  0  0  0  0  0  0  0
    0.8131    1.6493    3.0169 H   0  0  0  0  0  0  0  0  0  0  0  0
   -0.8600    1.4514    3.5742 H   0  0  0  0  0  0  0  0  0  0  0  0
    0.2865    0.1009    3.7205 H   0  0  0  0  0  0  0  0  0  0  0  0
  1  2  1  0  0  0  0
  2  3  1  0  0  0  0
  2  4  1  0  0  0  0
  2  5  1  0  0  0  0
  5  6  2  0  0  0  0
  5  7  1  0  0  0  0
  7  8  1  0  0  0  0
  7  9  1  0  0  0  0
  9 10  1  0  0  0  0
  9 11  1  0  0  0  0
  9 22  1  0  0  0  0
 11 12  1  0  0  0  0
 11 13  1  0  0  0  0
 11 14  1  0  0  0  0
 14 15  1  0  0  0  0
 14 20  2  0  0  0  0
 15 16  1  0  0  0  0
 15 17  1  0  0  0  0
 17 18  1  0  0  0  0
 17 19  2  0  0  0  0
 19 20  1  0  0  0  0
 20 21  1  0  0  0  0
 22 23  2  0  0  0  0
 22 24  1  0  0  0  0
 24 25  1  0  0  0  0
 24 26  1  0  0  0  0
 26 27  1  0  0  0  0
 26 28  1  0  0  0  0
 26 29  1  0  0  0  0
M  END
$$$$

  -OEChem-03222214043D

 29 29  0     1  0  0  0  0  0999 V2000
   -3.0327   -4.0286    0.6526 H   0  0  0  0  0  0  0  0  0  0  0  0
   -2.9864   -3.1080    0.0635 C   0  0  0  0  0  0  0  0  0  0  0  0
   -3.7611   -2.4245    0.4188 H   0  0  0  0  0  0  0  0  0  0  0  0
   -3.1763   -3.3526   -0.9843 H   0  0  0  0  0  0  0  0  0  0  0  0
   -1.6196   -2.4657    0.2090 C   0  0  0  0  0  0  0  0  0  0  0  0
   -0.7887   -2.9701    0.9410 O   0  0  0  0  0  0  0  0  0  0  0  0
   -1.3279   -1.3083   -0.4861 N   0  0  0  0  0  0  0  0  0  0  0  0
   -2.0373   -0.9694   -1.1284 H   0  0  0  0  0  0  0  0  0  0  0  0
   -0.0106   -0.6406   -0.4713 C   0  0  1  0  0  0  0  0  0  0  0  0
    0.7263   -1.3675   -0.8314 H   0  0  0  0  0  0  0  0  0  0  0  0
   -0.0466    0.5495   -1.4468 C   0  0  0  0  0  0  0  0  0  0  0  0
   -0.7345    0.3402   -2.2717 H   0  0  0  0  0  0  0  0  0  0  0  0
   -0.4149    1.4434   -0.9318 H   0  0  0  0  0  0  0  0  0  0  0  0
    1.3127    0.8166   -2.0360 C   0  0  0  0  0  0  0  0  0  0  0  0
    1.9663    0.0942   -3.0107 N   0  0  0  0  0  0  0  0  0  0  0  0
    1.6474   -0.7713   -3.4397 H   0  0  0  0  0  0  0  0  0  0  0  0
    3.1708    0.7175   -3.2795 C   0  0  0  0  0  0  0  0  0  0  0  0
    3.9065    0.3709   -3.9996 H   0  0  0  0  0  0  0  0  0  0  0  0
    3.2968    1.7949   -2.5439 N   0  0  0  0  0  0  0  0  0  0  0  0
    2.1526    1.8633   -1.7556 C   0  0  0  0  0  0  0  0  0  0  0  0
    1.9484    2.6449   -1.0298 H   0  0  0  0  0  0  0  0  0  0  0  0
    0.4669   -0.1787    0.9239 C   0  0  0  0  0  0  0  0  0  0  0  0
    1.6574   -0.1972    1.2043 O   0  0  0  0  0  0  0  0  0  0  0  0
   -0.4132    0.4692    1.7736 N   0  0  0  0  0  0  0  0  0  0  0  0
   -1.3997    0.3709    1.5598 H   0  0  0  0  0  0  0  0  0  0  0  0
   -0.0275    0.9429    3.0973 C   0  0  0  0  0  0  0  0  0  0  0  0
    0.7981    1.6587    3.0230 H   0  0  0  0  0  0  0  0  0  0  0  0
   -0.8721    1.4419    3.5818 H   0  0  0  0  0  0  0  0  0  0  0  0
    0.2893    0.1043    3.7265 H   0  0  0  0  0  0  0  0  0  0  0  0
  1  2  1  0  0  0  0
  2  3  1  0  0  0  0
  2  4  1  0  0  0  0
  2  5  1  0  0  0  0
  5  6  2  0  0  0  0
  5  7  1  0  0  0  0
  7  8  1  0  0  0  0
  7  9  1  0  0  0  0
  9 10  1  0  0  0  0
  9 11  1  0  0  0  0
  9 22  1  0  0  0  0
 11 12  1  0  0  0  0
 11 13  1  0  0  0  0
 11 14  1  0  0  0  0
 14 15  1  0  0  0  0
 14 20  2  0  0  0  0
 15 16  1  0  0  0  0
 15 17  1  0  0  0  0
 17 18  1  0  0  0  0
 17 19  2  0  0  0  0
 19 20  1  0  0  0  0
 20 21  1  0  0  0  0
 22 23  2  0  0  0  0
 22 24  1  0  0  0  0
 24 25  1  0  0  0  0
 24 26  1  0  0  0  0
 26 27  1  0  0  0  0
 26 28  1  0  0  0  0
 26 29  1  0  0  0  0
M  END
$$$$

  -OEChem-03222214043D

 29 29  0     1  0  0  0  0  0999 V2000
   -3.0307   -4.0308    0.6432 H   0  0  0  0  0  0  0  0  0  0  0  0
   -2.9821   -3.1106    0.0538 C   0  0  0  0  0  0  0  0  0  0  0  0
   -3.7653   -2.4310    0.3980 H   0  0  0  0  0  0  0  0  0  0  0  0
   -3.1566   -3.3577   -0.9960 H   0  0  0  0  0  0  0  0  0  0  0  0
   -1.6213   -2.4599    0.2158 C   0  0  0  0  0  0  0  0  0  0  0  0
   -0.7985   -2.9563    0.9623 O   0  0  0  0  0  0  0  0  0  0  0  0
   -1.3275   -1.3030   -0.4798 N   0  0  0  0  0  0  0  0  0  0  0  0
   -2.0282   -0.9767   -1.1379 H   0  0  0  0  0  0  0  0  0  0  0  0
   -0.0087   -0.6377   -0.4656 C   0  0  1  0  0  0  0  0  0  0  0  0
    0.7278   -1.3638   -0.8289 H   0  0  0  0  0  0  0  0  0  0  0  0
   -0.0443    0.5550   -1.4384 C   0  0  0  0  0  0  0  0  0  0  0  0
   -0.7392    0.3560   -2.2598 H   0  0  0  0  0  0  0  0  0  0  0  0
   -0.4028    1.4486   -0.9160 H   0  0  0  0  0  0  0  0  0  0  0  0
    1.3146    0.8206   -2.0294 C   0  0  0  0  0  0  0  0  0  0  0  0
    1.8485    0.2893   -3.1833 N   0  0  0  0  0  0  0  0  0  0  0  0
    1.4196   -0.4114   -3.7831 H   0  0  0  0  0  0  0  0  0  0  0  0
    3.0983    0.8465   -3.3800 C   0  0  0  0  0  0  0  0  0  0  0  0
    3.7628    0.6125   -4.2066 H   0  0  0  0  0  0  0  0  0  0  0  0
    3.3664    1.7054   -2.4276 N   0  0  0  0  0  0  0  0  0  0  0  0
    2.2687    1.6935   -1.5723 C   0  0  0  0  0  0  0  0  0  0  0  0
    2.1754    2.3008   -0.6768 H   0  0  0  0  0  0  0  0  0  0  0  0
    0.4668   -0.1779    0.9315 C   0  0  0  0  0  0  0  0  0  0  0  0
    1.6575   -0.1900    1.2110 O   0  0  0  0  0  0  0  0  0  0  0  0
   -0.4139    0.4706    1.7803 N   0  0  0  0  0  0  0  0  0  0  0  0
   -1.4005    0.3700    1.5672 H   0  0  0  0  0  0  0  0  0  0  0  0
   -0.0291    0.9426    3.1049 C   0  0  0  0  0  0  0  0  0  0  0  0
    0.7922    1.6635    3.0318 H   0  0  0  0  0  0  0  0  0  0  0  0
   -0.8763    1.4348    3.5919 H   0  0  0  0  0  0  0  0  0  0  0  0
    0.2933    0.1035    3.7307 H   0  0  0  0  0  0  0  0  0  0  0  0
  1  2  1  0  0  0  0
  2  3  1  0  0  0  0
  2  4  1  0  0  0  0
  2  5  1  0  0  0  0
  5  6  2  0  0  0  0
  5  7  1  0  0  0  0
  7  8  1  0  0  0  0
  7  9  1  0  0  0  0
  9 10  1  0  0  0  0
  9 11  1  0  0  0  0
  9 22  1  0  0  0  0
 11 12  1  0  0  0  0
 11 13  1  0  0  0  0
 11 14  1  0  0  0  0
 14 15  1  0  0  0  0
 14 20  2  0  0  0  0
 15 16  1  0  0  0  0
 15 17  1  0  0  0  0
 17 18  1  0  0  0  0
 17 19  2  0  0  0  0
 19 20  1  0  0  0  0
 20 21  1  0  0  0  0
 22 23  2  0  0  0  0
 22 24  1  0  0  0  0
 24 25  1  0  0  0  0
 24 26  1  0  0  0  0
 26 27  1  0  0  0  0
 26 28  1  0  0  0  0
 26 29  1  0  0  0  0
M  END
$$$$

  -OEChem-03222214043D

 29 29  0     1  0  0  0  0  0999 V2000
   -3.0253   -4.0309    0.6361 H   0  0  0  0  0  0  0  0  0  0  0  0
   -2.9772   -3.1089    0.0493 C   0  0  0  0  0  0  0  0  0  0  0  0
   -3.7660   -2.4342    0.3901 H   0  0  0  0  0  0  0  0  0  0  0  0
   -3.1434   -3.3539   -1.0024 H   0  0  0  0  0  0  0  0  0  0  0  0
   -1.6208   -2.4521    0.2234 C   0  0  0  0  0  0  0  0  0  0  0  0
   -0.8056   -2.9423    0.9821 O   0  0  0  0  0  0  0  0  0  0  0  0
   -1.3230   -1.2966   -0.4729 N   0  0  0  0  0  0  0  0  0  0  0  0
   -2.0146   -0.9799   -1.1453 H   0  0  0  0  0  0  0  0  0  0  0  0
   -0.0021   -0.6348   -0.4555 C   0  0  1  0  0  0  0  0  0  0  0  0
    0.7349   -1.3624   -0.8150 H   0  0  0  0  0  0  0  0  0  0  0  0
   -0.0344    0.5558   -1.4329 C   0  0  0  0  0  0  0  0  0  0  0  0
   -0.7307    0.3523   -2.2519 H   0  0  0  0  0  0  0  0  0  0  0  0
   -0.3937    1.4515   -0.9149 H   0  0  0  0  0  0  0  0  0  0  0  0
    1.3223    0.8276   -2.0292 C   0  0  0  0  0  0  0  0  0  0  0  0
    1.7477    0.5317   -3.3063 N   0  0  0  0  0  0  0  0  0  0  0  0
    1.2202    0.0364   -4.0212 H   0  0  0  0  0  0  0  0  0  0  0  0
    3.0383    1.0040   -3.4565 C   0  0  0  0  0  0  0  0  0  0  0  0
    3.6381    0.9091   -4.3572 H   0  0  0  0  0  0  0  0  0  0  0  0
    3.4356    1.5908   -2.3550 N   0  0  0  0  0  0  0  0  0  0  0  0
    2.3806    1.4847   -1.4528 C   0  0  0  0  0  0  0  0  0  0  0  0
    2.3890    1.8814   -0.4415 H   0  0  0  0  0  0  0  0  0  0  0  0
    0.4644   -0.1776    0.9462 C   0  0  0  0  0  0  0  0  0  0  0  0
    1.6520   -0.2011    1.2381 O   0  0  0  0  0  0  0  0  0  0  0  0
   -0.4198    0.4719    1.7906 N   0  0  0  0  0  0  0  0  0  0  0  0
   -1.4051    0.3718    1.5716 H   0  0  0  0  0  0  0  0  0  0  0  0
   -0.0423    0.9332    3.1211 C   0  0  0  0  0  0  0  0  0  0  0  0
    0.7853    1.6480    3.0589 H   0  0  0  0  0  0  0  0  0  0  0  0
   -0.8892    1.4297    3.6042 H   0  0  0  0  0  0  0  0  0  0  0  0
    0.2686    0.0884    3.7450 H   0  0  0  0  0  0  0  0  0  0  0  0
  1  2  1  0  0  0  0
  2  3  1  0  0  0  0
  2  4  1  0  0  0  0
  2  5  1  0  0  0  0
  5  6  2  0  0  0  0
  5  7  1  0  0  0  0
  7  8  1  0  0  0  0
  7  9  1  0  0  0  0
  9 10  1  0  0  0  0
  9 11  1  0  0  0  0
  9 22  1  0  0  0  0
 11 12  1  0  0  0  0
 11 13  1  0  0  0  0
 11 14  1  0  0  0  0
 14 15  1  0  0  0  0
 14 20  2  0  0  0  0
 15 16  1  0  0  0  0
 15 17  1  0  0  0  0
 17 18  1  0  0  0  0
 17 19  2  0  0  0  0
 19 20  1  0  0  0  0
 20 21  1  0  0  0  0
 22 23  2  0  0  0  0
 22 24  1  0  0  0  0
 24 25  1  0  0  0  0
 24 26  1  0  0  0  0
 26 27  1  0  0  0  0
 26 28  1  0  0  0  0
 26 29  1  0  0  0  0
M  END
$$$$

  -OEChem-03222214043D

 29 29  0     1  0  0  0  0  0999 V2000
   -3.0373   -4.0123    0.6332 H   0  0  0  0  0  0  0  0  0  0  0  0
   -2.9713   -3.0968    0.0381 C   0  0  0  0  0  0  0  0  0  0  0  0
   -3.7695   -2.4182    0.3478 H   0  0  0  0  0  0  0  0  0  0  0  0
   -3.1065   -3.3536   -1.0153 H   0  0  0  0  0  0  0  0  0  0  0  0
   -1.6198   -2.4388    0.2445 C   0  0  0  0  0  0  0  0  0  0  0  0
   -0.8273   -2.9227    1.0306 O   0  0  0  0  0  0  0  0  0  0  0  0
   -1.3015   -1.2921   -0.4578 N   0  0  0  0  0  0  0  0  0  0  0  0
   -1.9726   -0.9896   -1.1566 H   0  0  0  0  0  0  0  0  0  0  0  0
    0.0252   -0.6408   -0.4301 C   0  0  1  0  0  0  0  0  0  0  0  0
    0.7649   -1.3706   -0.7793 H   0  0  0  0  0  0  0  0  0  0  0  0
   -0.0039    0.5458   -1.4159 C   0  0  0  0  0  0  0  0  0  0  0  0
   -0.6988    0.3252   -2.2317 H   0  0  0  0  0  0  0  0  0  0  0  0
   -0.3744    1.4427   -0.9081 H   0  0  0  0  0  0  0  0  0  0  0  0
    1.3436    0.8384   -2.0290 C   0  0  0  0  0  0  0  0  0  0  0  0
    1.6539    0.8095   -3.3723 N   0  0  0  0  0  0  0  0  0  0  0  0
    1.0289    0.5521   -4.1324 H   0  0  0  0  0  0  0  0  0  0  0  0
    2.9751    1.1839   -3.5271 C   0  0  0  0  0  0  0  0  0  0  0  0
    3.5002    1.2482   -4.4760 H   0  0  0  0  0  0  0  0  0  0  0  0
    3.5046    1.4567   -2.3614 N   0  0  0  0  0  0  0  0  0  0  0  0
    2.5040    1.2457   -1.4165 C   0  0  0  0  0  0  0  0  0  0  0  0
    2.6265    1.4062   -0.3501 H   0  0  0  0  0  0  0  0  0  0  0  0
    0.4664   -0.1791    0.9783 C   0  0  0  0  0  0  0  0  0  0  0  0
    1.6407   -0.2487    1.3129 O   0  0  0  0  0  0  0  0  0  0  0  0
   -0.4286    0.4818    1.8021 N   0  0  0  0  0  0  0  0  0  0  0  0
   -1.4086    0.4074    1.5513 H   0  0  0  0  0  0  0  0  0  0  0  0
   -0.0836    0.9131    3.1514 C   0  0  0  0  0  0  0  0  0  0  0  0
    0.7600    1.6111    3.1273 H   0  0  0  0  0  0  0  0  0  0  0  0
   -0.9349    1.4188    3.6170 H   0  0  0  0  0  0  0  0  0  0  0  0
    0.1904    0.0515    3.7696 H   0  0  0  0  0  0  0  0  0  0  0  0
  1  2  1  0  0  0  0
  2  3  1  0  0  0  0
  2  4  1  0  0  0  0
  2  5  1  0  0  0  0
  5  6  2  0  0  0  0
  5  7  1  0  0  0  0
  7  8  1  0  0  0  0
  7  9  1  0  0  0  0
  9 10  1  0  0  0  0
  9 11  1  0  0  0  0
  9 22  1  0  0  0  0
 11 12  1  0  0  0  0
 11 13  1  0  0  0  0
 11 14  1  0  0  0  0
 14 15  1  0  0  0  0
 14 20  2  0  0  0  0
 15 16  1  0  0  0  0
 15 17  1  0  0  0  0
 17 18  1  0  0  0  0
 17 19  2  0  0  0  0
 19 20  1  0  0  0  0
 20 21  1  0  0  0  0
 22 23  2  0  0  0  0
 22 24  1  0  0  0  0
 24 25  1  0  0  0  0
 24 26  1  0  0  0  0
 26 27  1  0  0  0  0
 26 28  1  0  0  0  0
 26 29  1  0  0  0  0
M  END
$$$$

  -OEChem-03222214043D

 29 29  0     1  0  0  0  0  0999 V2000
   -3.0331   -3.9994    0.6224 H   0  0  0  0  0  0  0  0  0  0  0  0
   -2.9577   -3.0810    0.0331 C   0  0  0  0  0  0  0  0  0  0  0  0
   -3.7592   -2.4029    0.3351 H   0  0  0  0  0  0  0  0  0  0  0  0
   -3.0783   -3.3321   -1.0234 H   0  0  0  0  0  0  0  0  0  0  0  0
   -1.6088   -2.4257    0.2617 C   0  0  0  0  0  0  0  0  0  0  0  0
   -0.8355   -2.9041    1.0698 O   0  0  0  0  0  0  0  0  0  0  0  0
   -1.2734   -1.2870   -0.4460 N   0  0  0  0  0  0  0  0  0  0  0  0
   -1.9243   -1.0005   -1.1701 H   0  0  0  0  0  0  0  0  0  0  0  0
    0.0567   -0.6427   -0.4049 C   0  0  1  0  0  0  0  0  0  0  0  0
    0.8010   -1.3737   -0.7411 H   0  0  0  0  0  0  0  0  0  0  0  0
    0.0339    0.5442   -1.3926 C   0  0  0  0  0  0  0  0  0  0  0  0
   -0.6541    0.3066   -2.2095 H   0  0  0  0  0  0  0  0  0  0  0  0
   -0.3529    1.4396   -0.8948 H   0  0  0  0  0  0  0  0  0  0  0  0
    1.3724    0.8614   -2.0186 C   0  0  0  0  0  0  0  0  0  0  0  0
    1.5786    1.1236   -3.3573 N   0  0  0  0  0  0  0  0  0  0  0  0
    0.8683    1.1432   -4.0851 H   0  0  0  0  0  0  0  0  0  0  0  0
    2.9240    1.3607   -3.5612 C   0  0  0  0  0  0  0  0  0  0  0  0
    3.3802    1.5963   -4.5184 H   0  0  0  0  0  0  0  0  0  0  0  0
    3.5728    1.2611   -2.4293 N   0  0  0  0  0  0  0  0  0  0  0  0
    2.6256    0.9468   -1.4583 C   0  0  0  0  0  0  0  0  0  0  0  0
    2.8610    0.8034   -0.4098 H   0  0  0  0  0  0  0  0  0  0  0  0
    0.4650   -0.1767    1.0132 C   0  0  0  0  0  0  0  0  0  0  0  0
    1.6225   -0.2787    1.3943 O   0  0  0  0  0  0  0  0  0  0  0  0
   -0.4488    0.4908    1.8109 N   0  0  0  0  0  0  0  0  0  0  0  0
   -1.4201    0.4303    1.5253 H   0  0  0  0  0  0  0  0  0  0  0  0
   -0.1479    0.8993    3.1775 C   0  0  0  0  0  0  0  0  0  0  0  0
    0.7074    1.5832    3.1946 H   0  0  0  0  0  0  0  0  0  0  0  0
   -1.0079    1.4134    3.6169 H   0  0  0  0  0  0  0  0  0  0  0  0
    0.0878    0.0254    3.7941 H   0  0  0  0  0  0  0  0  0  0  0  0
  1  2  1  0  0  0  0
  2  3  1  0  0  0  0
  2  4  1  0  0  0  0
  2  5  1  0  0  0  0
  5  6  2  0  0  0  0
  5  7  1  0  0  0  0
  7  8  1  0  0  0  0
  7  9  1  0  0  0  0
  9 10  1  0  0  0  0
  9 11  1  0  0  0  0
  9 22  1  0  0  0  0
 11 12  1  0  0  0  0
 11 13  1  0  0  0  0
 11 14  1  0  0  0  0
 14 15  1  0  0  0  0
 14 20  2  0  0  0  0
 15 16  1  0  0  0  0
 15 17  1  0  0  0  0
 17 18  1  0  0  0  0
 17 19  2  0  0  0  0
 19 20  1  0  0  0  0
 20 21  1  0  0  0  0
 22 23  2  0  0  0  0
 22 24  1  0  0  0  0
 24 25  1  0  0  0  0
 24 26  1  0  0  0  0
 26 27  1  0  0  0  0
 26 28  1  0  0  0  0
 26 29  1  0  0  0  0
M  END
$$$$

  -OEChem-03222214043D

 29 29  0     1  0  0  0  0  0999 V2000
   -3.0297   -4.0101    0.6073 H   0  0  0  0  0  0  0  0  0  0  0  0
   -2.9561   -3.0882    0.0232 C   0  0  0  0  0  0  0  0  0  0  0  0
   -3.7645   -2.4169    0.3224 H   0  0  0  0  0  0  0  0  0  0  0  0
   -3.0666   -3.3350   -1.0354 H   0  0  0  0  0  0  0  0  0  0  0  0
   -1.6133   -2.4254    0.2659 C   0  0  0  0  0  0  0  0  0  0  0  0
   -0.8485   -2.8965    1.0865 O   0  0  0  0  0  0  0  0  0  0  0  0
   -1.2725   -1.2884   -0.4422 N   0  0  0  0  0  0  0  0  0  0  0  0
   -1.9124   -1.0107   -1.1798 H   0  0  0  0  0  0  0  0  0  0  0  0
    0.0585   -0.6464   -0.3923 C   0  0  1  0  0  0  0  0  0  0  0  0
    0.8008   -1.3813   -0.7233 H   0  0  0  0  0  0  0  0  0  0  0  0
    0.0498    0.5458   -1.3742 C   0  0  0  0  0  0  0  0  0  0  0  0
   -0.6292    0.3080   -2.1988 H   0  0  0  0  0  0  0  0  0  0  0  0
   -0.3426    1.4395   -0.8778 H   0  0  0  0  0  0  0  0  0  0  0  0
    1.3906    0.8686   -1.9947 C   0  0  0  0  0  0  0  0  0  0  0  0
    1.5643    1.4223   -3.2463 N   0  0  0  0  0  0  0  0  0  0  0  0
    0.8279    1.7191   -3.8821 H   0  0  0  0  0  0  0  0  0  0  0  0
    2.9175    1.5269   -3.5032 C   0  0  0  0  0  0  0  0  0  0  0  0
    3.3527    1.9354   -4.4107 H   0  0  0  0  0  0  0  0  0  0  0  0
    3.6027    1.0587   -2.4919 N   0  0  0  0  0  0  0  0  0  0  0  0
    2.6709    0.6378   -1.5468 C   0  0  0  0  0  0  0  0  0  0  0  0
    2.9372    0.1799   -0.6009 H   0  0  0  0  0  0  0  0  0  0  0  0
    0.4589   -0.1777    1.0279 C   0  0  0  0  0  0  0  0  0  0  0  0
    1.6175   -0.2631    1.4095 O   0  0  0  0  0  0  0  0  0  0  0  0
   -0.4588    0.4933    1.8181 N   0  0  0  0  0  0  0  0  0  0  0  0
   -1.4296    0.4248    1.5326 H   0  0  0  0  0  0  0  0  0  0  0  0
   -0.1606    0.9161    3.1809 C   0  0  0  0  0  0  0  0  0  0  0  0
    0.6889    1.6073    3.1907 H   0  0  0  0  0  0  0  0  0  0  0  0
   -1.0245    1.4267    3.6168 H   0  0  0  0  0  0  0  0  0  0  0  0
    0.0832    0.0496    3.8048 H   0  0  0  0  0  0  0  0  0  0  0  0
  1  2  1  0  0  0  0
  2  3  1  0  0  0  0
  2  4  1  0  0  0  0
  2  5  1  0  0  0  0
  5  6  2  0  0  0  0
  5  7  1  0  0  0  0
  7  8  1  0  0  0  0
  7  9  1  0  0  0  0
  9 10  1  0  0  0  0
  9 11  1  0  0  0  0
  9 22  1  0  0  0  0
 11 12  1  0  0  0  0
 11 13  1  0  0  0  0
 11 14  1  0  0  0  0
 14 15  1  0  0  0  0
 14 20  2  0  0  0  0
 15 16  1  0  0  0  0
 15 17  1  0  0  0  0
 17 18  1  0  0  0  0
 17 19  2  0  0  0  0
 19 20  1  0  0  0  0
 20 21  1  0  0  0  0
 22 23  2  0  0  0  0
 22 24  1  0  0  0  0
 24 25  1  0  0  0  0
 24 26  1  0  0  0  0
 26 27  1  0  0  0  0
 26 28  1  0  0  0  0
 26 29  1  0  0  0  0
M  END
$$$$

  -OEChem-03222214043D

 29 29  0     1  0  0  0  0  0999 V2000
   -3.0536   -4.0173    0.6014 H   0  0  0  0  0  0  0  0  0  0  0  0
   -2.9728   -3.1018    0.0080 C   0  0  0  0  0  0  0  0  0  0  0  0
   -3.7865   -2.4286    0.2877 H   0  0  0  0  0  0  0  0  0  0  0  0
   -3.0678   -3.3607   -1.0493 H   0  0  0  0  0  0  0  0  0  0  0  0
   -1.6347   -2.4334    0.2621 C   0  0  0  0  0  0  0  0  0  0  0  0
   -0.8731   -2.9019    1.0873 O   0  0  0  0  0  0  0  0  0  0  0  0
   -1.2932   -1.2947   -0.4424 N   0  0  0  0  0  0  0  0  0  0  0  0
   -1.9288   -1.0193   -1.1844 H   0  0  0  0  0  0  0  0  0  0  0  0
    0.0383   -0.6556   -0.3901 C   0  0  1  0  0  0  0  0  0  0  0  0
    0.7705   -1.4006   -0.7198 H   0  0  0  0  0  0  0  0  0  0  0  0
    0.0446    0.5340   -1.3744 C   0  0  0  0  0  0  0  0  0  0  0  0
   -0.6302    0.3039   -2.2044 H   0  0  0  0  0  0  0  0  0  0  0  0
   -0.3426    1.4297   -0.8777 H   0  0  0  0  0  0  0  0  0  0  0  0
    1.3935    0.8453   -1.9828 C   0  0  0  0  0  0  0  0  0  0  0  0
    1.5953    1.6490   -3.0853 N   0  0  0  0  0  0  0  0  0  0  0  0
    0.8799    2.1530   -3.6039 H   0  0  0  0  0  0  0  0  0  0  0  0
    2.9463    1.6764   -3.3736 C   0  0  0  0  0  0  0  0  0  0  0  0
    3.4014    2.2336   -4.1875 H   0  0  0  0  0  0  0  0  0  0  0  0
    3.6020    0.9285   -2.5231 N   0  0  0  0  0  0  0  0  0  0  0  0
    2.6535    0.4044   -1.6489 C   0  0  0  0  0  0  0  0  0  0  0  0
    2.8883   -0.2700   -0.8315 H   0  0  0  0  0  0  0  0  0  0  0  0
    0.4579   -0.1858    1.0231 C   0  0  0  0  0  0  0  0  0  0  0  0
    1.6283   -0.2485    1.3731 O   0  0  0  0  0  0  0  0  0  0  0  0
   -0.4467    0.4904    1.8236 N   0  0  0  0  0  0  0  0  0  0  0  0
   -1.4233    0.4094    1.5618 H   0  0  0  0  0  0  0  0  0  0  0  0
   -0.1210    0.9366    3.1727 C   0  0  0  0  0  0  0  0  0  0  0  0
    0.7257    1.6311    3.1535 H   0  0  0  0  0  0  0  0  0  0  0  0
   -0.9775    1.4511    3.6185 H   0  0  0  0  0  0  0  0  0  0  0  0
    0.1397    0.0813    3.8052 H   0  0  0  0  0  0  0  0  0  0  0  0
  1  2  1  0  0  0  0
  2  3  1  0  0  0  0
  2  4  1  0  0  0  0
  2  5  1  0  0  0  0
  5  6  2  0  0  0  0
  5  7  1  0  0  0  0
  7  8  1  0  0  0  0
  7  9  1  0  0  0  0
  9 10  1  0  0  0  0
  9 11  1  0  0  0  0
  9 22  1  0  0  0  0
 11 12  1  0  0  0  0
 11 13  1  0  0  0  0
 11 14  1  0  0  0  0
 14 15  1  0  0  0  0
 14 20  2  0  0  0  0
 15 16  1  0  0  0  0
 15 17  1  0  0  0  0
 17 18  1  0  0  0  0
 17 19  2  0  0  0  0
 19 20  1  0  0  0  0
 20 21  1  0  0  0  0
 22 23  2  0  0  0  0
 22 24  1  0  0  0  0
 24 25  1  0  0  0  0
 24 26  1  0  0  0  0
 26 27  1  0  0  0  0
 26 28  1  0  0  0  0
 26 29  1  0  0  0  0
M  END
$$$$

  -OEChem-03222214043D

 29 29  0     1  0  0  0  0  0999 V2000
   -3.0878   -4.0360    0.6010 H   0  0  0  0  0  0  0  0  0  0  0  0
   -3.0013   -3.1350   -0.0134 C   0  0  0  0  0  0  0  0  0  0  0  0
   -3.8336   -2.4676    0.2220 H   0  0  0  0  0  0  0  0  0  0  0  0
   -3.0578   -3.4224   -1.0661 H   0  0  0  0  0  0  0  0  0  0  0  0
   -1.6824   -2.4388    0.2654 C   0  0  0  0  0  0  0  0  0  0  0  0
   -0.9334   -2.8823    1.1158 O   0  0  0  0  0  0  0  0  0  0  0  0
   -1.3464   -1.2983   -0.4383 N   0  0  0  0  0  0  0  0  0  0  0  0
   -1.9626   -1.0532   -1.2070 H   0  0  0  0  0  0  0  0  0  0  0  0
   -0.0108   -0.6678   -0.3931 C   0  0  1  0  0  0  0  0  0  0  0  0
    0.6940   -1.4414   -0.7102 H   0  0  0  0  0  0  0  0  0  0  0  0
    0.0303    0.5170   -1.3879 C   0  0  0  0  0  0  0  0  0  0  0  0
   -0.8224    0.4449   -2.0695 H   0  0  0  0  0  0  0  0  0  0  0  0
   -0.0764    1.4602   -0.8411 H   0  0  0  0  0  0  0  0  0  0  0  0
    1.2745    0.5887   -2.2460 C   0  0  0  0  0  0  0  0  0  0  0  0
    1.5158    1.5590   -3.1955 N   0  0  0  0  0  0  0  0  0  0  0  0
    0.9053    2.3387   -3.4289 H   0  0  0  0  0  0  0  0  0  0  0  0
    2.7515    1.3244   -3.7675 C   0  0  0  0  0  0  0  0  0  0  0  0
    3.2022    1.9262   -4.5515 H   0  0  0  0  0  0  0  0  0  0  0  0
    3.3019    0.2660   -3.2288 N   0  0  0  0  0  0  0  0  0  0  0  0
    2.4071   -0.1926   -2.2668 C   0  0  0  0  0  0  0  0  0  0  0  0
    2.5938   -1.0498   -1.6273 H   0  0  0  0  0  0  0  0  0  0  0  0
    0.4532   -0.1979    1.0029 C   0  0  0  0  0  0  0  0  0  0  0  0
    1.6435   -0.2224    1.2849 O   0  0  0  0  0  0  0  0  0  0  0  0
   -0.4211    0.4896    1.8267 N   0  0  0  0  0  0  0  0  0  0  0  0
   -1.4078    0.3853    1.6145 H   0  0  0  0  0  0  0  0  0  0  0  0
   -0.0397    0.9658    3.1505 C   0  0  0  0  0  0  0  0  0  0  0  0
    0.7998    1.6656    3.0793 H   0  0  0  0  0  0  0  0  0  0  0  0
   -0.8796    1.4836    3.6234 H   0  0  0  0  0  0  0  0  0  0  0  0
    0.2552    0.1257    3.7884 H   0  0  0  0  0  0  0  0  0  0  0  0
  1  2  1  0  0  0  0
  2  3  1  0  0  0  0
  2  4  1  0  0  0  0
  2  5  1  0  0  0  0
  5  6  2  0  0  0  0
  5  7  1  0  0  0  0
  7  8  1  0  0  0  0
  7  9  1  0  0  0  0
  9 10  1  0  0  0  0
  9 11  1  0  0  0  0
  9 22  1  0  0  0  0
 11 12  1  0  0  0  0
 11 13  1  0  0  0  0
 11 14  1  0  0  0  0
 14 15  1  0  0  0  0
 14 20  2  0  0  0  0
 15 16  1  0  0  0  0
 15 17  1  0  0  0  0
 17 18  1  0  0  0  0
 17 19  2  0  0  0  0
 19 20  1  0  0  0  0
 20 21  1  0  0  0  0
 22 23  2  0  0  0  0
 22 24  1  0  0  0  0
 24 25  1  0  0  0  0
 24 26  1  0  0  0  0
 26 27  1  0  0  0  0
 26 28  1  0  0  0  0
 26 29  1  0  0  0  0
M  END
$$$$

  -OEChem-03222214043D

 29 29  0     1  0  0  0  0  0999 V2000
   -3.0807   -4.0489    0.5828 H   0  0  0  0  0  0  0  0  0  0  0  0
   -3.0087   -3.1265   -0.0006 C   0  0  0  0  0  0  0  0  0  0  0  0
   -3.8339   -2.4677    0.2794 H   0  0  0  0  0  0  0  0  0  0  0  0
   -3.0915   -3.3754   -1.0612 H   0  0  0  0  0  0  0  0  0  0  0  0
   -1.6829   -2.4413    0.2714 C   0  0  0  0  0  0  0  0  0  0  0  0
   -0.9351   -2.8873    1.1217 O   0  0  0  0  0  0  0  0  0  0  0  0
   -1.3405   -1.3055   -0.4369 N   0  0  0  0  0  0  0  0  0  0  0  0
   -1.9568   -1.0576   -1.2049 H   0  0  0  0  0  0  0  0  0  0  0  0
   -0.0030   -0.6790   -0.3920 C   0  0  1  0  0  0  0  0  0  0  0  0
    0.7043   -1.4531   -0.6989 H   0  0  0  0  0  0  0  0  0  0  0  0
    0.0394    0.5041   -1.3895 C   0  0  0  0  0  0  0  0  0  0  0  0
   -0.8173    0.4447   -2.0676 H   0  0  0  0  0  0  0  0  0  0  0  0
   -0.0564    1.4447   -0.8364 H   0  0  0  0  0  0  0  0  0  0  0  0
    1.2817    0.5743   -2.2509 C   0  0  0  0  0  0  0  0  0  0  0  0
    1.6659    1.6790   -2.9812 N   0  0  0  0  0  0  0  0  0  0  0  0
    1.1815    2.5728   -3.0213 H   0  0  0  0  0  0  0  0  0  0  0  0
    2.8517    1.3937   -3.6304 C   0  0  0  0  0  0  0  0  0  0  0  0
    3.3902    2.0786   -4.2791 H   0  0  0  0  0  0  0  0  0  0  0  0
    3.2330    0.1726   -3.3528 N   0  0  0  0  0  0  0  0  0  0  0  0
    2.2797   -0.3441   -2.4815 C   0  0  0  0  0  0  0  0  0  0  0  0
    2.3293   -1.3419   -2.0573 H   0  0  0  0  0  0  0  0  0  0  0  0
    0.4541   -0.2054    1.0055 C   0  0  0  0  0  0  0  0  0  0  0  0
    1.6427   -0.2266    1.2946 O   0  0  0  0  0  0  0  0  0  0  0  0
   -0.4245    0.4868    1.8208 N   0  0  0  0  0  0  0  0  0  0  0  0
   -1.4100    0.3727    1.6078 H   0  0  0  0  0  0  0  0  0  0  0  0
   -0.0500    0.9714    3.1435 C   0  0  0  0  0  0  0  0  0  0  0  0
    0.7956    1.6640    3.0731 H   0  0  0  0  0  0  0  0  0  0  0  0
   -0.8896    1.5002    3.6045 H   0  0  0  0  0  0  0  0  0  0  0  0
    0.2332    0.1347    3.7910 H   0  0  0  0  0  0  0  0  0  0  0  0
  1  2  1  0  0  0  0
  2  3  1  0  0  0  0
  2  4  1  0  0  0  0
  2  5  1  0  0  0  0
  5  6  2  0  0  0  0
  5  7  1  0  0  0  0
  7  8  1  0  0  0  0
  7  9  1  0  0  0  0
  9 10  1  0  0  0  0
  9 11  1  0  0  0  0
  9 22  1  0  0  0  0
 11 12  1  0  0  0  0
 11 13  1  0  0  0  0
 11 14  1  0  0  0  0
 14 15  1  0  0  0  0
 14 20  2  0  0  0  0
 15 16  1  0  0  0  0
 15 17  1  0  0  0  0
 17 18  1  0  0  0  0
 17 19  2  0  0  0  0
 19 20  1  0  0  0  0
 20 21  1  0  0  0  0
 22 23  2  0  0  0  0
 22 24  1  0  0  0  0
 24 25  1  0  0  0  0
 24 26  1  0  0  0  0
 26 27  1  0  0  0  0
 26 28  1  0  0  0  0
 26 29  1  0  0  0  0
M  END
$$$$

  -OEChem-03222214043D

 29 29  0     1  0  0  0  0  0999 V2000
   -3.0654   -4.0493    0.5938 H   0  0  0  0  0  0  0  0  0  0  0  0
   -2.9968   -3.1285    0.0072 C   0  0  0  0  0  0  0  0  0  0  0  0
   -3.8216   -2.4698    0.2889 H   0  0  0  0  0  0  0  0  0  0  0  0
   -3.0843   -3.3810   -1.0522 H   0  0  0  0  0  0  0  0  0  0  0  0
   -1.6702   -2.4416    0.2708 C   0  0  0  0  0  0  0  0  0  0  0  0
   -0.9173   -2.8872    1.1167 O   0  0  0  0  0  0  0  0  0  0  0  0
   -1.3326   -1.3053   -0.4389 N   0  0  0  0  0  0  0  0  0  0  0  0
   -1.9553   -1.0539   -1.2007 H   0  0  0  0  0  0  0  0  0  0  0  0
    0.0029   -0.6744   -0.3978 C   0  0  1  0  0  0  0  0  0  0  0  0
    0.7200   -1.4401   -0.7063 H   0  0  0  0  0  0  0  0  0  0  0  0
    0.0354    0.5141   -1.3884 C   0  0  0  0  0  0  0  0  0  0  0  0
   -0.8238    0.4624   -2.0638 H   0  0  0  0  0  0  0  0  0  0  0  0
   -0.0553    1.4519   -0.8299 H   0  0  0  0  0  0  0  0  0  0  0  0
    1.2776    0.5767   -2.2475 C   0  0  0  0  0  0  0  0  0  0  0  0
    1.8469    1.7290   -2.7456 N   0  0  0  0  0  0  0  0  0  0  0  0
    1.5311    2.6807   -2.5727 H   0  0  0  0  0  0  0  0  0  0  0  0
    2.9639    1.3879   -3.4843 C   0  0  0  0  0  0  0  0  0  0  0  0
    3.6160    2.0925   -3.9925 H   0  0  0  0  0  0  0  0  0  0  0  0
    3.1217    0.0877   -3.4872 N   0  0  0  0  0  0  0  0  0  0  0  0
    2.0911   -0.4296   -2.7101 C   0  0  0  0  0  0  0  0  0  0  0  0
    1.9493   -1.4882   -2.5161 H   0  0  0  0  0  0  0  0  0  0  0  0
    0.4557   -0.2003    1.0014 C   0  0  0  0  0  0  0  0  0  0  0  0
    1.6435   -0.2127    1.2940 O   0  0  0  0  0  0  0  0  0  0  0  0
   -0.4286    0.4874    1.8147 N   0  0  0  0  0  0  0  0  0  0  0  0
   -1.4128    0.3653    1.6002 H   0  0  0  0  0  0  0  0  0  0  0  0
   -0.0606    0.9689    3.1405 C   0  0  0  0  0  0  0  0  0  0  0  0
    0.7808    1.6670    3.0755 H   0  0  0  0  0  0  0  0  0  0  0  0
   -0.9044    1.4904    3.6022 H   0  0  0  0  0  0  0  0  0  0  0  0
    0.2262    0.1310    3.7848 H   0  0  0  0  0  0  0  0  0  0  0  0
  1  2  1  0  0  0  0
  2  3  1  0  0  0  0
  2  4  1  0  0  0  0
  2  5  1  0  0  0  0
  5  6  2  0  0  0  0
  5  7  1  0  0  0  0
  7  8  1  0  0  0  0
  7  9  1  0  0  0  0
  9 10  1  0  0  0  0
  9 11  1  0  0  0  0
  9 22  1  0  0  0  0
 11 12  1  0  0  0  0
 11 13  1  0  0  0  0
 11 14  1  0  0  0  0
 14 15  1  0  0  0  0
 14 20  2  0  0  0  0
 15 16  1  0  0  0  0
 15 17  1  0  0  0  0
 17 18  1  0  0  0  0
 17 19  2  0  0  0  0
 19 20  1  0  0  0  0
 20 21  1  0  0  0  0
 22 23  2  0  0  0  0
 22 24  1  0  0  0  0
 24 25  1  0  0  0  0
 24 26  1  0  0  0  0
 26 27  1  0  0  0  0
 26 28  1  0  0  0  0
 26 29  1  0  0  0  0
M  END
$$$$

  -OEChem-03222214043D

 29 29  0     1  0  0  0  0  0999 V2000
   -3.0428   -4.0512    0.6026 H   0  0  0  0  0  0  0  0  0  0  0  0
   -2.9796   -3.1315    0.0139 C   0  0  0  0  0  0  0  0  0  0  0  0
   -3.8009   -2.4717    0.3032 H   0  0  0  0  0  0  0  0  0  0  0  0
   -3.0787   -3.3851   -1.0441 H   0  0  0  0  0  0  0  0  0  0  0  0
   -1.6498   -2.4450    0.2622 C   0  0  0  0  0  0  0  0  0  0  0  0
   -0.8849   -2.8925    1.0963 O   0  0  0  0  0  0  0  0  0  0  0  0
   -1.3252   -1.3034   -0.4450 N   0  0  0  0  0  0  0  0  0  0  0  0
   -1.9582   -1.0490   -1.1973 H   0  0  0  0  0  0  0  0  0  0  0  0
    0.0047   -0.6605   -0.4091 C   0  0  1  0  0  0  0  0  0  0  0  0
    0.7327   -1.4130   -0.7290 H   0  0  0  0  0  0  0  0  0  0  0  0
    0.0222    0.5335   -1.3912 C   0  0  0  0  0  0  0  0  0  0  0  0
   -0.8354    0.4768   -2.0686 H   0  0  0  0  0  0  0  0  0  0  0  0
   -0.0737    1.4720   -0.8350 H   0  0  0  0  0  0  0  0  0  0  0  0
    1.2691    0.5813   -2.2397 C   0  0  0  0  0  0  0  0  0  0  0  0
    2.0337    1.6949   -2.5103 N   0  0  0  0  0  0  0  0  0  0  0  0
    1.8988    2.6272   -2.1250 H   0  0  0  0  0  0  0  0  0  0  0  0
    3.0770    1.3212   -3.3365 C   0  0  0  0  0  0  0  0  0  0  0  0
    3.8494    1.9885   -3.7084 H   0  0  0  0  0  0  0  0  0  0  0  0
    2.9990    0.0422   -3.6120 N   0  0  0  0  0  0  0  0  0  0  0  0
    1.8864   -0.4336   -2.9277 C   0  0  0  0  0  0  0  0  0  0  0  0
    1.5482   -1.4653   -2.9485 H   0  0  0  0  0  0  0  0  0  0  0  0
    0.4571   -0.1886    0.9917 C   0  0  0  0  0  0  0  0  0  0  0  0
    1.6461   -0.1827    1.2806 O   0  0  0  0  0  0  0  0  0  0  0  0
   -0.4331    0.4864    1.8093 N   0  0  0  0  0  0  0  0  0  0  0  0
   -1.4161    0.3563    1.5939 H   0  0  0  0  0  0  0  0  0  0  0  0
   -0.0701    0.9620    3.1388 C   0  0  0  0  0  0  0  0  0  0  0  0
    0.7610    1.6727    3.0786 H   0  0  0  0  0  0  0  0  0  0  0  0
   -0.9209    1.4675    3.6053 H   0  0  0  0  0  0  0  0  0  0  0  0
    0.2292    0.1231    3.7762 H   0  0  0  0  0  0  0  0  0  0  0  0
  1  2  1  0  0  0  0
  2  3  1  0  0  0  0
  2  4  1  0  0  0  0
  2  5  1  0  0  0  0
  5  6  2  0  0  0  0
  5  7  1  0  0  0  0
  7  8  1  0  0  0  0
  7  9  1  0  0  0  0
  9 10  1  0  0  0  0
  9 11  1  0  0  0  0
  9 22  1  0  0  0  0
 11 12  1  0  0  0  0
 11 13  1  0  0  0  0
 11 14  1  0  0  0  0
 14 15  1  0  0  0  0
 14 20  2  0  0  0  0
 15 16  1  0  0  0  0
 15 17  1  0  0  0  0
 17 18  1  0  0  0  0
 17 19  2  0  0  0  0
 19 20  1  0  0  0  0
 20 21  1  0  0  0  0
 22 23  2  0  0  0  0
 22 24  1  0  0  0  0
 24 25  1  0  0  0  0
 24 26  1  0  0  0  0
 26 27  1  0  0  0  0
 26 28  1  0  0  0  0
 26 29  1  0  0  0  0
M  END
$$$$

  -OEChem-03222214043D

 29 29  0     1  0  0  0  0  0999 V2000
   -3.0172   -4.0719    0.5891 H   0  0  0  0  0  0  0  0  0  0  0  0
   -2.9651   -3.1507    0.0017 C   0  0  0  0  0  0  0  0  0  0  0  0
   -3.7978   -2.5036    0.2875 H   0  0  0  0  0  0  0  0  0  0  0  0
   -3.0543   -3.4053   -1.0571 H   0  0  0  0  0  0  0  0  0  0  0  0
   -1.6468   -2.4451    0.2579 C   0  0  0  0  0  0  0  0  0  0  0  0
   -0.8793   -2.8835    1.0946 O   0  0  0  0  0  0  0  0  0  0  0  0
   -1.3341   -1.2986   -0.4468 N   0  0  0  0  0  0  0  0  0  0  0  0
   -1.9686   -1.0517   -1.2001 H   0  0  0  0  0  0  0  0  0  0  0  0
   -0.0072   -0.6490   -0.4161 C   0  0  1  0  0  0  0  0  0  0  0  0
    0.7226   -1.3954   -0.7491 H   0  0  0  0  0  0  0  0  0  0  0  0
    0.0071    0.5498   -1.3886 C   0  0  0  0  0  0  0  0  0  0  0  0
   -0.8447    0.4859   -2.0724 H   0  0  0  0  0  0  0  0  0  0  0  0
   -0.0926    1.4923   -0.8397 H   0  0  0  0  0  0  0  0  0  0  0  0
    1.2620    0.5728   -2.2212 C   0  0  0  0  0  0  0  0  0  0  0  0
    2.2092    1.5708   -2.2695 N   0  0  0  0  0  0  0  0  0  0  0  0
    2.2465    2.3951   -1.6733 H   0  0  0  0  0  0  0  0  0  0  0  0
    3.1784    1.2083   -3.1861 C   0  0  0  0  0  0  0  0  0  0  0  0
    4.0634    1.7924   -3.4221 H   0  0  0  0  0  0  0  0  0  0  0  0
    2.8748    0.0558   -3.7335 N   0  0  0  0  0  0  0  0  0  0  0  0
    1.6868   -0.3533   -3.1389 C   0  0  0  0  0  0  0  0  0  0  0  0
    1.1638   -1.2746   -3.3773 H   0  0  0  0  0  0  0  0  0  0  0  0
    0.4559   -0.1791    0.9816 C   0  0  0  0  0  0  0  0  0  0  0  0
    1.6495   -0.1471    1.2510 O   0  0  0  0  0  0  0  0  0  0  0  0
   -0.4313    0.4891    1.8080 N   0  0  0  0  0  0  0  0  0  0  0  0
   -1.4154    0.3442    1.6072 H   0  0  0  0  0  0  0  0  0  0  0  0
   -0.0574    0.9792    3.1292 C   0  0  0  0  0  0  0  0  0  0  0  0
    0.7645    1.6990    3.0538 H   0  0  0  0  0  0  0  0  0  0  0  0
   -0.9085    1.4780    3.6024 H   0  0  0  0  0  0  0  0  0  0  0  0
    0.2593    0.1487    3.7689 H   0  0  0  0  0  0  0  0  0  0  0  0
  1  2  1  0  0  0  0
  2  3  1  0  0  0  0
  2  4  1  0  0  0  0
  2  5  1  0  0  0  0
  5  6  2  0  0  0  0
  5  7  1  0  0  0  0
  7  8  1  0  0  0  0
  7  9  1  0  0  0  0
  9 10  1  0  0  0  0
  9 11  1  0  0  0  0
  9 22  1  0  0  0  0
 11 12  1  0  0  0  0
 11 13  1  0  0  0  0
 11 14  1  0  0  0  0
 14 15  1  0  0  0  0
 14 20  2  0  0  0  0
 15 16  1  0  0  0  0
 15 17  1  0  0  0  0
 17 18  1  0  0  0  0
 17 19  2  0  0  0  0
 19 20  1  0  0  0  0
 20 21  1  0  0  0  0
 22 23  2  0  0  0  0
 22 24  1  0  0  0  0
 24 25  1  0  0  0  0
 24 26  1  0  0  0  0
 26 27  1  0  0  0  0
 26 28  1  0  0  0  0
 26 29  1  0  0  0  0
M  END
$$$$

  -OEChem-03222214043D

 29 29  0     1  0  0  0  0  0999 V2000
   -3.0162   -4.0766    0.6058 H   0  0  0  0  0  0  0  0  0  0  0  0
   -2.9676   -3.1582    0.0133 C   0  0  0  0  0  0  0  0  0  0  0  0
   -3.7978   -2.5092    0.3015 H   0  0  0  0  0  0  0  0  0  0  0  0
   -3.0646   -3.4180   -1.0436 H   0  0  0  0  0  0  0  0  0  0  0  0
   -1.6476   -2.4511    0.2560 C   0  0  0  0  0  0  0  0  0  0  0  0
   -0.8716   -2.8872    1.0862 O   0  0  0  0  0  0  0  0  0  0  0  0
   -1.3441   -1.3035   -0.4510 N   0  0  0  0  0  0  0  0  0  0  0  0
   -1.9862   -1.0554   -1.1974 H   0  0  0  0  0  0  0  0  0  0  0  0
   -0.0194   -0.6498   -0.4277 C   0  0  1  0  0  0  0  0  0  0  0  0
    0.7094   -1.3952   -0.7677 H   0  0  0  0  0  0  0  0  0  0  0  0
   -0.0028    0.5494   -1.3967 C   0  0  0  0  0  0  0  0  0  0  0  0
   -0.8512    0.4808   -2.0846 H   0  0  0  0  0  0  0  0  0  0  0  0
   -0.1029    1.4970   -0.8565 H   0  0  0  0  0  0  0  0  0  0  0  0
    1.2585    0.5497   -2.2168 C   0  0  0  0  0  0  0  0  0  0  0  0
    2.3477    1.3754   -2.0581 N   0  0  0  0  0  0  0  0  0  0  0  0
    2.5114    2.0099   -1.2781 H   0  0  0  0  0  0  0  0  0  0  0  0
    3.2634    1.0823   -3.0509 C   0  0  0  0  0  0  0  0  0  0  0  0
    4.2353    1.5543   -3.1622 H   0  0  0  0  0  0  0  0  0  0  0  0
    2.7897    0.1487   -3.8419 N   0  0  0  0  0  0  0  0  0  0  0  0
    1.5404   -0.1902   -3.3352 C   0  0  0  0  0  0  0  0  0  0  0  0
    0.8775   -0.9312   -3.7716 H   0  0  0  0  0  0  0  0  0  0  0  0
    0.4543   -0.1767    0.9652 C   0  0  0  0  0  0  0  0  0  0  0  0
    1.6519   -0.1207    1.2148 O   0  0  0  0  0  0  0  0  0  0  0  0
   -0.4282    0.4901    1.7978 N   0  0  0  0  0  0  0  0  0  0  0  0
   -1.4138    0.3360    1.6104 H   0  0  0  0  0  0  0  0  0  0  0  0
   -0.0419    0.9909    3.1114 C   0  0  0  0  0  0  0  0  0  0  0  0
    0.7708    1.7194    3.0214 H   0  0  0  0  0  0  0  0  0  0  0  0
   -0.8918    1.4826    3.5941 H   0  0  0  0  0  0  0  0  0  0  0  0
    0.2927    0.1667    3.7504 H   0  0  0  0  0  0  0  0  0  0  0  0
  1  2  1  0  0  0  0
  2  3  1  0  0  0  0
  2  4  1  0  0  0  0
  2  5  1  0  0  0  0
  5  6  2  0  0  0  0
  5  7  1  0  0  0  0
  7  8  1  0  0  0  0
  7  9  1  0  0  0  0
  9 10  1  0  0  0  0
  9 11  1  0  0  0  0
  9 22  1  0  0  0  0
 11 12  1  0  0  0  0
 11 13  1  0  0  0  0
 11 14  1  0  0  0  0
 14 15  1  0  0  0  0
 14 20  2  0  0  0  0
 15 16  1  0  0  0  0
 15 17  1  0  0  0  0
 17 18  1  0  0  0  0
 17 19  2  0  0  0  0
 19 20  1  0  0  0  0
 20 21  1  0  0  0  0
 22 23  2  0  0  0  0
 22 24  1  0  0  0  0
 24 25  1  0  0  0  0
 24 26  1  0  0  0  0
 26 27  1  0  0  0  0
 26 28  1  0  0  0  0
 26 29  1  0  0  0  0
M  END
$$$$

  -OEChem-03222214043D

 29 29  0     1  0  0  0  0  0999 V2000
   -3.0151   -4.0916    0.6053 H   0  0  0  0  0  0  0  0  0  0  0  0
   -2.9755   -3.1732    0.0125 C   0  0  0  0  0  0  0  0  0  0  0  0
   -3.8109   -2.5311    0.3017 H   0  0  0  0  0  0  0  0  0  0  0  0
   -3.0724   -3.4340   -1.0442 H   0  0  0  0  0  0  0  0  0  0  0  0
   -1.6607   -2.4558    0.2530 C   0  0  0  0  0  0  0  0  0  0  0  0
   -0.8790   -2.8851    1.0817 O   0  0  0  0  0  0  0  0  0  0  0  0
   -1.3688   -1.3045   -0.4521 N   0  0  0  0  0  0  0  0  0  0  0  0
   -2.0137   -1.0632   -1.1984 H   0  0  0  0  0  0  0  0  0  0  0  0
   -0.0446   -0.6504   -0.4413 C   0  0  1  0  0  0  0  0  0  0  0  0
    0.6758   -1.3992   -0.7916 H   0  0  0  0  0  0  0  0  0  0  0  0
   -0.0261    0.5494   -1.4075 C   0  0  0  0  0  0  0  0  0  0  0  0
   -0.8769    0.4860   -2.0928 H   0  0  0  0  0  0  0  0  0  0  0  0
   -0.1150    1.4989   -0.8685 H   0  0  0  0  0  0  0  0  0  0  0  0
    1.2367    0.5285   -2.2227 C   0  0  0  0  0  0  0  0  0  0  0  0
    2.4275    1.1288   -1.8862 N   0  0  0  0  0  0  0  0  0  0  0  0
    2.6624    1.5171   -0.9725 H   0  0  0  0  0  0  0  0  0  0  0  0
    3.3209    0.9299   -2.9214 C   0  0  0  0  0  0  0  0  0  0  0  0
    4.3551    1.2624   -2.9250 H   0  0  0  0  0  0  0  0  0  0  0  0
    2.7403    0.2759   -3.9004 N   0  0  0  0  0  0  0  0  0  0  0  0
    1.4387    0.0251   -3.4805 C   0  0  0  0  0  0  0  0  0  0  0  0
    0.6873   -0.4897   -4.0716 H   0  0  0  0  0  0  0  0  0  0  0  0
    0.4565   -0.1805    0.9429 C   0  0  0  0  0  0  0  0  0  0  0  0
    1.6609   -0.0931    1.1526 O   0  0  0  0  0  0  0  0  0  0  0  0
   -0.4103    0.4845    1.7925 N   0  0  0  0  0  0  0  0  0  0  0  0
   -1.3991    0.3200    1.6316 H   0  0  0  0  0  0  0  0  0  0  0  0
    0.0047    1.0135    3.0862 C   0  0  0  0  0  0  0  0  0  0  0  0
    0.8047    1.7506    2.9612 H   0  0  0  0  0  0  0  0  0  0  0  0
   -0.8385    1.5031    3.5826 H   0  0  0  0  0  0  0  0  0  0  0  0
    0.3672    0.2059    3.7310 H   0  0  0  0  0  0  0  0  0  0  0  0
  1  2  1  0  0  0  0
  2  3  1  0  0  0  0
  2  4  1  0  0  0  0
  2  5  1  0  0  0  0
  5  6  2  0  0  0  0
  5  7  1  0  0  0  0
  7  8  1  0  0  0  0
  7  9  1  0  0  0  0
  9 10  1  0  0  0  0
  9 11  1  0  0  0  0
  9 22  1  0  0  0  0
 11 12  1  0  0  0  0
 11 13  1  0  0  0  0
 11 14  1  0  0  0  0
 14 15  1  0  0  0  0
 14 20  2  0  0  0  0
 15 16  1  0  0  0  0
 15 17  1  0  0  0  0
 17 18  1  0  0  0  0
 17 19  2  0  0  0  0
 19 20  1  0  0  0  0
 20 21  1  0  0  0  0
 22 23  2  0  0  0  0
 22 24  1  0  0  0  0
 24 25  1  0  0  0  0
 24 26  1  0  0  0  0
 26 27  1  0  0  0  0
 26 28  1  0  0  0  0
 26 29  1  0  0  0  0
M  END
$$$$

  -OEChem-03222214043D

 29 29  0     1  0  0  0  0  0999 V2000
   -3.0128   -4.1025    0.6019 H   0  0  0  0  0  0  0  0  0  0  0  0
   -2.9795   -3.1842    0.0085 C   0  0  0  0  0  0  0  0  0  0  0  0
   -3.8179   -2.5469    0.2992 H   0  0  0  0  0  0  0  0  0  0  0  0
   -3.0774   -3.4461   -1.0478 H   0  0  0  0  0  0  0  0  0  0  0  0
   -1.6686   -2.4579    0.2450 C   0  0  0  0  0  0  0  0  0  0  0  0
   -0.8763   -2.8867    1.0641 O   0  0  0  0  0  0  0  0  0  0  0  0
   -1.3893   -1.3006   -0.4555 N   0  0  0  0  0  0  0  0  0  0  0  0
   -2.0410   -1.0589   -1.1958 H   0  0  0  0  0  0  0  0  0  0  0  0
   -0.0673   -0.6430   -0.4546 C   0  0  1  0  0  0  0  0  0  0  0  0
    0.6466   -1.3935   -0.8150 H   0  0  0  0  0  0  0  0  0  0  0  0
   -0.0540    0.5557   -1.4226 C   0  0  0  0  0  0  0  0  0  0  0  0
   -0.9093    0.4976   -2.1028 H   0  0  0  0  0  0  0  0  0  0  0  0
   -0.1326    1.5050   -0.8817 H   0  0  0  0  0  0  0  0  0  0  0  0
    1.2081    0.5267   -2.2382 C   0  0  0  0  0  0  0  0  0  0  0  0
    2.4596    0.8672   -1.7801 N   0  0  0  0  0  0  0  0  0  0  0  0
    2.7129    1.0231   -0.8017 H   0  0  0  0  0  0  0  0  0  0  0  0
    3.3500    0.7556   -2.8303 C   0  0  0  0  0  0  0  0  0  0  0  0
    4.4199    0.9309   -2.7621 H   0  0  0  0  0  0  0  0  0  0  0  0
    2.7158    0.3998   -3.9239 N   0  0  0  0  0  0  0  0  0  0  0  0
    1.3779    0.2605   -3.5705 C   0  0  0  0  0  0  0  0  0  0  0  0
    0.5822   -0.0146   -4.2564 H   0  0  0  0  0  0  0  0  0  0  0  0
    0.4585   -0.1773    0.9220 C   0  0  0  0  0  0  0  0  0  0  0  0
    1.6684   -0.0824    1.1014 O   0  0  0  0  0  0  0  0  0  0  0  0
   -0.3916    0.4832    1.7917 N   0  0  0  0  0  0  0  0  0  0  0  0
   -1.3831    0.3141    1.6550 H   0  0  0  0  0  0  0  0  0  0  0  0
    0.0519    1.0206    3.0722 C   0  0  0  0  0  0  0  0  0  0  0  0
    0.8404    1.7659    2.9239 H   0  0  0  0  0  0  0  0  0  0  0  0
   -0.7828    1.5029    3.5896 H   0  0  0  0  0  0  0  0  0  0  0  0
    0.4401    0.2185    3.7089 H   0  0  0  0  0  0  0  0  0  0  0  0
  1  2  1  0  0  0  0
  2  3  1  0  0  0  0
  2  4  1  0  0  0  0
  2  5  1  0  0  0  0
  5  6  2  0  0  0  0
  5  7  1  0  0  0  0
  7  8  1  0  0  0  0
  7  9  1  0  0  0  0
  9 10  1  0  0  0  0
  9 11  1  0  0  0  0
  9 22  1  0  0  0  0
 11 12  1  0  0  0  0
 11 13  1  0  0  0  0
 11 14  1  0  0  0  0
 14 15  1  0  0  0  0
 14 20  2  0  0  0  0
 15 16  1  0  0  0  0
 15 17  1  0  0  0  0
 17 18  1  0  0  0  0
 17 19  2  0  0  0  0
 19 20  1  0  0  0  0
 20 21  1  0  0  0  0
 22 23  2  0  0  0  0
 22 24  1  0  0  0  0
 24 25  1  0  0  0  0
 24 26  1  0  0  0  0
 26 27  1  0  0  0  0
 26 28  1  0  0  0  0
 26 29  1  0  0  0  0
M  END
$$$$

  -OEChem-03222214043D

 29 29  0     1  0  0  0  0  0999 V2000
   -3.0059   -4.1037    0.5965 H   0  0  0  0  0  0  0  0  0  0  0  0
   -2.9800   -3.1828    0.0069 C   0  0  0  0  0  0  0  0  0  0  0  0
   -3.8171   -2.5485    0.3081 H   0  0  0  0  0  0  0  0  0  0  0  0
   -3.0870   -3.4408   -1.0494 H   0  0  0  0  0  0  0  0  0  0  0  0
   -1.6683   -2.4552    0.2345 C   0  0  0  0  0  0  0  0  0  0  0  0
   -0.8664   -2.8883    1.0419 O   0  0  0  0  0  0  0  0  0  0  0  0
   -1.3987   -1.2920   -0.4596 N   0  0  0  0  0  0  0  0  0  0  0  0
   -2.0574   -1.0463   -1.1924 H   0  0  0  0  0  0  0  0  0  0  0  0
   -0.0788   -0.6306   -0.4620 C   0  0  1  0  0  0  0  0  0  0  0  0
    0.6305   -1.3826   -0.8276 H   0  0  0  0  0  0  0  0  0  0  0  0
   -0.0725    0.5636   -1.4370 C   0  0  0  0  0  0  0  0  0  0  0  0
   -0.9309    0.5065   -2.1131 H   0  0  0  0  0  0  0  0  0  0  0  0
   -0.1471    1.5117   -0.8934 H   0  0  0  0  0  0  0  0  0  0  0  0
    1.1877    0.5415   -2.2564 C   0  0  0  0  0  0  0  0  0  0  0  0
    2.4651    0.6089   -1.7490 N   0  0  0  0  0  0  0  0  0  0  0  0
    2.7147    0.5879   -0.7556 H   0  0  0  0  0  0  0  0  0  0  0  0
    3.3544    0.5785   -2.8053 C   0  0  0  0  0  0  0  0  0  0  0  0
    4.4364    0.5989   -2.7114 H   0  0  0  0  0  0  0  0  0  0  0  0
    2.6999    0.5159   -3.9426 N   0  0  0  0  0  0  0  0  0  0  0  0
    1.3479    0.4954   -3.6153 C   0  0  0  0  0  0  0  0  0  0  0  0
    0.5370    0.4507   -4.3360 H   0  0  0  0  0  0  0  0  0  0  0  0
    0.4607   -0.1709    0.9104 C   0  0  0  0  0  0  0  0  0  0  0  0
    1.6737   -0.0979    1.0830 O   0  0  0  0  0  0  0  0  0  0  0  0
   -0.3786    0.4835    1.7941 N   0  0  0  0  0  0  0  0  0  0  0  0
   -1.3730    0.3325    1.6570 H   0  0  0  0  0  0  0  0  0  0  0  0
    0.0766    1.0014    3.0784 C   0  0  0  0  0  0  0  0  0  0  0  0
    0.8695    1.7431    2.9347 H   0  0  0  0  0  0  0  0  0  0  0  0
   -0.7518    1.4825    3.6068 H   0  0  0  0  0  0  0  0  0  0  0  0
    0.4626    0.1887    3.7029 H   0  0  0  0  0  0  0  0  0  0  0  0
  1  2  1  0  0  0  0
  2  3  1  0  0  0  0
  2  4  1  0  0  0  0
  2  5  1  0  0  0  0
  5  6  2  0  0  0  0
  5  7  1  0  0  0  0
  7  8  1  0  0  0  0
  7  9  1  0  0  0  0
  9 10  1  0  0  0  0
  9 11  1  0  0  0  0
  9 22  1  0  0  0  0
 11 12  1  0  0  0  0
 11 13  1  0  0  0  0
 11 14  1  0  0  0  0
 14 15  1  0  0  0  0
 14 20  2  0  0  0  0
 15 16  1  0  0  0  0
 15 17  1  0  0  0  0
 17 18  1  0  0  0  0
 17 19  2  0  0  0  0
 19 20  1  0  0  0  0
 20 21  1  0  0  0  0
 22 23  2  0  0  0  0
 22 24  1  0  0  0  0
 24 25  1  0  0  0  0
 24 26  1  0  0  0  0
 26 27  1  0  0  0  0
 26 28  1  0  0  0  0
 26 29  1  0  0  0  0
M  END
$$$$

  -OEChem-03222214043D

 29 29  0     1  0  0  0  0  0999 V2000
   -3.0061   -4.1102    0.5651 H   0  0  0  0  0  0  0  0  0  0  0  0
   -2.9832   -3.1828   -0.0144 C   0  0  0  0  0  0  0  0  0  0  0  0
   -3.8236   -2.5554    0.2922 H   0  0  0  0  0  0  0  0  0  0  0  0
   -3.0868   -3.4293   -1.0738 H   0  0  0  0  0  0  0  0  0  0  0  0
   -1.6751   -2.4524    0.2240 C   0  0  0  0  0  0  0  0  0  0  0  0
   -0.8736   -2.8893    1.0299 O   0  0  0  0  0  0  0  0  0  0  0  0
   -1.4065   -1.2832   -0.4606 N   0  0  0  0  0  0  0  0  0  0  0  0
   -2.0630   -1.0347   -1.1944 H   0  0  0  0  0  0  0  0  0  0  0  0
   -0.0883   -0.6191   -0.4562 C   0  0  1  0  0  0  0  0  0  0  0  0
    0.6166   -1.3750   -0.8217 H   0  0  0  0  0  0  0  0  0  0  0  0
   -0.0837    0.5666   -1.4440 C   0  0  0  0  0  0  0  0  0  0  0  0
   -0.9411    0.5040   -2.1211 H   0  0  0  0  0  0  0  0  0  0  0  0
   -0.1649    1.5145   -0.9009 H   0  0  0  0  0  0  0  0  0  0  0  0
    1.1780    0.5608   -2.2648 C   0  0  0  0  0  0  0  0  0  0  0  0
    2.4508    0.3609   -1.7787 N   0  0  0  0  0  0  0  0  0  0  0  0
    2.6980    0.1991   -0.7971 H   0  0  0  0  0  0  0  0  0  0  0  0
    3.3355    0.4108   -2.8377 C   0  0  0  0  0  0  0  0  0  0  0  0
    4.4119    0.2873   -2.7585 H   0  0  0  0  0  0  0  0  0  0  0  0
    2.6839    0.6286   -3.9573 N   0  0  0  0  0  0  0  0  0  0  0  0
    1.3388    0.7240   -3.6148 C   0  0  0  0  0  0  0  0  0  0  0  0
    0.5321    0.8988   -4.3202 H   0  0  0  0  0  0  0  0  0  0  0  0
    0.4585   -0.1647    0.9140 C   0  0  0  0  0  0  0  0  0  0  0  0
    1.6733   -0.1238    1.0846 O   0  0  0  0  0  0  0  0  0  0  0  0
   -0.3700    0.4858    1.8102 N   0  0  0  0  0  0  0  0  0  0  0  0
   -1.3668    0.3490    1.6759 H   0  0  0  0  0  0  0  0  0  0  0  0
    0.0983    0.9857    3.0970 C   0  0  0  0  0  0  0  0  0  0  0  0
    0.9013    1.7169    2.9561 H   0  0  0  0  0  0  0  0  0  0  0  0
   -0.7204    1.4744    3.6337 H   0  0  0  0  0  0  0  0  0  0  0  0
    0.4753    0.1622    3.7127 H   0  0  0  0  0  0  0  0  0  0  0  0
  1  2  1  0  0  0  0
  2  3  1  0  0  0  0
  2  4  1  0  0  0  0
  2  5  1  0  0  0  0
  5  6  2  0  0  0  0
  5  7  1  0  0  0  0
  7  8  1  0  0  0  0
  7  9  1  0  0  0  0
  9 10  1  0  0  0  0
  9 11  1  0  0  0  0
  9 22  1  0  0  0  0
 11 12  1  0  0  0  0
 11 13  1  0  0  0  0
 11 14  1  0  0  0  0
 14 15  1  0  0  0  0
 14 20  2  0  0  0  0
 15 16  1  0  0  0  0
 15 17  1  0  0  0  0
 17 18  1  0  0  0  0
 17 19  2  0  0  0  0
 19 20  1  0  0  0  0
 20 21  1  0  0  0  0
 22 23  2  0  0  0  0
 22 24  1  0  0  0  0
 24 25  1  0  0  0  0
 24 26  1  0  0  0  0
 26 27  1  0  0  0  0
 26 28  1  0  0  0  0
 26 29  1  0  0  0  0
M  END
$$$$

  -OEChem-03222214043D

 29 29  0     1  0  0  0  0  0999 V2000
   -3.0209   -4.0992    0.5704 H   0  0  0  0  0  0  0  0  0  0  0  0
   -2.9925   -3.1753   -0.0146 C   0  0  0  0  0  0  0  0  0  0  0  0
   -3.8286   -2.5411    0.2894 H   0  0  0  0  0  0  0  0  0  0  0  0
   -3.0988   -3.4272   -1.0725 H   0  0  0  0  0  0  0  0  0  0  0  0
   -1.6795   -2.4517    0.2182 C   0  0  0  0  0  0  0  0  0  0  0  0
   -0.8751   -2.8968    1.0166 O   0  0  0  0  0  0  0  0  0  0  0  0
   -1.4086   -1.2807   -0.4627 N   0  0  0  0  0  0  0  0  0  0  0  0
   -2.0686   -1.0211   -1.1896 H   0  0  0  0  0  0  0  0  0  0  0  0
   -0.0910   -0.6158   -0.4487 C   0  0  1  0  0  0  0  0  0  0  0  0
    0.6092   -1.3792   -0.8054 H   0  0  0  0  0  0  0  0  0  0  0  0
   -0.0771    0.5601   -1.4497 C   0  0  0  0  0  0  0  0  0  0  0  0
   -0.9301    0.4920   -2.1316 H   0  0  0  0  0  0  0  0  0  0  0  0
   -0.1664    1.5095   -0.9105 H   0  0  0  0  0  0  0  0  0  0  0  0
    1.1879    0.5710   -2.2691 C   0  0  0  0  0  0  0  0  0  0  0  0
    2.4295    0.1204   -1.8749 N   0  0  0  0  0  0  0  0  0  0  0  0
    2.6808   -0.1893   -0.9316 H   0  0  0  0  0  0  0  0  0  0  0  0
    3.3062    0.2739   -2.9309 C   0  0  0  0  0  0  0  0  0  0  0  0
    4.3623    0.0210   -2.9071 H   0  0  0  0  0  0  0  0  0  0  0  0
    2.6766    0.7745   -3.9687 N   0  0  0  0  0  0  0  0  0  0  0  0
    1.3570    0.9616   -3.5708 C   0  0  0  0  0  0  0  0  0  0  0  0
    0.5707    1.3566   -4.2069 H   0  0  0  0  0  0  0  0  0  0  0  0
    0.4527   -0.1616    0.9206 C   0  0  0  0  0  0  0  0  0  0  0  0
    1.6659   -0.1585    1.1021 O   0  0  0  0  0  0  0  0  0  0  0  0
   -0.3737    0.4898    1.8181 N   0  0  0  0  0  0  0  0  0  0  0  0
   -1.3718    0.3758    1.6717 H   0  0  0  0  0  0  0  0  0  0  0  0
    0.0920    0.9620    3.1158 C   0  0  0  0  0  0  0  0  0  0  0  0
    0.9071    1.6827    2.9922 H   0  0  0  0  0  0  0  0  0  0  0  0
   -0.7231    1.4545    3.6546 H   0  0  0  0  0  0  0  0  0  0  0  0
    0.4521    0.1228    3.7203 H   0  0  0  0  0  0  0  0  0  0  0  0
  1  2  1  0  0  0  0
  2  3  1  0  0  0  0
  2  4  1  0  0  0  0
  2  5  1  0  0  0  0
  5  6  2  0  0  0  0
  5  7  1  0  0  0  0
  7  8  1  0  0  0  0
  7  9  1  0  0  0  0
  9 10  1  0  0  0  0
  9 11  1  0  0  0  0
  9 22  1  0  0  0  0
 11 12  1  0  0  0  0
 11 13  1  0  0  0  0
 11 14  1  0  0  0  0
 14 15  1  0  0  0  0
 14 20  2  0  0  0  0
 15 16  1  0  0  0  0
 15 17  1  0  0  0  0
 17 18  1  0  0  0  0
 17 19  2  0  0  0  0
 19 20  1  0  0  0  0
 20 21  1  0  0  0  0
 22 23  2  0  0  0  0
 22 24  1  0  0  0  0
 24 25  1  0  0  0  0
 24 26  1  0  0  0  0
 26 27  1  0  0  0  0
 26 28  1  0  0  0  0
 26 29  1  0  0  0  0
M  END
$$$$

  -OEChem-03222214043D

 29 29  0     1  0  0  0  0  0999 V2000
   -3.0474   -4.0866    0.5710 H   0  0  0  0  0  0  0  0  0  0  0  0
   -3.0094   -3.1608   -0.0104 C   0  0  0  0  0  0  0  0  0  0  0  0
   -3.8350   -2.5163    0.3002 H   0  0  0  0  0  0  0  0  0  0  0  0
   -3.1239   -3.4067   -1.0688 H   0  0  0  0  0  0  0  0  0  0  0  0
   -1.6859   -2.4558    0.2192 C   0  0  0  0  0  0  0  0  0  0  0  0
   -0.8820   -2.9165    1.0091 O   0  0  0  0  0  0  0  0  0  0  0  0
   -1.4012   -1.2884   -0.4619 N   0  0  0  0  0  0  0  0  0  0  0  0
   -2.0618   -1.0149   -1.1831 H   0  0  0  0  0  0  0  0  0  0  0  0
   -0.0812   -0.6287   -0.4365 C   0  0  1  0  0  0  0  0  0  0  0  0
    0.6161   -1.3993   -0.7803 H   0  0  0  0  0  0  0  0  0  0  0  0
   -0.0590    0.5393   -1.4471 C   0  0  0  0  0  0  0  0  0  0  0  0
   -0.9084    0.4618   -2.1330 H   0  0  0  0  0  0  0  0  0  0  0  0
   -0.1599    1.4904   -0.9129 H   0  0  0  0  0  0  0  0  0  0  0  0
    1.2053    0.5671   -2.2710 C   0  0  0  0  0  0  0  0  0  0  0  0
    2.3898   -0.0993   -2.0360 N   0  0  0  0  0  0  0  0  0  0  0  0
    2.6357   -0.5931   -1.1756 H   0  0  0  0  0  0  0  0  0  0  0  0
    3.2612    0.1768   -3.0714 C   0  0  0  0  0  0  0  0  0  0  0  0
    4.2815   -0.1891   -3.1425 H   0  0  0  0  0  0  0  0  0  0  0  0
    2.6787    0.9514   -3.9560 N   0  0  0  0  0  0  0  0  0  0  0  0
    1.3994    1.1994   -3.4710 C   0  0  0  0  0  0  0  0  0  0  0  0
    0.6547    1.8042   -3.9795 H   0  0  0  0  0  0  0  0  0  0  0  0
    0.4497   -0.1721    0.9366 C   0  0  0  0  0  0  0  0  0  0  0  0
    1.6577   -0.2033    1.1430 O   0  0  0  0  0  0  0  0  0  0  0  0
   -0.3815    0.4863    1.8247 N   0  0  0  0  0  0  0  0  0  0  0  0
   -1.3786    0.3990    1.6569 H   0  0  0  0  0  0  0  0  0  0  0  0
    0.0710    0.9544    3.1287 C   0  0  0  0  0  0  0  0  0  0  0  0
    0.9007    1.6602    3.0165 H   0  0  0  0  0  0  0  0  0  0  0  0
   -0.7440    1.4632    3.6521 H   0  0  0  0  0  0  0  0  0  0  0  0
    0.4061    0.1113    3.7421 H   0  0  0  0  0  0  0  0  0  0  0  0
  1  2  1  0  0  0  0
  2  3  1  0  0  0  0
  2  4  1  0  0  0  0
  2  5  1  0  0  0  0
  5  6  2  0  0  0  0
  5  7  1  0  0  0  0
  7  8  1  0  0  0  0
  7  9  1  0  0  0  0
  9 10  1  0  0  0  0
  9 11  1  0  0  0  0
  9 22  1  0  0  0  0
 11 12  1  0  0  0  0
 11 13  1  0  0  0  0
 11 14  1  0  0  0  0
 14 15  1  0  0  0  0
 14 20  2  0  0  0  0
 15 16  1  0  0  0  0
 15 17  1  0  0  0  0
 17 18  1  0  0  0  0
 17 19  2  0  0  0  0
 19 20  1  0  0  0  0
 20 21  1  0  0  0  0
 22 23  2  0  0  0  0
 22 24  1  0  0  0  0
 24 25  1  0  0  0  0
 24 26  1  0  0  0  0
 26 27  1  0  0  0  0
 26 28  1  0  0  0  0
 26 29  1  0  0  0  0
M  END
$$$$

  -OEChem-03222214043D

 29 29  0     1  0  0  0  0  0999 V2000
   -3.0826   -4.0621    0.6116 H   0  0  0  0  0  0  0  0  0  0  0  0
   -3.0308   -3.1430    0.0208 C   0  0  0  0  0  0  0  0  0  0  0  0
   -3.8422   -2.4800    0.3303 H   0  0  0  0  0  0  0  0  0  0  0  0
   -3.1574   -3.3973   -1.0343 H   0  0  0  0  0  0  0  0  0  0  0  0
   -1.6923   -2.4617    0.2345 C   0  0  0  0  0  0  0  0  0  0  0  0
   -0.8888   -2.9355    1.0169 O   0  0  0  0  0  0  0  0  0  0  0  0
   -1.3891   -1.3064   -0.4592 N   0  0  0  0  0  0  0  0  0  0  0  0
   -2.0532   -1.0186   -1.1717 H   0  0  0  0  0  0  0  0  0  0  0  0
   -0.0630   -0.6577   -0.4335 C   0  0  1  0  0  0  0  0  0  0  0  0
    0.6358   -1.4314   -0.7640 H   0  0  0  0  0  0  0  0  0  0  0  0
   -0.0363    0.5082   -1.4472 C   0  0  0  0  0  0  0  0  0  0  0  0
   -0.8853    0.4211   -2.1321 H   0  0  0  0  0  0  0  0  0  0  0  0
   -0.1453    1.4621   -0.9195 H   0  0  0  0  0  0  0  0  0  0  0  0
    1.2185    0.5465   -2.2870 C   0  0  0  0  0  0  0  0  0  0  0  0
    2.3128   -0.2936   -2.2684 N   0  0  0  0  0  0  0  0  0  0  0  0
    2.5044   -1.0127   -1.5710 H   0  0  0  0  0  0  0  0  0  0  0  0
    3.2058    0.1263   -3.2352 C   0  0  0  0  0  0  0  0  0  0  0  0
    4.1713   -0.3304   -3.4334 H   0  0  0  0  0  0  0  0  0  0  0  0
    2.7212    1.1617   -3.8777 N   0  0  0  0  0  0  0  0  0  0  0  0
    1.4891    1.4350   -3.2949 C   0  0  0  0  0  0  0  0  0  0  0  0
    0.8290    2.2406   -3.6019 H   0  0  0  0  0  0  0  0  0  0  0  0
    0.4483   -0.1920    0.9448 C   0  0  0  0  0  0  0  0  0  0  0  0
    1.6484   -0.2418    1.1839 O   0  0  0  0  0  0  0  0  0  0  0  0
   -0.3940    0.4808    1.8118 N   0  0  0  0  0  0  0  0  0  0  0  0
   -1.3885    0.4054    1.6240 H   0  0  0  0  0  0  0  0  0  0  0  0
    0.0386    0.9576    3.1196 C   0  0  0  0  0  0  0  0  0  0  0  0
    0.8794    1.6518    3.0159 H   0  0  0  0  0  0  0  0  0  0  0  0
   -0.7800    1.4825    3.6212 H   0  0  0  0  0  0  0  0  0  0  0  0
    0.3510    0.1173    3.7485 H   0  0  0  0  0  0  0  0  0  0  0  0
  1  2  1  0  0  0  0
  2  3  1  0  0  0  0
  2  4  1  0  0  0  0
  2  5  1  0  0  0  0
  5  6  2  0  0  0  0
  5  7  1  0  0  0  0
  7  8  1  0  0  0  0
  7  9  1  0  0  0  0
  9 10  1  0  0  0  0
  9 11  1  0  0  0  0
  9 22  1  0  0  0  0
 11 12  1  0  0  0  0
 11 13  1  0  0  0  0
 11 14  1  0  0  0  0
 14 15  1  0  0  0  0
 14 20  2  0  0  0  0
 15 16  1  0  0  0  0
 15 17  1  0  0  0  0
 17 18  1  0  0  0  0
 17 19  2  0  0  0  0
 19 20  1  0  0  0  0
 20 21  1  0  0  0  0
 22 23  2  0  0  0  0
 22 24  1  0  0  0  0
 24 25  1  0  0  0  0
 24 26  1  0  0  0  0
 26 27  1  0  0  0  0
 26 28  1  0  0  0  0
 26 29  1  0  0  0  0
M  END
$$$$

  -OEChem-03222214043D

 29 29  0     1  0  0  0  0  0999 V2000
   -3.0995   -4.0329    0.6673 H   0  0  0  0  0  0  0  0  0  0  0  0
   -3.0395   -3.1184    0.0699 C   0  0  0  0  0  0  0  0  0  0  0  0
   -3.8236   -2.4322    0.3982 H   0  0  0  0  0  0  0  0  0  0  0  0
   -3.2023   -3.3741   -0.9798 H   0  0  0  0  0  0  0  0  0  0  0  0
   -1.6782   -2.4718    0.2423 C   0  0  0  0  0  0  0  0  0  0  0  0
   -0.8636   -2.9649    1.0007 O   0  0  0  0  0  0  0  0  0  0  0  0
   -1.3682   -1.3257   -0.4632 N   0  0  0  0  0  0  0  0  0  0  0  0
   -2.0494   -1.0155   -1.1496 H   0  0  0  0  0  0  0  0  0  0  0  0
   -0.0411   -0.6782   -0.4457 C   0  0  1  0  0  0  0  0  0  0  0  0
    0.6675   -1.4447   -0.7707 H   0  0  0  0  0  0  0  0  0  0  0  0
   -0.0285    0.4921   -1.4551 C   0  0  0  0  0  0  0  0  0  0  0  0
   -0.8809    0.3927   -2.1341 H   0  0  0  0  0  0  0  0  0  0  0  0
   -0.1474    1.4458   -0.9290 H   0  0  0  0  0  0  0  0  0  0  0  0
    1.2130    0.5415   -2.3142 C   0  0  0  0  0  0  0  0  0  0  0  0
    2.1793   -0.4200   -2.5294 N   0  0  0  0  0  0  0  0  0  0  0  0
    2.2476   -1.3217   -2.0607 H   0  0  0  0  0  0  0  0  0  0  0  0
    3.1316    0.0975   -3.3866 C   0  0  0  0  0  0  0  0  0  0  0  0
    4.0211   -0.4283   -3.7219 H   0  0  0  0  0  0  0  0  0  0  0  0
    2.8074    1.3184   -3.7373 N   0  0  0  0  0  0  0  0  0  0  0  0
    1.6241    1.6099   -3.0684 C   0  0  0  0  0  0  0  0  0  0  0  0
    1.0965    2.5564   -3.1379 H   0  0  0  0  0  0  0  0  0  0  0  0
    0.4528   -0.2033    0.9368 C   0  0  0  0  0  0  0  0  0  0  0  0
    1.6465   -0.2534    1.2023 O   0  0  0  0  0  0  0  0  0  0  0  0
   -0.4048    0.4738    1.7858 N   0  0  0  0  0  0  0  0  0  0  0  0
   -1.3951    0.4051    1.5767 H   0  0  0  0  0  0  0  0  0  0  0  0
    0.0024    0.9516    3.1013 C   0  0  0  0  0  0  0  0  0  0  0  0
    0.8433    1.6477    3.0134 H   0  0  0  0  0  0  0  0  0  0  0  0
   -0.8268    1.4744    3.5874 H   0  0  0  0  0  0  0  0  0  0  0  0
    0.3049    0.1121    3.7361 H   0  0  0  0  0  0  0  0  0  0  0  0
  1  2  1  0  0  0  0
  2  3  1  0  0  0  0
  2  4  1  0  0  0  0
  2  5  1  0  0  0  0
  5  6  2  0  0  0  0
  5  7  1  0  0  0  0
  7  8  1  0  0  0  0
  7  9  1  0  0  0  0
  9 10  1  0  0  0  0
  9 11  1  0  0  0  0
  9 22  1  0  0  0  0
 11 12  1  0  0  0  0
 11 13  1  0  0  0  0
 11 14  1  0  0  0  0
 14 15  1  0  0  0  0
 14 20  2  0  0  0  0
 15 16  1  0  0  0  0
 15 17  1  0  0  0  0
 17 18  1  0  0  0  0
 17 19  2  0  0  0  0
 19 20  1  0  0  0  0
 20 21  1  0  0  0  0
 22 23  2  0  0  0  0
 22 24  1  0  0  0  0
 24 25  1  0  0  0  0
 24 26  1  0  0  0  0
 26 27  1  0  0  0  0
 26 28  1  0  0  0  0
 26 29  1  0  0  0  0
M  END
$$$$

  -OEChem-03222214043D

 29 29  0     1  0  0  0  0  0999 V2000
   -3.0849   -4.0290    0.6834 H   0  0  0  0  0  0  0  0  0  0  0  0
   -3.0306   -3.1153    0.0845 C   0  0  0  0  0  0  0  0  0  0  0  0
   -3.8059   -2.4251    0.4255 H   0  0  0  0  0  0  0  0  0  0  0  0
   -3.2120   -3.3710   -0.9622 H   0  0  0  0  0  0  0  0  0  0  0  0
   -1.6631   -2.4758    0.2343 C   0  0  0  0  0  0  0  0  0  0  0  0
   -0.8365   -2.9786    0.9725 O   0  0  0  0  0  0  0  0  0  0  0  0
   -1.3598   -1.3273   -0.4705 N   0  0  0  0  0  0  0  0  0  0  0  0
   -2.0584   -0.9977   -1.1299 H   0  0  0  0  0  0  0  0  0  0  0  0
   -0.0351   -0.6739   -0.4592 C   0  0  1  0  0  0  0  0  0  0  0  0
    0.6832   -1.4290   -0.7912 H   0  0  0  0  0  0  0  0  0  0  0  0
   -0.0374    0.5060   -1.4571 C   0  0  0  0  0  0  0  0  0  0  0  0
   -0.8936    0.4068   -2.1312 H   0  0  0  0  0  0  0  0  0  0  0  0
   -0.1578    1.4554   -0.9236 H   0  0  0  0  0  0  0  0  0  0  0  0
    1.1982    0.5601   -2.3232 C   0  0  0  0  0  0  0  0  0  0  0  0
    2.0039   -0.4673   -2.7697 N   0  0  0  0  0  0  0  0  0  0  0  0
    1.9134   -1.4531   -2.5327 H   0  0  0  0  0  0  0  0  0  0  0  0
    3.0320    0.0743   -3.5179 C   0  0  0  0  0  0  0  0  0  0  0  0
    3.8283   -0.4948   -3.9890 H   0  0  0  0  0  0  0  0  0  0  0  0
    2.9077    1.3777   -3.5792 N   0  0  0  0  0  0  0  0  0  0  0  0
    1.7811    1.6935   -2.8283 C   0  0  0  0  0  0  0  0  0  0  0  0
    1.4128    2.7023   -2.6673 H   0  0  0  0  0  0  0  0  0  0  0  0
    0.4542   -0.2024    0.9271 C   0  0  0  0  0  0  0  0  0  0  0  0
    1.6470   -0.2409    1.1967 O   0  0  0  0  0  0  0  0  0  0  0  0
   -0.4103    0.4659    1.7766 N   0  0  0  0  0  0  0  0  0  0  0  0
   -1.3998    0.3886    1.5670 H   0  0  0  0  0  0  0  0  0  0  0  0
   -0.0075    0.9507    3.0909 C   0  0  0  0  0  0  0  0  0  0  0  0
    0.8274    1.6538    3.0014 H   0  0  0  0  0  0  0  0  0  0  0  0
   -0.8410    1.4677    3.5757 H   0  0  0  0  0  0  0  0  0  0  0  0
    0.3021    0.1154    3.7278 H   0  0  0  0  0  0  0  0  0  0  0  0
  1  2  1  0  0  0  0
  2  3  1  0  0  0  0
  2  4  1  0  0  0  0
  2  5  1  0  0  0  0
  5  6  2  0  0  0  0
  5  7  1  0  0  0  0
  7  8  1  0  0  0  0
  7  9  1  0  0  0  0
  9 10  1  0  0  0  0
  9 11  1  0  0  0  0
  9 22  1  0  0  0  0
 11 12  1  0  0  0  0
 11 13  1  0  0  0  0
 11 14  1  0  0  0  0
 14 15  1  0  0  0  0
 14 20  2  0  0  0  0
 15 16  1  0  0  0  0
 15 17  1  0  0  0  0
 17 18  1  0  0  0  0
 17 19  2  0  0  0  0
 19 20  1  0  0  0  0
 20 21  1  0  0  0  0
 22 23  2  0  0  0  0
 22 24  1  0  0  0  0
 24 25  1  0  0  0  0
 24 26  1  0  0  0  0
 26 27  1  0  0  0  0
 26 28  1  0  0  0  0
 26 29  1  0  0  0  0
M  END
$$$$

  -OEChem-03222214043D

 29 29  0     1  0  0  0  0  0999 V2000
   -3.0607   -4.0299    0.6773 H   0  0  0  0  0  0  0  0  0  0  0  0
   -3.0127   -3.1126    0.0833 C   0  0  0  0  0  0  0  0  0  0  0  0
   -3.7820   -2.4236    0.4395 H   0  0  0  0  0  0  0  0  0  0  0  0
   -3.2095   -3.3609   -0.9623 H   0  0  0  0  0  0  0  0  0  0  0  0
   -1.6422   -2.4760    0.2184 C   0  0  0  0  0  0  0  0  0  0  0  0
   -0.8058   -2.9853    0.9409 O   0  0  0  0  0  0  0  0  0  0  0  0
   -1.3489   -1.3207   -0.4798 N   0  0  0  0  0  0  0  0  0  0  0  0
   -2.0596   -0.9795   -1.1197 H   0  0  0  0  0  0  0  0  0  0  0  0
   -0.0294   -0.6568   -0.4694 C   0  0  1  0  0  0  0  0  0  0  0  0
    0.6992   -1.3980   -0.8128 H   0  0  0  0  0  0  0  0  0  0  0  0
   -0.0479    0.5320   -1.4548 C   0  0  0  0  0  0  0  0  0  0  0  0
   -0.9070    0.4392   -2.1262 H   0  0  0  0  0  0  0  0  0  0  0  0
   -0.1653    1.4760   -0.9109 H   0  0  0  0  0  0  0  0  0  0  0  0
    1.1881    0.5865   -2.3174 C   0  0  0  0  0  0  0  0  0  0  0  0
    1.8198   -0.4410   -2.9864 N   0  0  0  0  0  0  0  0  0  0  0  0
    1.5638   -1.4257   -2.9623 H   0  0  0  0  0  0  0  0  0  0  0  0
    2.9207    0.0766   -3.6432 C   0  0  0  0  0  0  0  0  0  0  0  0
    3.6161   -0.4996   -4.2467 H   0  0  0  0  0  0  0  0  0  0  0  0
    3.0042    1.3681   -3.4361 N   0  0  0  0  0  0  0  0  0  0  0  0
    1.9419    1.6960   -2.6007 C   0  0  0  0  0  0  0  0  0  0  0  0
    1.7364    2.6954   -2.2290 H   0  0  0  0  0  0  0  0  0  0  0  0
    0.4563   -0.1921    0.9211 C   0  0  0  0  0  0  0  0  0  0  0  0
    1.6496   -0.2110    1.1892 O   0  0  0  0  0  0  0  0  0  0  0  0
   -0.4152    0.4619    1.7751 N   0  0  0  0  0  0  0  0  0  0  0  0
   -1.4039    0.3707    1.5676 H   0  0  0  0  0  0  0  0  0  0  0  0
   -0.0172    0.9413    3.0932 C   0  0  0  0  0  0  0  0  0  0  0  0
    0.8089    1.6553    3.0083 H   0  0  0  0  0  0  0  0  0  0  0  0
   -0.8561    1.4443    3.5833 H   0  0  0  0  0  0  0  0  0  0  0  0
    0.3033    0.1048    3.7231 H   0  0  0  0  0  0  0  0  0  0  0  0
  1  2  1  0  0  0  0
  2  3  1  0  0  0  0
  2  4  1  0  0  0  0
  2  5  1  0  0  0  0
  5  6  2  0  0  0  0
  5  7  1  0  0  0  0
  7  8  1  0  0  0  0
  7  9  1  0  0  0  0
  9 10  1  0  0  0  0
  9 11  1  0  0  0  0
  9 22  1  0  0  0  0
 11 12  1  0  0  0  0
 11 13  1  0  0  0  0
 11 14  1  0  0  0  0
 14 15  1  0  0  0  0
 14 20  2  0  0  0  0
 15 16  1  0  0  0  0
 15 17  1  0  0  0  0
 17 18  1  0  0  0  0
 17 19  2  0  0  0  0
 19 20  1  0  0  0  0
 20 21  1  0  0  0  0
 22 23  2  0  0  0  0
 22 24  1  0  0  0  0
 24 25  1  0  0  0  0
 24 26  1  0  0  0  0
 26 27  1  0  0  0  0
 26 28  1  0  0  0  0
 26 29  1  0  0  0  0
M  END
$$$$

  -OEChem-03222214043D

 29 29  0     1  0  0  0  0  0999 V2000
   -3.0390   -4.0382    0.6551 H   0  0  0  0  0  0  0  0  0  0  0  0
   -2.9970   -3.1179    0.0655 C   0  0  0  0  0  0  0  0  0  0  0  0
   -3.7735   -2.4370    0.4220 H   0  0  0  0  0  0  0  0  0  0  0  0
   -3.1882   -3.3638   -0.9818 H   0  0  0  0  0  0  0  0  0  0  0  0
   -1.6322   -2.4708    0.2074 C   0  0  0  0  0  0  0  0  0  0  0  0
   -0.7946   -2.9771    0.9306 O   0  0  0  0  0  0  0  0  0  0  0  0
   -1.3474   -1.3092   -0.4838 N   0  0  0  0  0  0  0  0  0  0  0  0
   -2.0607   -0.9691   -1.1213 H   0  0  0  0  0  0  0  0  0  0  0  0
   -0.0308   -0.6389   -0.4728 C   0  0  1  0  0  0  0  0  0  0  0  0
    0.7024   -1.3716   -0.8276 H   0  0  0  0  0  0  0  0  0  0  0  0
   -0.0557    0.5576   -1.4470 C   0  0  0  0  0  0  0  0  0  0  0  0
   -0.9168    0.4802   -2.1172 H   0  0  0  0  0  0  0  0  0  0  0  0
   -0.1629    1.4963   -0.8923 H   0  0  0  0  0  0  0  0  0  0  0  0
    1.1844    0.6047   -2.3009 C   0  0  0  0  0  0  0  0  0  0  0  0
    1.6480   -0.3483   -3.1826 N   0  0  0  0  0  0  0  0  0  0  0  0
    1.2391   -1.2638   -3.3553 H   0  0  0  0  0  0  0  0  0  0  0  0
    2.8136    0.1222   -3.7583 C   0  0  0  0  0  0  0  0  0  0  0  0
    3.4116   -0.4167   -4.4877 H   0  0  0  0  0  0  0  0  0  0  0  0
    3.0936    1.3178   -3.3001 N   0  0  0  0  0  0  0  0  0  0  0  0
    2.0950    1.6260   -2.3822 C   0  0  0  0  0  0  0  0  0  0  0  0
    2.0411    2.5510   -1.8156 H   0  0  0  0  0  0  0  0  0  0  0  0
    0.4566   -0.1821    0.9201 C   0  0  0  0  0  0  0  0  0  0  0  0
    1.6516   -0.1866    1.1813 O   0  0  0  0  0  0  0  0  0  0  0  0
   -0.4161    0.4613    1.7809 N   0  0  0  0  0  0  0  0  0  0  0  0
   -1.4051    0.3599    1.5796 H   0  0  0  0  0  0  0  0  0  0  0  0
   -0.0151    0.9379    3.0989 C   0  0  0  0  0  0  0  0  0  0  0  0
    0.8023    1.6619    3.0132 H   0  0  0  0  0  0  0  0  0  0  0  0
   -0.8570    1.4281    3.5969 H   0  0  0  0  0  0  0  0  0  0  0  0
    0.3195    0.1018    3.7221 H   0  0  0  0  0  0  0  0  0  0  0  0
  1  2  1  0  0  0  0
  2  3  1  0  0  0  0
  2  4  1  0  0  0  0
  2  5  1  0  0  0  0
  5  6  2  0  0  0  0
  5  7  1  0  0  0  0
  7  8  1  0  0  0  0
  7  9  1  0  0  0  0
  9 10  1  0  0  0  0
  9 11  1  0  0  0  0
  9 22  1  0  0  0  0
 11 12  1  0  0  0  0
 11 13  1  0  0  0  0
 11 14  1  0  0  0  0
 14 15  1  0  0  0  0
 14 20  2  0  0  0  0
 15 16  1  0  0  0  0
 15 17  1  0  0  0  0
 17 18  1  0  0  0  0
 17 19  2  0  0  0  0
 19 20  1  0  0  0  0
 20 21  1  0  0  0  0
 22 23  2  0  0  0  0
 22 24  1  0  0  0  0
 24 25  1  0  0  0  0
 24 26  1  0  0  0  0
 26 27  1  0  0  0  0
 26 28  1  0  0  0  0
 26 29  1  0  0  0  0
M  END
$$$$

  -OEChem-03222214043D

 29 29  0     1  0  0  0  0  0999 V2000
   -3.0268   -4.0458    0.6330 H   0  0  0  0  0  0  0  0  0  0  0  0
   -2.9877   -3.1219    0.0486 C   0  0  0  0  0  0  0  0  0  0  0  0
   -3.7705   -2.4481    0.4044 H   0  0  0  0  0  0  0  0  0  0  0  0
   -3.1712   -3.3626   -1.0012 H   0  0  0  0  0  0  0  0  0  0  0  0
   -1.6283   -2.4661    0.2024 C   0  0  0  0  0  0  0  0  0  0  0  0
   -0.7939   -2.9666    0.9333 O   0  0  0  0  0  0  0  0  0  0  0  0
   -1.3471   -1.3003   -0.4832 N   0  0  0  0  0  0  0  0  0  0  0  0
   -2.0584   -0.9647   -1.1252 H   0  0  0  0  0  0  0  0  0  0  0  0
   -0.0319   -0.6275   -0.4720 C   0  0  1  0  0  0  0  0  0  0  0  0
    0.7022   -1.3561   -0.8351 H   0  0  0  0  0  0  0  0  0  0  0  0
   -0.0603    0.5734   -1.4389 C   0  0  0  0  0  0  0  0  0  0  0  0
   -0.9248    0.5093   -2.1062 H   0  0  0  0  0  0  0  0  0  0  0  0
   -0.1564    1.5086   -0.8760 H   0  0  0  0  0  0  0  0  0  0  0  0
    1.1828    0.6133   -2.2870 C   0  0  0  0  0  0  0  0  0  0  0  0
    1.5016   -0.1910   -3.3597 N   0  0  0  0  0  0  0  0  0  0  0  0
    0.9570   -0.9741   -3.7132 H   0  0  0  0  0  0  0  0  0  0  0  0
    2.7253    0.2158   -3.8585 C   0  0  0  0  0  0  0  0  0  0  0  0
    3.2387   -0.2382   -4.7011 H   0  0  0  0  0  0  0  0  0  0  0  0
    3.1783    1.2348   -3.1702 N   0  0  0  0  0  0  0  0  0  0  0  0
    2.2330    1.4880   -2.1812 C   0  0  0  0  0  0  0  0  0  0  0  0
    2.3124    2.2743   -1.4363 H   0  0  0  0  0  0  0  0  0  0  0  0
    0.4582   -0.1768    0.9222 C   0  0  0  0  0  0  0  0  0  0  0  0
    1.6556   -0.1574    1.1716 O   0  0  0  0  0  0  0  0  0  0  0  0
   -0.4154    0.4598    1.7871 N   0  0  0  0  0  0  0  0  0  0  0  0
   -1.4043    0.3387    1.5958 H   0  0  0  0  0  0  0  0  0  0  0  0
   -0.0113    0.9396    3.1033 C   0  0  0  0  0  0  0  0  0  0  0  0
    0.8011    1.6687    3.0132 H   0  0  0  0  0  0  0  0  0  0  0  0
   -0.8542    1.4249    3.6044 H   0  0  0  0  0  0  0  0  0  0  0  0
    0.3311    0.1060    3.7257 H   0  0  0  0  0  0  0  0  0  0  0  0
  1  2  1  0  0  0  0
  2  3  1  0  0  0  0
  2  4  1  0  0  0  0
  2  5  1  0  0  0  0
  5  6  2  0  0  0  0
  5  7  1  0  0  0  0
  7  8  1  0  0  0  0
  7  9  1  0  0  0  0
  9 10  1  0  0  0  0
  9 11  1  0  0  0  0
  9 22  1  0  0  0  0
 11 12  1  0  0  0  0
 11 13  1  0  0  0  0
 11 14  1  0  0  0  0
 14 15  1  0  0  0  0
 14 20  2  0  0  0  0
 15 16  1  0  0  0  0
 15 17  1  0  0  0  0
 17 18  1  0  0  0  0
 17 19  2  0  0  0  0
 19 20  1  0  0  0  0
 20 21  1  0  0  0  0
 22 23  2  0  0  0  0
 22 24  1  0  0  0  0
 24 25  1  0  0  0  0
 24 26  1  0  0  0  0
 26 27  1  0  0  0  0
 26 28  1  0  0  0  0
 26 29  1  0  0  0  0
M  END
$$$$

  -OEChem-03222214043D

 29 29  0     1  0  0  0  0  0999 V2000
   -3.0185   -4.0562    0.6109 H   0  0  0  0  0  0  0  0  0  0  0  0
   -2.9807   -3.1308    0.0289 C   0  0  0  0  0  0  0  0  0  0  0  0
   -3.7785   -2.4676    0.3713 H   0  0  0  0  0  0  0  0  0  0  0  0
   -3.1419   -3.3727   -1.0243 H   0  0  0  0  0  0  0  0  0  0  0  0
   -1.6328   -2.4581    0.2083 C   0  0  0  0  0  0  0  0  0  0  0  0
   -0.8092   -2.9445    0.9605 O   0  0  0  0  0  0  0  0  0  0  0  0
   -1.3519   -1.2915   -0.4758 N   0  0  0  0  0  0  0  0  0  0  0  0
   -2.0500   -0.9757   -1.1416 H   0  0  0  0  0  0  0  0  0  0  0  0
   -0.0351   -0.6218   -0.4661 C   0  0  1  0  0  0  0  0  0  0  0  0
    0.6962   -1.3507   -0.8346 H   0  0  0  0  0  0  0  0  0  0  0  0
   -0.0616    0.5830   -1.4285 C   0  0  0  0  0  0  0  0  0  0  0  0
   -0.9307    0.5321   -2.0909 H   0  0  0  0  0  0  0  0  0  0  0  0
   -0.1446    1.5160   -0.8598 H   0  0  0  0  0  0  0  0  0  0  0  0
    1.1811    0.6182   -2.2771 C   0  0  0  0  0  0  0  0  0  0  0  0
    1.3837    0.0264   -3.5049 N   0  0  0  0  0  0  0  0  0  0  0  0
    0.7277   -0.5656   -4.0086 H   0  0  0  0  0  0  0  0  0  0  0  0
    2.6564    0.3498   -3.9377 C   0  0  0  0  0  0  0  0  0  0  0  0
    3.1014    0.0203   -4.8724 H   0  0  0  0  0  0  0  0  0  0  0  0
    3.2512    1.1179   -3.0586 N   0  0  0  0  0  0  0  0  0  0  0  0
    2.3478    1.2887   -2.0136 C   0  0  0  0  0  0  0  0  0  0  0  0
    2.5370    1.8768   -1.1202 H   0  0  0  0  0  0  0  0  0  0  0  0
    0.4593   -0.1756    0.9281 C   0  0  0  0  0  0  0  0  0  0  0  0
    1.6584   -0.1447    1.1683 O   0  0  0  0  0  0  0  0  0  0  0  0
   -0.4118    0.4606    1.7956 N   0  0  0  0  0  0  0  0  0  0  0  0
   -1.4010    0.3300    1.6125 H   0  0  0  0  0  0  0  0  0  0  0  0
   -0.0025    0.9473    3.1076 C   0  0  0  0  0  0  0  0  0  0  0  0
    0.8037    1.6822    3.0099 H   0  0  0  0  0  0  0  0  0  0  0  0
   -0.8455    1.4279    3.6131 H   0  0  0  0  0  0  0  0  0  0  0  0
    0.3505    0.1183    3.7302 H   0  0  0  0  0  0  0  0  0  0  0  0
  1  2  1  0  0  0  0
  2  3  1  0  0  0  0
  2  4  1  0  0  0  0
  2  5  1  0  0  0  0
  5  6  2  0  0  0  0
  5  7  1  0  0  0  0
  7  8  1  0  0  0  0
  7  9  1  0  0  0  0
  9 10  1  0  0  0  0
  9 11  1  0  0  0  0
  9 22  1  0  0  0  0
 11 12  1  0  0  0  0
 11 13  1  0  0  0  0
 11 14  1  0  0  0  0
 14 15  1  0  0  0  0
 14 20  2  0  0  0  0
 15 16  1  0  0  0  0
 15 17  1  0  0  0  0
 17 18  1  0  0  0  0
 17 19  2  0  0  0  0
 19 20  1  0  0  0  0
 20 21  1  0  0  0  0
 22 23  2  0  0  0  0
 22 24  1  0  0  0  0
 24 25  1  0  0  0  0
 24 26  1  0  0  0  0
 26 27  1  0  0  0  0
 26 28  1  0  0  0  0
 26 29  1  0  0  0  0
M  END
$$$$

  -OEChem-03222214043D

 29 29  0     1  0  0  0  0  0999 V2000
   -3.0106   -4.0562    0.6077 H   0  0  0  0  0  0  0  0  0  0  0  0
   -2.9720   -3.1304    0.0264 C   0  0  0  0  0  0  0  0  0  0  0  0
   -3.7759   -2.4711    0.3618 H   0  0  0  0  0  0  0  0  0  0  0  0
   -3.1224   -3.3722   -1.0283 H   0  0  0  0  0  0  0  0  0  0  0  0
   -1.6295   -2.4505    0.2181 C   0  0  0  0  0  0  0  0  0  0  0  0
   -0.8154   -2.9263    0.9871 O   0  0  0  0  0  0  0  0  0  0  0  0
   -1.3467   -1.2864   -0.4697 N   0  0  0  0  0  0  0  0  0  0  0  0
   -2.0324   -0.9895   -1.1567 H   0  0  0  0  0  0  0  0  0  0  0  0
   -0.0289   -0.6184   -0.4597 C   0  0  1  0  0  0  0  0  0  0  0  0
    0.7027   -1.3482   -0.8262 H   0  0  0  0  0  0  0  0  0  0  0  0
   -0.0546    0.5866   -1.4230 C   0  0  0  0  0  0  0  0  0  0  0  0
   -0.9256    0.5337   -2.0829 H   0  0  0  0  0  0  0  0  0  0  0  0
   -0.1372    1.5207   -0.8562 H   0  0  0  0  0  0  0  0  0  0  0  0
    1.1856    0.6270   -2.2759 C   0  0  0  0  0  0  0  0  0  0  0  0
    1.3037    0.2907   -3.6070 N   0  0  0  0  0  0  0  0  0  0  0  0
    0.5672   -0.0675   -4.2100 H   0  0  0  0  0  0  0  0  0  0  0  0
    2.6115    0.5124   -3.9967 C   0  0  0  0  0  0  0  0  0  0  0  0
    3.0059    0.3334   -4.9930 H   0  0  0  0  0  0  0  0  0  0  0  0
    3.3106    0.9747   -2.9900 N   0  0  0  0  0  0  0  0  0  0  0  0
    2.4383    1.0483   -1.9074 C   0  0  0  0  0  0  0  0  0  0  0  0
    2.7092    1.3989   -0.9156 H   0  0  0  0  0  0  0  0  0  0  0  0
    0.4590   -0.1704    0.9364 C   0  0  0  0  0  0  0  0  0  0  0  0
    1.6566   -0.1482    1.1852 O   0  0  0  0  0  0  0  0  0  0  0  0
   -0.4149    0.4680    1.7994 N   0  0  0  0  0  0  0  0  0  0  0  0
   -1.4033    0.3392    1.6104 H   0  0  0  0  0  0  0  0  0  0  0  0
   -0.0124    0.9405    3.1185 C   0  0  0  0  0  0  0  0  0  0  0  0
    0.7976    1.6727    3.0332 H   0  0  0  0  0  0  0  0  0  0  0  0
   -0.8570    1.4196    3.6227 H   0  0  0  0  0  0  0  0  0  0  0  0
    0.3328    0.1037    3.7350 H   0  0  0  0  0  0  0  0  0  0  0  0
  1  2  1  0  0  0  0
  2  3  1  0  0  0  0
  2  4  1  0  0  0  0
  2  5  1  0  0  0  0
  5  6  2  0  0  0  0
  5  7  1  0  0  0  0
  7  8  1  0  0  0  0
  7  9  1  0  0  0  0
  9 10  1  0  0  0  0
  9 11  1  0  0  0  0
  9 22  1  0  0  0  0
 11 12  1  0  0  0  0
 11 13  1  0  0  0  0
 11 14  1  0  0  0  0
 14 15  1  0  0  0  0
 14 20  2  0  0  0  0
 15 16  1  0  0  0  0
 15 17  1  0  0  0  0
 17 18  1  0  0  0  0
 17 19  2  0  0  0  0
 19 20  1  0  0  0  0
 20 21  1  0  0  0  0
 22 23  2  0  0  0  0
 22 24  1  0  0  0  0
 24 25  1  0  0  0  0
 24 26  1  0  0  0  0
 26 27  1  0  0  0  0
 26 28  1  0  0  0  0
 26 29  1  0  0  0  0
M  END
$$$$

  -OEChem-03222214043D

 29 29  0     1  0  0  0  0  0999 V2000
   -2.9998   -4.0592    0.5903 H   0  0  0  0  0  0  0  0  0  0  0  0
   -2.9588   -3.1322    0.0109 C   0  0  0  0  0  0  0  0  0  0  0  0
   -3.7782   -2.4829    0.3278 H   0  0  0  0  0  0  0  0  0  0  0  0
   -3.0814   -3.3750   -1.0473 H   0  0  0  0  0  0  0  0  0  0  0  0
   -1.6291   -2.4370    0.2349 C   0  0  0  0  0  0  0  0  0  0  0  0
   -0.8329   -2.8989    1.0306 O   0  0  0  0  0  0  0  0  0  0  0  0
   -1.3370   -1.2778   -0.4580 N   0  0  0  0  0  0  0  0  0  0  0  0
   -2.0008   -1.0056   -1.1759 H   0  0  0  0  0  0  0  0  0  0  0  0
   -0.0152   -0.6165   -0.4424 C   0  0  1  0  0  0  0  0  0  0  0  0
    0.7165   -1.3492   -0.8029 H   0  0  0  0  0  0  0  0  0  0  0  0
   -0.0366    0.5870   -1.4104 C   0  0  0  0  0  0  0  0  0  0  0  0
   -0.9075    0.5230   -2.0692 H   0  0  0  0  0  0  0  0  0  0  0  0
   -0.1276    1.5237   -0.8496 H   0  0  0  0  0  0  0  0  0  0  0  0
    1.1999    0.6398   -2.2718 C   0  0  0  0  0  0  0  0  0  0  0  0
    1.2554    0.5865   -3.6482 N   0  0  0  0  0  0  0  0  0  0  0  0
    0.4665    0.4928   -4.2833 H   0  0  0  0  0  0  0  0  0  0  0  0
    2.5784    0.6836   -4.0365 C   0  0  0  0  0  0  0  0  0  0  0  0
    2.9318    0.6686   -5.0636 H   0  0  0  0  0  0  0  0  0  0  0  0
    3.3493    0.7994   -2.9844 N   0  0  0  0  0  0  0  0  0  0  0  0
    2.5080    0.7733   -1.8753 C   0  0  0  0  0  0  0  0  0  0  0  0
    2.8432    0.8569   -0.8459 H   0  0  0  0  0  0  0  0  0  0  0  0
    0.4588   -0.1663    0.9586 C   0  0  0  0  0  0  0  0  0  0  0  0
    1.6514   -0.1695    1.2310 O   0  0  0  0  0  0  0  0  0  0  0  0
   -0.4208    0.4792    1.8106 N   0  0  0  0  0  0  0  0  0  0  0  0
   -1.4076    0.3617    1.6060 H   0  0  0  0  0  0  0  0  0  0  0  0
   -0.0343    0.9370    3.1398 C   0  0  0  0  0  0  0  0  0  0  0  0
    0.7849    1.6608    3.0732 H   0  0  0  0  0  0  0  0  0  0  0  0
   -0.8814    1.4215    3.6344 H   0  0  0  0  0  0  0  0  0  0  0  0
    0.2918    0.0919    3.7553 H   0  0  0  0  0  0  0  0  0  0  0  0
  1  2  1  0  0  0  0
  2  3  1  0  0  0  0
  2  4  1  0  0  0  0
  2  5  1  0  0  0  0
  5  6  2  0  0  0  0
  5  7  1  0  0  0  0
  7  8  1  0  0  0  0
  7  9  1  0  0  0  0
  9 10  1  0  0  0  0
  9 11  1  0  0  0  0
  9 22  1  0  0  0  0
 11 12  1  0  0  0  0
 11 13  1  0  0  0  0
 11 14  1  0  0  0  0
 14 15  1  0  0  0  0
 14 20  2  0  0  0  0
 15 16  1  0  0  0  0
 15 17  1  0  0  0  0
 17 18  1  0  0  0  0
 17 19  2  0  0  0  0
 19 20  1  0  0  0  0
 20 21  1  0  0  0  0
 22 23  2  0  0  0  0
 22 24  1  0  0  0  0
 24 25  1  0  0  0  0
 24 26  1  0  0  0  0
 26 27  1  0  0  0  0
 26 28  1  0  0  0  0
 26 29  1  0  0  0  0
M  END
$$$$

  -OEChem-03222214043D

 29 29  0     1  0  0  0  0  0999 V2000
   -2.9899   -4.0640    0.5749 H   0  0  0  0  0  0  0  0  0  0  0  0
   -2.9476   -3.1335    0.0014 C   0  0  0  0  0  0  0  0  0  0  0  0
   -3.7757   -2.4917    0.3108 H   0  0  0  0  0  0  0  0  0  0  0  0
   -3.0541   -3.3710   -1.0597 H   0  0  0  0  0  0  0  0  0  0  0  0
   -1.6258   -2.4307    0.2472 C   0  0  0  0  0  0  0  0  0  0  0  0
   -0.8450   -2.8829    1.0637 O   0  0  0  0  0  0  0  0  0  0  0  0
   -1.3235   -1.2763   -0.4496 N   0  0  0  0  0  0  0  0  0  0  0  0
   -1.9710   -1.0182   -1.1876 H   0  0  0  0  0  0  0  0  0  0  0  0
    0.0001   -0.6185   -0.4240 C   0  0  1  0  0  0  0  0  0  0  0  0
    0.7318   -1.3550   -0.7755 H   0  0  0  0  0  0  0  0  0  0  0  0
   -0.0113    0.5855   -1.3939 C   0  0  0  0  0  0  0  0  0  0  0  0
   -0.8766    0.5068   -2.0585 H   0  0  0  0  0  0  0  0  0  0  0  0
   -0.1187    1.5242   -0.8396 H   0  0  0  0  0  0  0  0  0  0  0  0
    1.2243    0.6559   -2.2590 C   0  0  0  0  0  0  0  0  0  0  0  0
    1.2572    0.9017   -3.6153 N   0  0  0  0  0  0  0  0  0  0  0  0
    0.4583    1.0919   -4.2153 H   0  0  0  0  0  0  0  0  0  0  0  0
    2.5720    0.8599   -4.0384 C   0  0  0  0  0  0  0  0  0  0  0  0
    2.9057    1.0191   -5.0597 H   0  0  0  0  0  0  0  0  0  0  0  0
    3.3619    0.5988   -3.0276 N   0  0  0  0  0  0  0  0  0  0  0  0
    2.5407    0.4670   -1.9112 C   0  0  0  0  0  0  0  0  0  0  0  0
    2.8994    0.2434   -0.9115 H   0  0  0  0  0  0  0  0  0  0  0  0
    0.4572   -0.1629    0.9811 C   0  0  0  0  0  0  0  0  0  0  0  0
    1.6449   -0.1745    1.2732 O   0  0  0  0  0  0  0  0  0  0  0  0
   -0.4324    0.4887    1.8178 N   0  0  0  0  0  0  0  0  0  0  0  0
   -1.4160    0.3695    1.6002 H   0  0  0  0  0  0  0  0  0  0  0  0
   -0.0647    0.9416    3.1539 C   0  0  0  0  0  0  0  0  0  0  0  0
    0.7600    1.6605    3.1026 H   0  0  0  0  0  0  0  0  0  0  0  0
   -0.9166    1.4303    3.6362 H   0  0  0  0  0  0  0  0  0  0  0  0
    0.2461    0.0929    3.7724 H   0  0  0  0  0  0  0  0  0  0  0  0
  1  2  1  0  0  0  0
  2  3  1  0  0  0  0
  2  4  1  0  0  0  0
  2  5  1  0  0  0  0
  5  6  2  0  0  0  0
  5  7  1  0  0  0  0
  7  8  1  0  0  0  0
  7  9  1  0  0  0  0
  9 10  1  0  0  0  0
  9 11  1  0  0  0  0
  9 22  1  0  0  0  0
 11 12  1  0  0  0  0
 11 13  1  0  0  0  0
 11 14  1  0  0  0  0
 14 15  1  0  0  0  0
 14 20  2  0  0  0  0
 15 16  1  0  0  0  0
 15 17  1  0  0  0  0
 17 18  1  0  0  0  0
 17 19  2  0  0  0  0
 19 20  1  0  0  0  0
 20 21  1  0  0  0  0
 22 23  2  0  0  0  0
 22 24  1  0  0  0  0
 24 25  1  0  0  0  0
 24 26  1  0  0  0  0
 26 27  1  0  0  0  0
 26 28  1  0  0  0  0
 26 29  1  0  0  0  0
M  END
$$$$

  -OEChem-03222214043D

 29 29  0     1  0  0  0  0  0999 V2000
   -3.0085   -4.0674    0.5629 H   0  0  0  0  0  0  0  0  0  0  0  0
   -2.9595   -3.1352   -0.0075 C   0  0  0  0  0  0  0  0  0  0  0  0
   -3.7890   -2.4923    0.2966 H   0  0  0  0  0  0  0  0  0  0  0  0
   -3.0575   -3.3699   -1.0701 H   0  0  0  0  0  0  0  0  0  0  0  0
   -1.6386   -2.4354    0.2513 C   0  0  0  0  0  0  0  0  0  0  0  0
   -0.8682   -2.8842    1.0795 O   0  0  0  0  0  0  0  0  0  0  0  0
   -1.3273   -1.2837   -0.4454 N   0  0  0  0  0  0  0  0  0  0  0  0
   -1.9641   -1.0302   -1.1941 H   0  0  0  0  0  0  0  0  0  0  0  0
   -0.0021   -0.6310   -0.4102 C   0  0  1  0  0  0  0  0  0  0  0  0
    0.7227   -1.3787   -0.7501 H   0  0  0  0  0  0  0  0  0  0  0  0
    0.0037    0.5672   -1.3878 C   0  0  0  0  0  0  0  0  0  0  0  0
   -0.8529    0.4803   -2.0626 H   0  0  0  0  0  0  0  0  0  0  0  0
   -0.1137    1.5088   -0.8405 H   0  0  0  0  0  0  0  0  0  0  0  0
    1.2444    0.6420   -2.2467 C   0  0  0  0  0  0  0  0  0  0  0  0
    1.3133    1.1646   -3.5207 N   0  0  0  0  0  0  0  0  0  0  0  0
    0.5496    1.5894   -4.0415 H   0  0  0  0  0  0  0  0  0  0  0  0
    2.6103    1.0372   -3.9805 C   0  0  0  0  0  0  0  0  0  0  0  0
    2.9641    1.3645   -4.9540 H   0  0  0  0  0  0  0  0  0  0  0  0
    3.3552    0.4611   -3.0712 N   0  0  0  0  0  0  0  0  0  0  0  0
    2.5235    0.2116   -1.9832 C   0  0  0  0  0  0  0  0  0  0  0  0
    2.8473   -0.2613   -1.0609 H   0  0  0  0  0  0  0  0  0  0  0  0
    0.4551   -0.1705    0.9924 C   0  0  0  0  0  0  0  0  0  0  0  0
    1.6445   -0.1773    1.2785 O   0  0  0  0  0  0  0  0  0  0  0  0
   -0.4321    0.4893    1.8248 N   0  0  0  0  0  0  0  0  0  0  0  0
   -1.4165    0.3689    1.6103 H   0  0  0  0  0  0  0  0  0  0  0  0
   -0.0611    0.9509    3.1569 C   0  0  0  0  0  0  0  0  0  0  0  0
    0.7661    1.6663    3.0986 H   0  0  0  0  0  0  0  0  0  0  0  0
   -0.9106    1.4462    3.6366 H   0  0  0  0  0  0  0  0  0  0  0  0
    0.2478    0.1060    3.7816 H   0  0  0  0  0  0  0  0  0  0  0  0
  1  2  1  0  0  0  0
  2  3  1  0  0  0  0
  2  4  1  0  0  0  0
  2  5  1  0  0  0  0
  5  6  2  0  0  0  0
  5  7  1  0  0  0  0
  7  8  1  0  0  0  0
  7  9  1  0  0  0  0
  9 10  1  0  0  0  0
  9 11  1  0  0  0  0
  9 22  1  0  0  0  0
 11 12  1  0  0  0  0
 11 13  1  0  0  0  0
 11 14  1  0  0  0  0
 14 15  1  0  0  0  0
 14 20  2  0  0  0  0
 15 16  1  0  0  0  0
 15 17  1  0  0  0  0
 17 18  1  0  0  0  0
 17 19  2  0  0  0  0
 19 20  1  0  0  0  0
 20 21  1  0  0  0  0
 22 23  2  0  0  0  0
 22 24  1  0  0  0  0
 24 25  1  0  0  0  0
 24 26  1  0  0  0  0
 26 27  1  0  0  0  0
 26 28  1  0  0  0  0
 26 29  1  0  0  0  0
M  END
$$$$

  -OEChem-03222214043D

 29 29  0     1  0  0  0  0  0999 V2000
   -3.0380   -4.0647    0.5671 H   0  0  0  0  0  0  0  0  0  0  0  0
   -2.9831   -3.1347   -0.0063 C   0  0  0  0  0  0  0  0  0  0  0  0
   -3.8099   -2.4866    0.2941 H   0  0  0  0  0  0  0  0  0  0  0  0
   -3.0802   -3.3719   -1.0685 H   0  0  0  0  0  0  0  0  0  0  0  0
   -1.6593   -2.4408    0.2532 C   0  0  0  0  0  0  0  0  0  0  0  0
   -0.8949   -2.8893    1.0871 O   0  0  0  0  0  0  0  0  0  0  0  0
   -1.3393   -1.2924   -0.4448 N   0  0  0  0  0  0  0  0  0  0  0  0
   -1.9696   -1.0393   -1.1993 H   0  0  0  0  0  0  0  0  0  0  0  0
   -0.0108   -0.6470   -0.4031 C   0  0  1  0  0  0  0  0  0  0  0  0
    0.7036   -1.4085   -0.7317 H   0  0  0  0  0  0  0  0  0  0  0  0
    0.0143    0.5418   -1.3924 C   0  0  0  0  0  0  0  0  0  0  0  0
   -0.8364    0.4545   -2.0750 H   0  0  0  0  0  0  0  0  0  0  0  0
   -0.1050    1.4861   -0.8505 H   0  0  0  0  0  0  0  0  0  0  0  0
    1.2604    0.6146   -2.2458 C   0  0  0  0  0  0  0  0  0  0  0  0
    1.4032    1.3799   -3.3838 N   0  0  0  0  0  0  0  0  0  0  0  0
    0.7020    1.9953   -3.7894 H   0  0  0  0  0  0  0  0  0  0  0  0
    2.6787    1.1968   -3.8833 C   0  0  0  0  0  0  0  0  0  0  0  0
    3.0751    1.6717   -4.7763 H   0  0  0  0  0  0  0  0  0  0  0  0
    3.3437    0.3634   -3.1239 N   0  0  0  0  0  0  0  0  0  0  0  0
    2.4823    0.0015   -2.0923 C   0  0  0  0  0  0  0  0  0  0  0  0
    2.7497   -0.6701   -1.2816 H   0  0  0  0  0  0  0  0  0  0  0  0
    0.4521   -0.1820    0.9950 C   0  0  0  0  0  0  0  0  0  0  0  0
    1.6436   -0.1917    1.2728 O   0  0  0  0  0  0  0  0  0  0  0  0
   -0.4281    0.4886    1.8263 N   0  0  0  0  0  0  0  0  0  0  0  0
   -1.4139    0.3660    1.6201 H   0  0  0  0  0  0  0  0  0  0  0  0
   -0.0480    0.9557    3.1538 C   0  0  0  0  0  0  0  0  0  0  0  0
    0.7857    1.6627    3.0875 H   0  0  0  0  0  0  0  0  0  0  0  0
   -0.8910    1.4624    3.6331 H   0  0  0  0  0  0  0  0  0  0  0  0
    0.2550    0.1120    3.7830 H   0  0  0  0  0  0  0  0  0  0  0  0
  1  2  1  0  0  0  0
  2  3  1  0  0  0  0
  2  4  1  0  0  0  0
  2  5  1  0  0  0  0
  5  6  2  0  0  0  0
  5  7  1  0  0  0  0
  7  8  1  0  0  0  0
  7  9  1  0  0  0  0
  9 10  1  0  0  0  0
  9 11  1  0  0  0  0
  9 22  1  0  0  0  0
 11 12  1  0  0  0  0
 11 13  1  0  0  0  0
 11 14  1  0  0  0  0
 14 15  1  0  0  0  0
 14 20  2  0  0  0  0
 15 16  1  0  0  0  0
 15 17  1  0  0  0  0
 17 18  1  0  0  0  0
 17 19  2  0  0  0  0
 19 20  1  0  0  0  0
 20 21  1  0  0  0  0
 22 23  2  0  0  0  0
 22 24  1  0  0  0  0
 24 25  1  0  0  0  0
 24 26  1  0  0  0  0
 26 27  1  0  0  0  0
 26 28  1  0  0  0  0
 26 29  1  0  0  0  0
M  END
$$$$

  -OEChem-03222214043D

 29 29  0     1  0  0  0  0  0999 V2000
   -3.0850   -4.0384    0.6046 H   0  0  0  0  0  0  0  0  0  0  0  0
   -2.9989   -3.1314   -0.0009 C   0  0  0  0  0  0  0  0  0  0  0  0
   -3.8336   -2.4682    0.2384 H   0  0  0  0  0  0  0  0  0  0  0  0
   -3.0515   -3.4091   -1.0565 H   0  0  0  0  0  0  0  0  0  0  0  0
   -1.6822   -2.4355    0.2889 C   0  0  0  0  0  0  0  0  0  0  0  0
   -0.9488   -2.8694    1.1578 O   0  0  0  0  0  0  0  0  0  0  0  0
   -1.3297   -1.3081   -0.4284 N   0  0  0  0  0  0  0  0  0  0  0  0
   -1.9280   -1.0811   -1.2169 H   0  0  0  0  0  0  0  0  0  0  0  0
    0.0123   -0.6903   -0.3839 C   0  0  1  0  0  0  0  0  0  0  0  0
    0.7281   -1.4621   -0.6757 H   0  0  0  0  0  0  0  0  0  0  0  0
    0.0587    0.4998   -1.3769 C   0  0  0  0  0  0  0  0  0  0  0  0
   -0.9206    0.6220   -1.8493 H   0  0  0  0  0  0  0  0  0  0  0  0
    0.2585    1.4257   -0.8262 H   0  0  0  0  0  0  0  0  0  0  0  0
    1.0921    0.3890   -2.4778 C   0  0  0  0  0  0  0  0  0  0  0  0
    1.2878    1.3418   -3.4555 N   0  0  0  0  0  0  0  0  0  0  0  0
    0.7905    2.2252   -3.5434 H   0  0  0  0  0  0  0  0  0  0  0  0
    2.3056    0.9228   -4.2903 C   0  0  0  0  0  0  0  0  0  0  0  0
    2.6759    1.4736   -5.1502 H   0  0  0  0  0  0  0  0  0  0  0  0
    2.7585   -0.2402   -3.8955 N   0  0  0  0  0  0  0  0  0  0  0  0
    2.0263   -0.5803   -2.7627 C   0  0  0  0  0  0  0  0  0  0  0  0
    2.1843   -1.4929   -2.1969 H   0  0  0  0  0  0  0  0  0  0  0  0
    0.4545   -0.2121    1.0173 C   0  0  0  0  0  0  0  0  0  0  0  0
    1.6411   -0.2282    1.3156 O   0  0  0  0  0  0  0  0  0  0  0  0
   -0.4308    0.4887    1.8180 N   0  0  0  0  0  0  0  0  0  0  0  0
   -1.4142    0.3795    1.5926 H   0  0  0  0  0  0  0  0  0  0  0  0
   -0.0704    0.9788    3.1428 C   0  0  0  0  0  0  0  0  0  0  0  0
    0.7725    1.6750    3.0783 H   0  0  0  0  0  0  0  0  0  0  0  0
   -0.9166    1.5048    3.5950 H   0  0  0  0  0  0  0  0  0  0  0  0
    0.2105    0.1453    3.7953 H   0  0  0  0  0  0  0  0  0  0  0  0
  1  2  1  0  0  0  0
  2  3  1  0  0  0  0
  2  4  1  0  0  0  0
  2  5  1  0  0  0  0
  5  6  2  0  0  0  0
  5  7  1  0  0  0  0
  7  8  1  0  0  0  0
  7  9  1  0  0  0  0
  9 10  1  0  0  0  0
  9 11  1  0  0  0  0
  9 22  1  0  0  0  0
 11 12  1  0  0  0  0
 11 13  1  0  0  0  0
 11 14  1  0  0  0  0
 14 15  1  0  0  0  0
 14 20  2  0  0  0  0
 15 16  1  0  0  0  0
 15 17  1  0  0  0  0
 17 18  1  0  0  0  0
 17 19  2  0  0  0  0
 19 20  1  0  0  0  0
 20 21  1  0  0  0  0
 22 23  2  0  0  0  0
 22 24  1  0  0  0  0
 24 25  1  0  0  0  0
 24 26  1  0  0  0  0
 26 27  1  0  0  0  0
 26 28  1  0  0  0  0
 26 29  1  0  0  0  0
M  END
$$$$

  -OEChem-03222214043D

 29 29  0     1  0  0  0  0  0999 V2000
   -3.0833   -4.0361    0.6103 H   0  0  0  0  0  0  0  0  0  0  0  0
   -2.9958   -3.1292    0.0052 C   0  0  0  0  0  0  0  0  0  0  0  0
   -3.8283   -2.4639    0.2458 H   0  0  0  0  0  0  0  0  0  0  0  0
   -3.0507   -3.4061   -1.0502 H   0  0  0  0  0  0  0  0  0  0  0  0
   -1.6771   -2.4365    0.2927 C   0  0  0  0  0  0  0  0  0  0  0  0
   -0.9421   -2.8715    1.1596 O   0  0  0  0  0  0  0  0  0  0  0  0
   -1.3240   -1.3111   -0.4271 N   0  0  0  0  0  0  0  0  0  0  0  0
   -1.9233   -1.0857   -1.2155 H   0  0  0  0  0  0  0  0  0  0  0  0
    0.0181   -0.6934   -0.3862 C   0  0  1  0  0  0  0  0  0  0  0  0
    0.7419   -1.4593   -0.6762 H   0  0  0  0  0  0  0  0  0  0  0  0
    0.0583    0.4992   -1.3762 C   0  0  0  0  0  0  0  0  0  0  0  0
   -0.9230    0.6363   -1.8404 H   0  0  0  0  0  0  0  0  0  0  0  0
    0.2725    1.4192   -0.8207 H   0  0  0  0  0  0  0  0  0  0  0  0
    1.0882    0.3821   -2.4787 C   0  0  0  0  0  0  0  0  0  0  0  0
    1.5017    1.4266   -3.2780 N   0  0  0  0  0  0  0  0  0  0  0  0
    1.1996    2.3957   -3.2062 H   0  0  0  0  0  0  0  0  0  0  0  0
    2.4412    0.9561   -4.1753 C   0  0  0  0  0  0  0  0  0  0  0  0
    2.9460    1.5584   -4.9254 H   0  0  0  0  0  0  0  0  0  0  0  0
    2.6332   -0.3263   -3.9927 N   0  0  0  0  0  0  0  0  0  0  0  0
    1.8097   -0.6962   -2.9350 C   0  0  0  0  0  0  0  0  0  0  0  0
    1.7468   -1.7072   -2.5449 H   0  0  0  0  0  0  0  0  0  0  0  0
    0.4564   -0.2137    1.0166 C   0  0  0  0  0  0  0  0  0  0  0  0
    1.6425   -0.2229    1.3171 O   0  0  0  0  0  0  0  0  0  0  0  0
   -0.4316    0.4869    1.8147 N   0  0  0  0  0  0  0  0  0  0  0  0
   -1.4142    0.3719    1.5891 H   0  0  0  0  0  0  0  0  0  0  0  0
   -0.0748    0.9794    3.1397 C   0  0  0  0  0  0  0  0  0  0  0  0
    0.7677    1.6762    3.0767 H   0  0  0  0  0  0  0  0  0  0  0  0
   -0.9225    1.5053    3.5889 H   0  0  0  0  0  0  0  0  0  0  0  0
    0.2051    0.1471    3.7941 H   0  0  0  0  0  0  0  0  0  0  0  0
  1  2  1  0  0  0  0
  2  3  1  0  0  0  0
  2  4  1  0  0  0  0
  2  5  1  0  0  0  0
  5  6  2  0  0  0  0
  5  7  1  0  0  0  0
  7  8  1  0  0  0  0
  7  9  1  0  0  0  0
  9 10  1  0  0  0  0
  9 11  1  0  0  0  0
  9 22  1  0  0  0  0
 11 12  1  0  0  0  0
 11 13  1  0  0  0  0
 11 14  1  0  0  0  0
 14 15  1  0  0  0  0
 14 20  2  0  0  0  0
 15 16  1  0  0  0  0
 15 17  1  0  0  0  0
 17 18  1  0  0  0  0
 17 19  2  0  0  0  0
 19 20  1  0  0  0  0
 20 21  1  0  0  0  0
 22 23  2  0  0  0  0
 22 24  1  0  0  0  0
 24 25  1  0  0  0  0
 24 26  1  0  0  0  0
 26 27  1  0  0  0  0
 26 28  1  0  0  0  0
 26 29  1  0  0  0  0
M  END
$$$$

  -OEChem-03222214043D

 29 29  0     1  0  0  0  0  0999 V2000
   -3.0660   -4.0371    0.6182 H   0  0  0  0  0  0  0  0  0  0  0  0
   -2.9848   -3.1305    0.0114 C   0  0  0  0  0  0  0  0  0  0  0  0
   -3.8142   -2.4645    0.2609 H   0  0  0  0  0  0  0  0  0  0  0  0
   -3.0523   -3.4080   -1.0432 H   0  0  0  0  0  0  0  0  0  0  0  0
   -1.6624   -2.4386    0.2833 C   0  0  0  0  0  0  0  0  0  0  0  0
   -0.9150   -2.8772    1.1379 O   0  0  0  0  0  0  0  0  0  0  0  0
   -1.3215   -1.3075   -0.4333 N   0  0  0  0  0  0  0  0  0  0  0  0
   -1.9334   -1.0740   -1.2096 H   0  0  0  0  0  0  0  0  0  0  0  0
    0.0165   -0.6811   -0.3987 C   0  0  1  0  0  0  0  0  0  0  0  0
    0.7477   -1.4368   -0.7011 H   0  0  0  0  0  0  0  0  0  0  0  0
    0.0438    0.5184   -1.3793 C   0  0  0  0  0  0  0  0  0  0  0  0
   -0.9379    0.6586   -1.8419 H   0  0  0  0  0  0  0  0  0  0  0  0
    0.2608    1.4359   -0.8211 H   0  0  0  0  0  0  0  0  0  0  0  0
    1.0737    0.3891   -2.4772 C   0  0  0  0  0  0  0  0  0  0  0  0
    1.7248    1.4348   -3.0951 N   0  0  0  0  0  0  0  0  0  0  0  0
    1.6314    2.4221   -2.8665 H   0  0  0  0  0  0  0  0  0  0  0  0
    2.5842    0.9195   -4.0470 C   0  0  0  0  0  0  0  0  0  0  0  0
    3.2362    1.5094   -4.6848 H   0  0  0  0  0  0  0  0  0  0  0  0
    2.4972   -0.3876   -4.0717 N   0  0  0  0  0  0  0  0  0  0  0  0
    1.5710   -0.7329   -3.0942 C   0  0  0  0  0  0  0  0  0  0  0  0
    1.2766   -1.7527   -2.8657 H   0  0  0  0  0  0  0  0  0  0  0  0
    0.4585   -0.2064    1.0047 C   0  0  0  0  0  0  0  0  0  0  0  0
    1.6462   -0.2034    1.2991 O   0  0  0  0  0  0  0  0  0  0  0  0
   -0.4322    0.4830    1.8092 N   0  0  0  0  0  0  0  0  0  0  0  0
   -1.4147    0.3573    1.5884 H   0  0  0  0  0  0  0  0  0  0  0  0
   -0.0756    0.9663    3.1374 C   0  0  0  0  0  0  0  0  0  0  0  0
    0.7591    1.6728    3.0782 H   0  0  0  0  0  0  0  0  0  0  0  0
   -0.9275    1.4786    3.5946 H   0  0  0  0  0  0  0  0  0  0  0  0
    0.2156    0.1305    3.7825 H   0  0  0  0  0  0  0  0  0  0  0  0
  1  2  1  0  0  0  0
  2  3  1  0  0  0  0
  2  4  1  0  0  0  0
  2  5  1  0  0  0  0
  5  6  2  0  0  0  0
  5  7  1  0  0  0  0
  7  8  1  0  0  0  0
  7  9  1  0  0  0  0
  9 10  1  0  0  0  0
  9 11  1  0  0  0  0
  9 22  1  0  0  0  0
 11 12  1  0  0  0  0
 11 13  1  0  0  0  0
 11 14  1  0  0  0  0
 14 15  1  0  0  0  0
 14 20  2  0  0  0  0
 15 16  1  0  0  0  0
 15 17  1  0  0  0  0
 17 18  1  0  0  0  0
 17 19  2  0  0  0  0
 19 20  1  0  0  0  0
 20 21  1  0  0  0  0
 22 23  2  0  0  0  0
 22 24  1  0  0  0  0
 24 25  1  0  0  0  0
 24 26  1  0  0  0  0
 26 27  1  0  0  0  0
 26 28  1  0  0  0  0
 26 29  1  0  0  0  0
M  END
$$$$

  -OEChem-03222214043D

 29 29  0     1  0  0  0  0  0999 V2000
   -3.0284   -4.0664    0.5788 H   0  0  0  0  0  0  0  0  0  0  0  0
   -2.9689   -3.1425   -0.0037 C   0  0  0  0  0  0  0  0  0  0  0  0
   -3.8030   -2.4950    0.2771 H   0  0  0  0  0  0  0  0  0  0  0  0
   -3.0491   -3.3922   -1.0645 H   0  0  0  0  0  0  0  0  0  0  0  0
   -1.6517   -2.4403    0.2676 C   0  0  0  0  0  0  0  0  0  0  0  0
   -0.8964   -2.8791    1.1150 O   0  0  0  0  0  0  0  0  0  0  0  0
   -1.3251   -1.2994   -0.4399 N   0  0  0  0  0  0  0  0  0  0  0  0
   -1.9462   -1.0598   -1.2068 H   0  0  0  0  0  0  0  0  0  0  0  0
    0.0078   -0.6621   -0.4077 C   0  0  1  0  0  0  0  0  0  0  0  0
    0.7431   -1.4090   -0.7261 H   0  0  0  0  0  0  0  0  0  0  0  0
    0.0256    0.5432   -1.3778 C   0  0  0  0  0  0  0  0  0  0  0  0
   -0.9542    0.6773   -1.8462 H   0  0  0  0  0  0  0  0  0  0  0  0
    0.2372    1.4627   -0.8210 H   0  0  0  0  0  0  0  0  0  0  0  0
    1.0616    0.3957   -2.4638 C   0  0  0  0  0  0  0  0  0  0  0  0
    1.9419    1.3607   -2.9010 N   0  0  0  0  0  0  0  0  0  0  0  0
    2.0535    2.2955   -2.5139 H   0  0  0  0  0  0  0  0  0  0  0  0
    2.7116    0.8241   -3.9160 C   0  0  0  0  0  0  0  0  0  0  0  0
    3.4992    1.3506   -4.4473 H   0  0  0  0  0  0  0  0  0  0  0  0
    2.3520   -0.4150   -4.1489 N   0  0  0  0  0  0  0  0  0  0  0  0
    1.3336   -0.6980   -3.2463 C   0  0  0  0  0  0  0  0  0  0  0  0
    0.8190   -1.6517   -3.1787 H   0  0  0  0  0  0  0  0  0  0  0  0
    0.4579   -0.1964    0.9957 C   0  0  0  0  0  0  0  0  0  0  0  0
    1.6492   -0.1730    1.2749 O   0  0  0  0  0  0  0  0  0  0  0  0
   -0.4328    0.4784    1.8127 N   0  0  0  0  0  0  0  0  0  0  0  0
   -1.4160    0.3387    1.6035 H   0  0  0  0  0  0  0  0  0  0  0  0
   -0.0675    0.9675    3.1364 C   0  0  0  0  0  0  0  0  0  0  0  0
    0.7607    1.6806    3.0678 H   0  0  0  0  0  0  0  0  0  0  0  0
   -0.9190    1.4738    3.6007 H   0  0  0  0  0  0  0  0  0  0  0  0
    0.2366    0.1354    3.7802 H   0  0  0  0  0  0  0  0  0  0  0  0
  1  2  1  0  0  0  0
  2  3  1  0  0  0  0
  2  4  1  0  0  0  0
  2  5  1  0  0  0  0
  5  6  2  0  0  0  0
  5  7  1  0  0  0  0
  7  8  1  0  0  0  0
  7  9  1  0  0  0  0
  9 10  1  0  0  0  0
  9 11  1  0  0  0  0
  9 22  1  0  0  0  0
 11 12  1  0  0  0  0
 11 13  1  0  0  0  0
 11 14  1  0  0  0  0
 14 15  1  0  0  0  0
 14 20  2  0  0  0  0
 15 16  1  0  0  0  0
 15 17  1  0  0  0  0
 17 18  1  0  0  0  0
 17 19  2  0  0  0  0
 19 20  1  0  0  0  0
 20 21  1  0  0  0  0
 22 23  2  0  0  0  0
 22 24  1  0  0  0  0
 24 25  1  0  0  0  0
 24 26  1  0  0  0  0
 26 27  1  0  0  0  0
 26 28  1  0  0  0  0
 26 29  1  0  0  0  0
M  END
$$$$

  -OEChem-03222214043D

 29 29  0     1  0  0  0  0  0999 V2000
   -3.0121   -4.0785    0.5721 H   0  0  0  0  0  0  0  0  0  0  0  0
   -2.9602   -3.1533   -0.0092 C   0  0  0  0  0  0  0  0  0  0  0  0
   -3.7979   -2.5118    0.2743 H   0  0  0  0  0  0  0  0  0  0  0  0
   -3.0415   -3.4021   -1.0701 H   0  0  0  0  0  0  0  0  0  0  0  0
   -1.6475   -2.4420    0.2595 C   0  0  0  0  0  0  0  0  0  0  0  0
   -0.8849   -2.8781    1.1019 O   0  0  0  0  0  0  0  0  0  0  0  0
   -1.3324   -1.2955   -0.4442 N   0  0  0  0  0  0  0  0  0  0  0  0
   -1.9597   -1.0550   -1.2058 H   0  0  0  0  0  0  0  0  0  0  0  0
   -0.0029   -0.6510   -0.4152 C   0  0  1  0  0  0  0  0  0  0  0  0
    0.7327   -1.3938   -0.7451 H   0  0  0  0  0  0  0  0  0  0  0  0
    0.0131    0.5562   -1.3799 C   0  0  0  0  0  0  0  0  0  0  0  0
   -0.9638    0.6778   -1.8576 H   0  0  0  0  0  0  0  0  0  0  0  0
    0.2138    1.4830   -0.8310 H   0  0  0  0  0  0  0  0  0  0  0  0
    1.0563    0.3870   -2.4523 C   0  0  0  0  0  0  0  0  0  0  0  0
    2.1305    1.2100   -2.7055 N   0  0  0  0  0  0  0  0  0  0  0  0
    2.4194    2.0125   -2.1491 H   0  0  0  0  0  0  0  0  0  0  0  0
    2.8210    0.7032   -3.7907 C   0  0  0  0  0  0  0  0  0  0  0  0
    3.7254    1.1334   -4.2116 H   0  0  0  0  0  0  0  0  0  0  0  0
    2.2254   -0.3750   -4.2420 N   0  0  0  0  0  0  0  0  0  0  0  0
    1.1277   -0.5857   -3.4156 C   0  0  0  0  0  0  0  0  0  0  0  0
    0.4219   -1.4039   -3.5233 H   0  0  0  0  0  0  0  0  0  0  0  0
    0.4562   -0.1886    0.9863 C   0  0  0  0  0  0  0  0  0  0  0  0
    1.6508   -0.1481    1.2508 O   0  0  0  0  0  0  0  0  0  0  0  0
   -0.4319    0.4783    1.8124 N   0  0  0  0  0  0  0  0  0  0  0  0
   -1.4161    0.3315    1.6124 H   0  0  0  0  0  0  0  0  0  0  0  0
   -0.0575    0.9733    3.1313 C   0  0  0  0  0  0  0  0  0  0  0  0
    0.7623    1.6950    3.0522 H   0  0  0  0  0  0  0  0  0  0  0  0
   -0.9093    1.4715    3.6039 H   0  0  0  0  0  0  0  0  0  0  0  0
    0.2628    0.1460    3.7736 H   0  0  0  0  0  0  0  0  0  0  0  0
  1  2  1  0  0  0  0
  2  3  1  0  0  0  0
  2  4  1  0  0  0  0
  2  5  1  0  0  0  0
  5  6  2  0  0  0  0
  5  7  1  0  0  0  0
  7  8  1  0  0  0  0
  7  9  1  0  0  0  0
  9 10  1  0  0  0  0
  9 11  1  0  0  0  0
  9 22  1  0  0  0  0
 11 12  1  0  0  0  0
 11 13  1  0  0  0  0
 11 14  1  0  0  0  0
 14 15  1  0  0  0  0
 14 20  2  0  0  0  0
 15 16  1  0  0  0  0
 15 17  1  0  0  0  0
 17 18  1  0  0  0  0
 17 19  2  0  0  0  0
 19 20  1  0  0  0  0
 20 21  1  0  0  0  0
 22 23  2  0  0  0  0
 22 24  1  0  0  0  0
 24 25  1  0  0  0  0
 24 26  1  0  0  0  0
 26 27  1  0  0  0  0
 26 28  1  0  0  0  0
 26 29  1  0  0  0  0
M  END
$$$$

  -OEChem-03222214043D

 29 29  0     1  0  0  0  0  0999 V2000
   -3.0114   -4.0890    0.5772 H   0  0  0  0  0  0  0  0  0  0  0  0
   -2.9659   -3.1631   -0.0035 C   0  0  0  0  0  0  0  0  0  0  0  0
   -3.8041   -2.5248    0.2857 H   0  0  0  0  0  0  0  0  0  0  0  0
   -3.0524   -3.4107   -1.0642 H   0  0  0  0  0  0  0  0  0  0  0  0
   -1.6532   -2.4488    0.2578 C   0  0  0  0  0  0  0  0  0  0  0  0
   -0.8853   -2.8825    1.0968 O   0  0  0  0  0  0  0  0  0  0  0  0
   -1.3458   -1.3001   -0.4456 N   0  0  0  0  0  0  0  0  0  0  0  0
   -1.9777   -1.0599   -1.2034 H   0  0  0  0  0  0  0  0  0  0  0  0
   -0.0183   -0.6522   -0.4217 C   0  0  1  0  0  0  0  0  0  0  0  0
    0.7136   -1.3963   -0.7578 H   0  0  0  0  0  0  0  0  0  0  0  0
    0.0016    0.5534   -1.3856 C   0  0  0  0  0  0  0  0  0  0  0  0
   -0.9728    0.6657   -1.8705 H   0  0  0  0  0  0  0  0  0  0  0  0
    0.1970    1.4867   -0.8459 H   0  0  0  0  0  0  0  0  0  0  0  0
    1.0507    0.3635   -2.4464 C   0  0  0  0  0  0  0  0  0  0  0  0
    2.2727    0.9919   -2.5226 N   0  0  0  0  0  0  0  0  0  0  0  0
    2.6831    1.5974   -1.8133 H   0  0  0  0  0  0  0  0  0  0  0  0
    2.9071    0.5692   -3.6756 C   0  0  0  0  0  0  0  0  0  0  0  0
    3.8985    0.8802   -3.9920 H   0  0  0  0  0  0  0  0  0  0  0  0
    2.1374   -0.2641   -4.3353 N   0  0  0  0  0  0  0  0  0  0  0  0
    0.9768   -0.3988   -3.5822 C   0  0  0  0  0  0  0  0  0  0  0  0
    0.1281   -1.0164   -3.8599 H   0  0  0  0  0  0  0  0  0  0  0  0
    0.4549   -0.1879    0.9737 C   0  0  0  0  0  0  0  0  0  0  0  0
    1.6539   -0.1288    1.2162 O   0  0  0  0  0  0  0  0  0  0  0  0
   -0.4263    0.4779    1.8078 N   0  0  0  0  0  0  0  0  0  0  0  0
   -1.4118    0.3189    1.6244 H   0  0  0  0  0  0  0  0  0  0  0  0
   -0.0369    0.9875    3.1168 C   0  0  0  0  0  0  0  0  0  0  0  0
    0.7780    1.7127    3.0204 H   0  0  0  0  0  0  0  0  0  0  0  0
   -0.8848    1.4860    3.5960 H   0  0  0  0  0  0  0  0  0  0  0  0
    0.2955    0.1671    3.7616 H   0  0  0  0  0  0  0  0  0  0  0  0
  1  2  1  0  0  0  0
  2  3  1  0  0  0  0
  2  4  1  0  0  0  0
  2  5  1  0  0  0  0
  5  6  2  0  0  0  0
  5  7  1  0  0  0  0
  7  8  1  0  0  0  0
  7  9  1  0  0  0  0
  9 10  1  0  0  0  0
  9 11  1  0  0  0  0
  9 22  1  0  0  0  0
 11 12  1  0  0  0  0
 11 13  1  0  0  0  0
 11 14  1  0  0  0  0
 14 15  1  0  0  0  0
 14 20  2  0  0  0  0
 15 16  1  0  0  0  0
 15 17  1  0  0  0  0
 17 18  1  0  0  0  0
 17 19  2  0  0  0  0
 19 20  1  0  0  0  0
 20 21  1  0  0  0  0
 22 23  2  0  0  0  0
 22 24  1  0  0  0  0
 24 25  1  0  0  0  0
 24 26  1  0  0  0  0
 26 27  1  0  0  0  0
 26 28  1  0  0  0  0
 26 29  1  0  0  0  0
M  END
$$$$

  -OEChem-03222214043D

 29 29  0     1  0  0  0  0  0999 V2000
   -3.0213   -4.0896    0.5977 H   0  0  0  0  0  0  0  0  0  0  0  0
   -2.9736   -3.1765   -0.0028 C   0  0  0  0  0  0  0  0  0  0  0  0
   -3.8179   -2.5359    0.2628 H   0  0  0  0  0  0  0  0  0  0  0  0
   -3.0471   -3.4481   -1.0586 H   0  0  0  0  0  0  0  0  0  0  0  0
   -1.6676   -2.4497    0.2577 C   0  0  0  0  0  0  0  0  0  0  0  0
   -0.8955   -2.8752    1.0973 O   0  0  0  0  0  0  0  0  0  0  0  0
   -1.3705   -1.2987   -0.4462 N   0  0  0  0  0  0  0  0  0  0  0  0
   -2.0004   -1.0706   -1.2093 H   0  0  0  0  0  0  0  0  0  0  0  0
   -0.0434   -0.6501   -0.4313 C   0  0  1  0  0  0  0  0  0  0  0  0
    0.6813   -1.3985   -0.7735 H   0  0  0  0  0  0  0  0  0  0  0  0
   -0.0219    0.5529   -1.3973 C   0  0  0  0  0  0  0  0  0  0  0  0
   -0.9968    0.6630   -1.8820 H   0  0  0  0  0  0  0  0  0  0  0  0
    0.1762    1.4895   -0.8642 H   0  0  0  0  0  0  0  0  0  0  0  0
    1.0277    0.3468   -2.4534 C   0  0  0  0  0  0  0  0  0  0  0  0
    2.3450    0.7370   -2.3788 N   0  0  0  0  0  0  0  0  0  0  0  0
    2.8136    1.1143   -1.5552 H   0  0  0  0  0  0  0  0  0  0  0  0
    2.9621    0.4117   -3.5719 C   0  0  0  0  0  0  0  0  0  0  0  0
    4.0120    0.5764   -3.7968 H   0  0  0  0  0  0  0  0  0  0  0  0
    2.0947   -0.1293   -4.3954 N   0  0  0  0  0  0  0  0  0  0  0  0
    0.8835   -0.1687   -3.7139 C   0  0  0  0  0  0  0  0  0  0  0  0
   -0.0460   -0.5486   -4.1269 H   0  0  0  0  0  0  0  0  0  0  0  0
    0.4525   -0.1853    0.9555 C   0  0  0  0  0  0  0  0  0  0  0  0
    1.6571   -0.1221    1.1707 O   0  0  0  0  0  0  0  0  0  0  0  0
   -0.4117    0.4819    1.8058 N   0  0  0  0  0  0  0  0  0  0  0  0
   -1.4014    0.3289    1.6396 H   0  0  0  0  0  0  0  0  0  0  0  0
    0.0041    0.9958    3.1049 C   0  0  0  0  0  0  0  0  0  0  0  0
    0.8068    1.7314    2.9881 H   0  0  0  0  0  0  0  0  0  0  0  0
   -0.8376    1.4826    3.6063 H   0  0  0  0  0  0  0  0  0  0  0  0
    0.3637    0.1800    3.7408 H   0  0  0  0  0  0  0  0  0  0  0  0
  1  2  1  0  0  0  0
  2  3  1  0  0  0  0
  2  4  1  0  0  0  0
  2  5  1  0  0  0  0
  5  6  2  0  0  0  0
  5  7  1  0  0  0  0
  7  8  1  0  0  0  0
  7  9  1  0  0  0  0
  9 10  1  0  0  0  0
  9 11  1  0  0  0  0
  9 22  1  0  0  0  0
 11 12  1  0  0  0  0
 11 13  1  0  0  0  0
 11 14  1  0  0  0  0
 14 15  1  0  0  0  0
 14 20  2  0  0  0  0
 15 16  1  0  0  0  0
 15 17  1  0  0  0  0
 17 18  1  0  0  0  0
 17 19  2  0  0  0  0
 19 20  1  0  0  0  0
 20 21  1  0  0  0  0
 22 23  2  0  0  0  0
 22 24  1  0  0  0  0
 24 25  1  0  0  0  0
 24 26  1  0  0  0  0
 26 27  1  0  0  0  0
 26 28  1  0  0  0  0
 26 29  1  0  0  0  0
M  END
$$$$

  -OEChem-03222214043D

 29 29  0     1  0  0  0  0  0999 V2000
   -3.0180   -4.1059    0.5807 H   0  0  0  0  0  0  0  0  0  0  0  0
   -2.9809   -3.1876   -0.0125 C   0  0  0  0  0  0  0  0  0  0  0  0
   -3.8284   -2.5557    0.2632 H   0  0  0  0  0  0  0  0  0  0  0  0
   -3.0590   -3.4509   -1.0700 H   0  0  0  0  0  0  0  0  0  0  0  0
   -1.6792   -2.4523    0.2456 C   0  0  0  0  0  0  0  0  0  0  0  0
   -0.8966   -2.8783    1.0754 O   0  0  0  0  0  0  0  0  0  0  0  0
   -1.3970   -1.2925   -0.4495 N   0  0  0  0  0  0  0  0  0  0  0  0
   -2.0335   -1.0644   -1.2073 H   0  0  0  0  0  0  0  0  0  0  0  0
   -0.0728   -0.6390   -0.4430 C   0  0  1  0  0  0  0  0  0  0  0  0
    0.6437   -1.3900   -0.7964 H   0  0  0  0  0  0  0  0  0  0  0  0
   -0.0559    0.5624   -1.4113 C   0  0  0  0  0  0  0  0  0  0  0  0
   -1.0318    0.6758   -1.8929 H   0  0  0  0  0  0  0  0  0  0  0  0
    0.1494    1.4980   -0.8793 H   0  0  0  0  0  0  0  0  0  0  0  0
    0.9936    0.3490   -2.4650 C   0  0  0  0  0  0  0  0  0  0  0  0
    2.3505    0.4742   -2.2758 N   0  0  0  0  0  0  0  0  0  0  0  0
    2.8195    0.6368   -1.3833 H   0  0  0  0  0  0  0  0  0  0  0  0
    2.9796    0.2349   -3.4824 C   0  0  0  0  0  0  0  0  0  0  0  0
    4.0547    0.2436   -3.6381 H   0  0  0  0  0  0  0  0  0  0  0  0
    2.0880   -0.0087   -4.4153 N   0  0  0  0  0  0  0  0  0  0  0  0
    0.8449    0.0665   -3.7963 C   0  0  0  0  0  0  0  0  0  0  0  0
   -0.1068   -0.0755   -4.2997 H   0  0  0  0  0  0  0  0  0  0  0  0
    0.4528   -0.1813    0.9341 C   0  0  0  0  0  0  0  0  0  0  0  0
    1.6637   -0.1112    1.1127 O   0  0  0  0  0  0  0  0  0  0  0  0
   -0.3916    0.4788    1.8089 N   0  0  0  0  0  0  0  0  0  0  0  0
   -1.3846    0.3202    1.6700 H   0  0  0  0  0  0  0  0  0  0  0  0
    0.0565    0.9984    3.0949 C   0  0  0  0  0  0  0  0  0  0  0  0
    0.8566    1.7331    2.9552 H   0  0  0  0  0  0  0  0  0  0  0  0
   -0.7724    1.4888    3.6141 H   0  0  0  0  0  0  0  0  0  0  0  0
    0.4308    0.1855    3.7260 H   0  0  0  0  0  0  0  0  0  0  0  0
  1  2  1  0  0  0  0
  2  3  1  0  0  0  0
  2  4  1  0  0  0  0
  2  5  1  0  0  0  0
  5  6  2  0  0  0  0
  5  7  1  0  0  0  0
  7  8  1  0  0  0  0
  7  9  1  0  0  0  0
  9 10  1  0  0  0  0
  9 11  1  0  0  0  0
  9 22  1  0  0  0  0
 11 12  1  0  0  0  0
 11 13  1  0  0  0  0
 11 14  1  0  0  0  0
 14 15  1  0  0  0  0
 14 20  2  0  0  0  0
 15 16  1  0  0  0  0
 15 17  1  0  0  0  0
 17 18  1  0  0  0  0
 17 19  2  0  0  0  0
 19 20  1  0  0  0  0
 20 21  1  0  0  0  0
 22 23  2  0  0  0  0
 22 24  1  0  0  0  0
 24 25  1  0  0  0  0
 24 26  1  0  0  0  0
 26 27  1  0  0  0  0
 26 28  1  0  0  0  0
 26 29  1  0  0  0  0
M  END
$$$$

  -OEChem-03222214043D

 29 29  0     1  0  0  0  0  0999 V2000
   -3.0146   -4.1071    0.5757 H   0  0  0  0  0  0  0  0  0  0  0  0
   -2.9836   -3.1891   -0.0183 C   0  0  0  0  0  0  0  0  0  0  0  0
   -3.8327   -2.5606    0.2609 H   0  0  0  0  0  0  0  0  0  0  0  0
   -3.0640   -3.4531   -1.0755 H   0  0  0  0  0  0  0  0  0  0  0  0
   -1.6837   -2.4493    0.2351 C   0  0  0  0  0  0  0  0  0  0  0  0
   -0.8935   -2.8767    1.0570 O   0  0  0  0  0  0  0  0  0  0  0  0
   -1.4109   -1.2834   -0.4536 N   0  0  0  0  0  0  0  0  0  0  0  0
   -2.0531   -1.0513   -1.2053 H   0  0  0  0  0  0  0  0  0  0  0  0
   -0.0887   -0.6264   -0.4490 C   0  0  1  0  0  0  0  0  0  0  0  0
    0.6217   -1.3812   -0.8060 H   0  0  0  0  0  0  0  0  0  0  0  0
   -0.0754    0.5716   -1.4232 C   0  0  0  0  0  0  0  0  0  0  0  0
   -1.0525    0.6892   -1.9018 H   0  0  0  0  0  0  0  0  0  0  0  0
    0.1348    1.5048   -0.8888 H   0  0  0  0  0  0  0  0  0  0  0  0
    0.9747    0.3641   -2.4785 C   0  0  0  0  0  0  0  0  0  0  0  0
    2.3221    0.2123   -2.2410 N   0  0  0  0  0  0  0  0  0  0  0  0
    2.7711    0.1887   -1.3231 H   0  0  0  0  0  0  0  0  0  0  0  0
    2.9614    0.0572   -3.4559 C   0  0  0  0  0  0  0  0  0  0  0  0
    4.0298   -0.0904   -3.5851 H   0  0  0  0  0  0  0  0  0  0  0  0
    2.0877    0.1123   -4.4348 N   0  0  0  0  0  0  0  0  0  0  0  0
    0.8455    0.3086   -3.8402 C   0  0  0  0  0  0  0  0  0  0  0  0
   -0.0915    0.4037   -4.3806 H   0  0  0  0  0  0  0  0  0  0  0  0
    0.4512   -0.1745    0.9232 C   0  0  0  0  0  0  0  0  0  0  0  0
    1.6649   -0.1200    1.0895 O   0  0  0  0  0  0  0  0  0  0  0  0
   -0.3814    0.4802    1.8128 N   0  0  0  0  0  0  0  0  0  0  0  0
   -1.3769    0.3321    1.6799 H   0  0  0  0  0  0  0  0  0  0  0  0
    0.0826    0.9815    3.1005 C   0  0  0  0  0  0  0  0  0  0  0  0
    0.8834    1.7156    2.9612 H   0  0  0  0  0  0  0  0  0  0  0  0
   -0.7392    1.4670    3.6353 H   0  0  0  0  0  0  0  0  0  0  0  0
    0.4615    0.1591    3.7166 H   0  0  0  0  0  0  0  0  0  0  0  0
  1  2  1  0  0  0  0
  2  3  1  0  0  0  0
  2  4  1  0  0  0  0
  2  5  1  0  0  0  0
  5  6  2  0  0  0  0
  5  7  1  0  0  0  0
  7  8  1  0  0  0  0
  7  9  1  0  0  0  0
  9 10  1  0  0  0  0
  9 11  1  0  0  0  0
  9 22  1  0  0  0  0
 11 12  1  0  0  0  0
 11 13  1  0  0  0  0
 11 14  1  0  0  0  0
 14 15  1  0  0  0  0
 14 20  2  0  0  0  0
 15 16  1  0  0  0  0
 15 17  1  0  0  0  0
 17 18  1  0  0  0  0
 17 19  2  0  0  0  0
 19 20  1  0  0  0  0
 20 21  1  0  0  0  0
 22 23  2  0  0  0  0
 22 24  1  0  0  0  0
 24 25  1  0  0  0  0
 24 26  1  0  0  0  0
 26 27  1  0  0  0  0
 26 28  1  0  0  0  0
 26 29  1  0  0  0  0
M  END
$$$$

  -OEChem-03222214043D

 29 29  0     1  0  0  0  0  0999 V2000
   -3.0250   -4.1018    0.5586 H   0  0  0  0  0  0  0  0  0  0  0  0
   -2.9906   -3.1786   -0.0270 C   0  0  0  0  0  0  0  0  0  0  0  0
   -3.8344   -2.5476    0.2617 H   0  0  0  0  0  0  0  0  0  0  0  0
   -3.0774   -3.4324   -1.0862 H   0  0  0  0  0  0  0  0  0  0  0  0
   -1.6853   -2.4486    0.2274 C   0  0  0  0  0  0  0  0  0  0  0  0
   -0.8945   -2.8869    1.0430 O   0  0  0  0  0  0  0  0  0  0  0  0
   -1.4072   -1.2805   -0.4552 N   0  0  0  0  0  0  0  0  0  0  0  0
   -2.0477   -1.0413   -1.2061 H   0  0  0  0  0  0  0  0  0  0  0  0
   -0.0857   -0.6231   -0.4412 C   0  0  1  0  0  0  0  0  0  0  0  0
    0.6214   -1.3826   -0.7928 H   0  0  0  0  0  0  0  0  0  0  0  0
   -0.0738    0.5686   -1.4255 C   0  0  0  0  0  0  0  0  0  0  0  0
   -1.0513    0.6848   -1.9038 H   0  0  0  0  0  0  0  0  0  0  0  0
    0.1325    1.5008   -0.8883 H   0  0  0  0  0  0  0  0  0  0  0  0
    0.9791    0.3814   -2.4851 C   0  0  0  0  0  0  0  0  0  0  0  0
    2.2769   -0.0337   -2.2794 N   0  0  0  0  0  0  0  0  0  0  0  0
    2.7092   -0.2279   -1.3737 H   0  0  0  0  0  0  0  0  0  0  0  0
    2.9125   -0.0991   -3.5041 C   0  0  0  0  0  0  0  0  0  0  0  0
    3.9480   -0.3907   -3.6552 H   0  0  0  0  0  0  0  0  0  0  0  0
    2.0811    0.2435   -4.4610 N   0  0  0  0  0  0  0  0  0  0  0  0
    0.8736    0.5459   -3.8404 C   0  0  0  0  0  0  0  0  0  0  0  0
   -0.0266    0.8614   -4.3593 H   0  0  0  0  0  0  0  0  0  0  0  0
    0.4499   -0.1740    0.9330 C   0  0  0  0  0  0  0  0  0  0  0  0
    1.6627   -0.1473    1.1099 O   0  0  0  0  0  0  0  0  0  0  0  0
   -0.3818    0.4795    1.8244 N   0  0  0  0  0  0  0  0  0  0  0  0
   -1.3783    0.3471    1.6824 H   0  0  0  0  0  0  0  0  0  0  0  0
    0.0793    0.9661    3.1187 C   0  0  0  0  0  0  0  0  0  0  0  0
    0.8935    1.6872    2.9906 H   0  0  0  0  0  0  0  0  0  0  0  0
   -0.7385    1.4628    3.6495 H   0  0  0  0  0  0  0  0  0  0  0  0
    0.4389    0.1341    3.7334 H   0  0  0  0  0  0  0  0  0  0  0  0
  1  2  1  0  0  0  0
  2  3  1  0  0  0  0
  2  4  1  0  0  0  0
  2  5  1  0  0  0  0
  5  6  2  0  0  0  0
  5  7  1  0  0  0  0
  7  8  1  0  0  0  0
  7  9  1  0  0  0  0
  9 10  1  0  0  0  0
  9 11  1  0  0  0  0
  9 22  1  0  0  0  0
 11 12  1  0  0  0  0
 11 13  1  0  0  0  0
 11 14  1  0  0  0  0
 14 15  1  0  0  0  0
 14 20  2  0  0  0  0
 15 16  1  0  0  0  0
 15 17  1  0  0  0  0
 17 18  1  0  0  0  0
 17 19  2  0  0  0  0
 19 20  1  0  0  0  0
 20 21  1  0  0  0  0
 22 23  2  0  0  0  0
 22 24  1  0  0  0  0
 24 25  1  0  0  0  0
 24 26  1  0  0  0  0
 26 27  1  0  0  0  0
 26 28  1  0  0  0  0
 26 29  1  0  0  0  0
M  END
$$$$

  -OEChem-03222214043D

 29 29  0     1  0  0  0  0  0999 V2000
   -3.0499   -4.0816    0.5712 H   0  0  0  0  0  0  0  0  0  0  0  0
   -3.0031   -3.1603   -0.0166 C   0  0  0  0  0  0  0  0  0  0  0  0
   -3.8374   -2.5163    0.2712 H   0  0  0  0  0  0  0  0  0  0  0  0
   -3.0948   -3.4150   -1.0752 H   0  0  0  0  0  0  0  0  0  0  0  0
   -1.6871   -2.4486    0.2354 C   0  0  0  0  0  0  0  0  0  0  0  0
   -0.8996   -2.8989    1.0477 O   0  0  0  0  0  0  0  0  0  0  0  0
   -1.3914   -1.2877   -0.4522 N   0  0  0  0  0  0  0  0  0  0  0  0
   -2.0296   -1.0377   -1.2017 H   0  0  0  0  0  0  0  0  0  0  0  0
   -0.0658   -0.6383   -0.4272 C   0  0  1  0  0  0  0  0  0  0  0  0
    0.6406   -1.4036   -0.7631 H   0  0  0  0  0  0  0  0  0  0  0  0
   -0.0471    0.5478   -1.4205 C   0  0  0  0  0  0  0  0  0  0  0  0
   -1.0253    0.6688   -1.8961 H   0  0  0  0  0  0  0  0  0  0  0  0
    0.1597    1.4781   -0.8798 H   0  0  0  0  0  0  0  0  0  0  0  0
    1.0042    0.3830   -2.4896 C   0  0  0  0  0  0  0  0  0  0  0  0
    2.2139   -0.2720   -2.3929 N   0  0  0  0  0  0  0  0  0  0  0  0
    2.6178   -0.6641   -1.5410 H   0  0  0  0  0  0  0  0  0  0  0  0
    2.8419   -0.2170   -3.6222 C   0  0  0  0  0  0  0  0  0  0  0  0
    3.8199   -0.6352   -3.8431 H   0  0  0  0  0  0  0  0  0  0  0  0
    2.0844    0.4171   -4.4859 N   0  0  0  0  0  0  0  0  0  0  0  0
    0.9380    0.7938   -3.7949 C   0  0  0  0  0  0  0  0  0  0  0  0
    0.1023    1.3304   -4.2340 H   0  0  0  0  0  0  0  0  0  0  0  0
    0.4479   -0.1843    0.9541 C   0  0  0  0  0  0  0  0  0  0  0  0
    1.6544   -0.1920    1.1668 O   0  0  0  0  0  0  0  0  0  0  0  0
   -0.3946    0.4792    1.8277 N   0  0  0  0  0  0  0  0  0  0  0  0
   -1.3894    0.3730    1.6566 H   0  0  0  0  0  0  0  0  0  0  0  0
    0.0427    0.9559    3.1339 C   0  0  0  0  0  0  0  0  0  0  0  0
    0.8708    1.6646    3.0269 H   0  0  0  0  0  0  0  0  0  0  0  0
   -0.7799    1.4640    3.6459 H   0  0  0  0  0  0  0  0  0  0  0  0
    0.3746    0.1170    3.7549 H   0  0  0  0  0  0  0  0  0  0  0  0
  1  2  1  0  0  0  0
  2  3  1  0  0  0  0
  2  4  1  0  0  0  0
  2  5  1  0  0  0  0
  5  6  2  0  0  0  0
  5  7  1  0  0  0  0
  7  8  1  0  0  0  0
  7  9  1  0  0  0  0
  9 10  1  0  0  0  0
  9 11  1  0  0  0  0
  9 22  1  0  0  0  0
 11 12  1  0  0  0  0
 11 13  1  0  0  0  0
 11 14  1  0  0  0  0
 14 15  1  0  0  0  0
 14 20  2  0  0  0  0
 15 16  1  0  0  0  0
 15 17  1  0  0  0  0
 17 18  1  0  0  0  0
 17 19  2  0  0  0  0
 19 20  1  0  0  0  0
 20 21  1  0  0  0  0
 22 23  2  0  0  0  0
 22 24  1  0  0  0  0
 24 25  1  0  0  0  0
 24 26  1  0  0  0  0
 26 27  1  0  0  0  0
 26 28  1  0  0  0  0
 26 29  1  0  0  0  0
M  END
$$$$

  -OEChem-03222214043D

 29 29  0     1  0  0  0  0  0999 V2000
   -3.0835   -4.0568    0.6030 H   0  0  0  0  0  0  0  0  0  0  0  0
   -3.0209   -3.1408    0.0085 C   0  0  0  0  0  0  0  0  0  0  0  0
   -3.8434   -2.4801    0.2928 H   0  0  0  0  0  0  0  0  0  0  0  0
   -3.1190   -3.4017   -1.0480 H   0  0  0  0  0  0  0  0  0  0  0  0
   -1.6919   -2.4512    0.2530 C   0  0  0  0  0  0  0  0  0  0  0  0
   -0.9095   -2.9122    1.0639 O   0  0  0  0  0  0  0  0  0  0  0  0
   -1.3753   -1.3027   -0.4460 N   0  0  0  0  0  0  0  0  0  0  0  0
   -2.0114   -1.0446   -1.1946 H   0  0  0  0  0  0  0  0  0  0  0  0
   -0.0440   -0.6646   -0.4168 C   0  0  1  0  0  0  0  0  0  0  0  0
    0.6645   -1.4336   -0.7362 H   0  0  0  0  0  0  0  0  0  0  0  0
   -0.0192    0.5169   -1.4168 C   0  0  0  0  0  0  0  0  0  0  0  0
   -0.9988    0.6388   -1.8894 H   0  0  0  0  0  0  0  0  0  0  0  0
    0.1875    1.4473   -0.8762 H   0  0  0  0  0  0  0  0  0  0  0  0
    1.0247    0.3678   -2.4985 C   0  0  0  0  0  0  0  0  0  0  0  0
    2.1059   -0.4874   -2.5584 N   0  0  0  0  0  0  0  0  0  0  0  0
    2.4352   -1.0931   -1.8070 H   0  0  0  0  0  0  0  0  0  0  0  0
    2.7549   -0.2938   -3.7625 C   0  0  0  0  0  0  0  0  0  0  0  0
    3.6541   -0.8152   -4.0784 H   0  0  0  0  0  0  0  0  0  0  0  0
    2.1274    0.6146   -4.4704 N   0  0  0  0  0  0  0  0  0  0  0  0
    1.0510    1.0331   -3.6966 C   0  0  0  0  0  0  0  0  0  0  0  0
    0.3255    1.7797   -4.0059 H   0  0  0  0  0  0  0  0  0  0  0  0
    0.4466   -0.2013    0.9707 C   0  0  0  0  0  0  0  0  0  0  0  0
    1.6451   -0.2329    1.2196 O   0  0  0  0  0  0  0  0  0  0  0  0
   -0.4078    0.4768    1.8216 N   0  0  0  0  0  0  0  0  0  0  0  0
   -1.3997    0.3894    1.6251 H   0  0  0  0  0  0  0  0  0  0  0  0
    0.0057    0.9571    3.1341 C   0  0  0  0  0  0  0  0  0  0  0  0
    0.8428    1.6571    3.0408 H   0  0  0  0  0  0  0  0  0  0  0  0
   -0.8229    1.4762    3.6251 H   0  0  0  0  0  0  0  0  0  0  0  0
    0.3162    0.1192    3.7672 H   0  0  0  0  0  0  0  0  0  0  0  0
  1  2  1  0  0  0  0
  2  3  1  0  0  0  0
  2  4  1  0  0  0  0
  2  5  1  0  0  0  0
  5  6  2  0  0  0  0
  5  7  1  0  0  0  0
  7  8  1  0  0  0  0
  7  9  1  0  0  0  0
  9 10  1  0  0  0  0
  9 11  1  0  0  0  0
  9 22  1  0  0  0  0
 11 12  1  0  0  0  0
 11 13  1  0  0  0  0
 11 14  1  0  0  0  0
 14 15  1  0  0  0  0
 14 20  2  0  0  0  0
 15 16  1  0  0  0  0
 15 17  1  0  0  0  0
 17 18  1  0  0  0  0
 17 19  2  0  0  0  0
 19 20  1  0  0  0  0
 20 21  1  0  0  0  0
 22 23  2  0  0  0  0
 22 24  1  0  0  0  0
 24 25  1  0  0  0  0
 24 26  1  0  0  0  0
 26 27  1  0  0  0  0
 26 28  1  0  0  0  0
 26 29  1  0  0  0  0
M  END
$$$$

  -OEChem-03222214043D

 29 29  0     1  0  0  0  0  0999 V2000
   -3.1065   -4.0346    0.6549 H   0  0  0  0  0  0  0  0  0  0  0  0
   -3.0365   -3.1226    0.0548 C   0  0  0  0  0  0  0  0  0  0  0  0
   -3.8367   -2.4420    0.3551 H   0  0  0  0  0  0  0  0  0  0  0  0
   -3.1647   -3.3852   -0.9980 H   0  0  0  0  0  0  0  0  0  0  0  0
   -1.6868   -2.4626    0.2654 C   0  0  0  0  0  0  0  0  0  0  0  0
   -0.8934   -2.9415    1.0548 O   0  0  0  0  0  0  0  0  0  0  0  0
   -1.3621   -1.3233   -0.4447 N   0  0  0  0  0  0  0  0  0  0  0  0
   -2.0130   -1.0456   -1.1732 H   0  0  0  0  0  0  0  0  0  0  0  0
   -0.0291   -0.6877   -0.4222 C   0  0  1  0  0  0  0  0  0  0  0  0
    0.6863   -1.4533   -0.7327 H   0  0  0  0  0  0  0  0  0  0  0  0
   -0.0093    0.4928   -1.4242 C   0  0  0  0  0  0  0  0  0  0  0  0
   -0.9917    0.6026   -1.8941 H   0  0  0  0  0  0  0  0  0  0  0  0
    0.1880    1.4279   -0.8879 H   0  0  0  0  0  0  0  0  0  0  0  0
    1.0238    0.3527   -2.5186 C   0  0  0  0  0  0  0  0  0  0  0  0
    1.9392   -0.6532   -2.7545 N   0  0  0  0  0  0  0  0  0  0  0  0
    2.1224   -1.4547   -2.1529 H   0  0  0  0  0  0  0  0  0  0  0  0
    2.6589   -0.3372   -3.8909 C   0  0  0  0  0  0  0  0  0  0  0  0
    3.4605   -0.9386   -4.3102 H   0  0  0  0  0  0  0  0  0  0  0  0
    2.2341    0.7974   -4.3917 N   0  0  0  0  0  0  0  0  0  0  0  0
    1.2235    1.2388   -3.5454 C   0  0  0  0  0  0  0  0  0  0  0  0
    0.6643    2.1593   -3.6842 H   0  0  0  0  0  0  0  0  0  0  0  0
    0.4474   -0.2143    0.9678 C   0  0  0  0  0  0  0  0  0  0  0  0
    1.6402   -0.2510    1.2396 O   0  0  0  0  0  0  0  0  0  0  0  0
   -0.4179    0.4703    1.8027 N   0  0  0  0  0  0  0  0  0  0  0  0
   -1.4067    0.3917    1.5882 H   0  0  0  0  0  0  0  0  0  0  0  0
   -0.0233    0.9574    3.1188 C   0  0  0  0  0  0  0  0  0  0  0  0
    0.8171    1.6545    3.0342 H   0  0  0  0  0  0  0  0  0  0  0  0
   -0.8577    1.4818    3.5943 H   0  0  0  0  0  0  0  0  0  0  0  0
    0.2750    0.1222    3.7613 H   0  0  0  0  0  0  0  0  0  0  0  0
  1  2  1  0  0  0  0
  2  3  1  0  0  0  0
  2  4  1  0  0  0  0
  2  5  1  0  0  0  0
  5  6  2  0  0  0  0
  5  7  1  0  0  0  0
  7  8  1  0  0  0  0
  7  9  1  0  0  0  0
  9 10  1  0  0  0  0
  9 11  1  0  0  0  0
  9 22  1  0  0  0  0
 11 12  1  0  0  0  0
 11 13  1  0  0  0  0
 11 14  1  0  0  0  0
 14 15  1  0  0  0  0
 14 20  2  0  0  0  0
 15 16  1  0  0  0  0
 15 17  1  0  0  0  0
 17 18  1  0  0  0  0
 17 19  2  0  0  0  0
 19 20  1  0  0  0  0
 20 21  1  0  0  0  0
 22 23  2  0  0  0  0
 22 24  1  0  0  0  0
 24 25  1  0  0  0  0
 24 26  1  0  0  0  0
 26 27  1  0  0  0  0
 26 28  1  0  0  0  0
 26 29  1  0  0  0  0
M  END
$$$$

  -OEChem-03222214043D

 29 29  0     1  0  0  0  0  0999 V2000
   -3.1040   -4.0241    0.6920 H   0  0  0  0  0  0  0  0  0  0  0  0
   -3.0377   -3.1141    0.0887 C   0  0  0  0  0  0  0  0  0  0  0  0
   -3.8210   -2.4227    0.4085 H   0  0  0  0  0  0  0  0  0  0  0  0
   -3.1964   -3.3760   -0.9600 H   0  0  0  0  0  0  0  0  0  0  0  0
   -1.6743   -2.4720    0.2630 C   0  0  0  0  0  0  0  0  0  0  0  0
   -0.8639   -2.9656    1.0252 O   0  0  0  0  0  0  0  0  0  0  0  0
   -1.3560   -1.3331   -0.4504 N   0  0  0  0  0  0  0  0  0  0  0  0
   -2.0292   -1.0331   -1.1494 H   0  0  0  0  0  0  0  0  0  0  0  0
   -0.0251   -0.6920   -0.4388 C   0  0  1  0  0  0  0  0  0  0  0  0
    0.6992   -1.4480   -0.7533 H   0  0  0  0  0  0  0  0  0  0  0  0
   -0.0192    0.4940   -1.4337 C   0  0  0  0  0  0  0  0  0  0  0  0
   -1.0044    0.5904   -1.9000 H   0  0  0  0  0  0  0  0  0  0  0  0
    0.1687    1.4319   -0.8986 H   0  0  0  0  0  0  0  0  0  0  0  0
    1.0035    0.3589   -2.5379 C   0  0  0  0  0  0  0  0  0  0  0  0
    1.7208   -0.7444   -2.9544 N   0  0  0  0  0  0  0  0  0  0  0  0
    1.7049   -1.6702   -2.5309 H   0  0  0  0  0  0  0  0  0  0  0  0
    2.5468   -0.3655   -3.9956 C   0  0  0  0  0  0  0  0  0  0  0  0
    3.2358   -1.0234   -4.5175 H   0  0  0  0  0  0  0  0  0  0  0  0
    2.3781    0.9062   -4.2645 N   0  0  0  0  0  0  0  0  0  0  0  0
    1.4311    1.3702   -3.3586 C   0  0  0  0  0  0  0  0  0  0  0  0
    1.0766    2.3955   -3.3111 H   0  0  0  0  0  0  0  0  0  0  0  0
    0.4481   -0.2177    0.9527 C   0  0  0  0  0  0  0  0  0  0  0  0
    1.6398   -0.2447    1.2286 O   0  0  0  0  0  0  0  0  0  0  0  0
   -0.4232    0.4610    1.7867 N   0  0  0  0  0  0  0  0  0  0  0  0
   -1.4109    0.3768    1.5707 H   0  0  0  0  0  0  0  0  0  0  0  0
   -0.0336    0.9539    3.1019 C   0  0  0  0  0  0  0  0  0  0  0  0
    0.8022    1.6563    3.0162 H   0  0  0  0  0  0  0  0  0  0  0  0
   -0.8718    1.4739    3.5751 H   0  0  0  0  0  0  0  0  0  0  0  0
    0.2696    0.1228    3.7474 H   0  0  0  0  0  0  0  0  0  0  0  0
  1  2  1  0  0  0  0
  2  3  1  0  0  0  0
  2  4  1  0  0  0  0
  2  5  1  0  0  0  0
  5  6  2  0  0  0  0
  5  7  1  0  0  0  0
  7  8  1  0  0  0  0
  7  9  1  0  0  0  0
  9 10  1  0  0  0  0
  9 11  1  0  0  0  0
  9 22  1  0  0  0  0
 11 12  1  0  0  0  0
 11 13  1  0  0  0  0
 11 14  1  0  0  0  0
 14 15  1  0  0  0  0
 14 20  2  0  0  0  0
 15 16  1  0  0  0  0
 15 17  1  0  0  0  0
 17 18  1  0  0  0  0
 17 19  2  0  0  0  0
 19 20  1  0  0  0  0
 20 21  1  0  0  0  0
 22 23  2  0  0  0  0
 22 24  1  0  0  0  0
 24 25  1  0  0  0  0
 24 26  1  0  0  0  0
 26 27  1  0  0  0  0
 26 28  1  0  0  0  0
 26 29  1  0  0  0  0
M  END
$$$$

  -OEChem-03222214043D

 29 29  0     1  0  0  0  0  0999 V2000
   -3.0837   -4.0189    0.7018 H   0  0  0  0  0  0  0  0  0  0  0  0
   -3.0248   -3.1054    0.1028 C   0  0  0  0  0  0  0  0  0  0  0  0
   -3.7935   -2.4094    0.4472 H   0  0  0  0  0  0  0  0  0  0  0  0
   -3.2132   -3.3592   -0.9431 H   0  0  0  0  0  0  0  0  0  0  0  0
   -1.6521   -2.4755    0.2462 C   0  0  0  0  0  0  0  0  0  0  0  0
   -0.8263   -2.9820    0.9825 O   0  0  0  0  0  0  0  0  0  0  0  0
   -1.3445   -1.3307   -0.4627 N   0  0  0  0  0  0  0  0  0  0  0  0
   -2.0394   -1.0066   -1.1285 H   0  0  0  0  0  0  0  0  0  0  0  0
   -0.0189   -0.6779   -0.4556 C   0  0  1  0  0  0  0  0  0  0  0  0
    0.7159   -1.4202   -0.7811 H   0  0  0  0  0  0  0  0  0  0  0  0
   -0.0310    0.5164   -1.4395 C   0  0  0  0  0  0  0  0  0  0  0  0
   -1.0182    0.6048   -1.9029 H   0  0  0  0  0  0  0  0  0  0  0  0
    0.1503    1.4533   -0.9005 H   0  0  0  0  0  0  0  0  0  0  0  0
    0.9882    0.3850   -2.5456 C   0  0  0  0  0  0  0  0  0  0  0  0
    1.4923   -0.7541   -3.1392 N   0  0  0  0  0  0  0  0  0  0  0  0
    1.2716   -1.7154   -2.8871 H   0  0  0  0  0  0  0  0  0  0  0  0
    2.4167   -0.3781   -4.0956 C   0  0  0  0  0  0  0  0  0  0  0  0
    2.9820   -1.0628   -4.7212 H   0  0  0  0  0  0  0  0  0  0  0  0
    2.5122    0.9283   -4.1416 N   0  0  0  0  0  0  0  0  0  0  0  0
    1.6405    1.4145   -3.1737 C   0  0  0  0  0  0  0  0  0  0  0  0
    1.4944    2.4670   -2.9499 H   0  0  0  0  0  0  0  0  0  0  0  0
    0.4509   -0.2085    0.9395 C   0  0  0  0  0  0  0  0  0  0  0  0
    1.6421   -0.2249    1.2177 O   0  0  0  0  0  0  0  0  0  0  0  0
   -0.4274    0.4561    1.7782 N   0  0  0  0  0  0  0  0  0  0  0  0
   -1.4138    0.3683    1.5584 H   0  0  0  0  0  0  0  0  0  0  0  0
   -0.0449    0.9360    3.1007 C   0  0  0  0  0  0  0  0  0  0  0  0
    0.7817    1.6504    3.0259 H   0  0  0  0  0  0  0  0  0  0  0  0
   -0.8900    1.4382    3.5811 H   0  0  0  0  0  0  0  0  0  0  0  0
    0.2692    0.0998    3.7343 H   0  0  0  0  0  0  0  0  0  0  0  0
  1  2  1  0  0  0  0
  2  3  1  0  0  0  0
  2  4  1  0  0  0  0
  2  5  1  0  0  0  0
  5  6  2  0  0  0  0
  5  7  1  0  0  0  0
  7  8  1  0  0  0  0
  7  9  1  0  0  0  0
  9 10  1  0  0  0  0
  9 11  1  0  0  0  0
  9 22  1  0  0  0  0
 11 12  1  0  0  0  0
 11 13  1  0  0  0  0
 11 14  1  0  0  0  0
 14 15  1  0  0  0  0
 14 20  2  0  0  0  0
 15 16  1  0  0  0  0
 15 17  1  0  0  0  0
 17 18  1  0  0  0  0
 17 19  2  0  0  0  0
 19 20  1  0  0  0  0
 20 21  1  0  0  0  0
 22 23  2  0  0  0  0
 22 24  1  0  0  0  0
 24 25  1  0  0  0  0
 24 26  1  0  0  0  0
 26 27  1  0  0  0  0
 26 28  1  0  0  0  0
 26 29  1  0  0  0  0
M  END
$$$$

  -OEChem-03222214043D

 29 29  0     1  0  0  0  0  0999 V2000
   -3.0579   -4.0283    0.6753 H   0  0  0  0  0  0  0  0  0  0  0  0
   -3.0081   -3.1101    0.0830 C   0  0  0  0  0  0  0  0  0  0  0  0
   -3.7772   -2.4207    0.4390 H   0  0  0  0  0  0  0  0  0  0  0  0
   -3.2036   -3.3569   -0.9633 H   0  0  0  0  0  0  0  0  0  0  0  0
   -1.6371   -2.4754    0.2208 C   0  0  0  0  0  0  0  0  0  0  0  0
   -0.8017   -2.9877    0.9421 O   0  0  0  0  0  0  0  0  0  0  0  0
   -1.3427   -1.3190   -0.4748 N   0  0  0  0  0  0  0  0  0  0  0  0
   -2.0525   -0.9772   -1.1154 H   0  0  0  0  0  0  0  0  0  0  0  0
   -0.0226   -0.6553   -0.4655 C   0  0  1  0  0  0  0  0  0  0  0  0
    0.7180   -1.3864   -0.8071 H   0  0  0  0  0  0  0  0  0  0  0  0
   -0.0460    0.5487   -1.4353 C   0  0  0  0  0  0  0  0  0  0  0  0
   -1.0330    0.6404   -1.8987 H   0  0  0  0  0  0  0  0  0  0  0  0
    0.1361    1.4813   -0.8889 H   0  0  0  0  0  0  0  0  0  0  0  0
    0.9781    0.4128   -2.5340 C   0  0  0  0  0  0  0  0  0  0  0  0
    1.2696   -0.6941   -3.3033 N   0  0  0  0  0  0  0  0  0  0  0  0
    0.8530   -1.6183   -3.2149 H   0  0  0  0  0  0  0  0  0  0  0  0
    2.2847   -0.3614   -4.1809 C   0  0  0  0  0  0  0  0  0  0  0  0
    2.7288   -1.0361   -4.9073 H   0  0  0  0  0  0  0  0  0  0  0  0
    2.6346    0.8904   -4.0124 N   0  0  0  0  0  0  0  0  0  0  0  0
    1.8395    1.3806   -2.9818 C   0  0  0  0  0  0  0  0  0  0  0  0
    1.8920    2.3923   -2.5907 H   0  0  0  0  0  0  0  0  0  0  0  0
    0.4520   -0.1991    0.9323 C   0  0  0  0  0  0  0  0  0  0  0  0
    1.6460   -0.1951    1.1984 O   0  0  0  0  0  0  0  0  0  0  0  0
   -0.4272    0.4479    1.7836 N   0  0  0  0  0  0  0  0  0  0  0  0
   -1.4146    0.3463    1.5741 H   0  0  0  0  0  0  0  0  0  0  0  0
   -0.0372    0.9300    3.1032 C   0  0  0  0  0  0  0  0  0  0  0  0
    0.7807    1.6539    3.0210 H   0  0  0  0  0  0  0  0  0  0  0  0
   -0.8836    1.4221    3.5918 H   0  0  0  0  0  0  0  0  0  0  0  0
    0.2919    0.0965    3.7329 H   0  0  0  0  0  0  0  0  0  0  0  0
  1  2  1  0  0  0  0
  2  3  1  0  0  0  0
  2  4  1  0  0  0  0
  2  5  1  0  0  0  0
  5  6  2  0  0  0  0
  5  7  1  0  0  0  0
  7  8  1  0  0  0  0
  7  9  1  0  0  0  0
  9 10  1  0  0  0  0
  9 11  1  0  0  0  0
  9 22  1  0  0  0  0
 11 12  1  0  0  0  0
 11 13  1  0  0  0  0
 11 14  1  0  0  0  0
 14 15  1  0  0  0  0
 14 20  2  0  0  0  0
 15 16  1  0  0  0  0
 15 17  1  0  0  0  0
 17 18  1  0  0  0  0
 17 19  2  0  0  0  0
 19 20  1  0  0  0  0
 20 21  1  0  0  0  0
 22 23  2  0  0  0  0
 22 24  1  0  0  0  0
 24 25  1  0  0  0  0
 24 26  1  0  0  0  0
 26 27  1  0  0  0  0
 26 28  1  0  0  0  0
 26 29  1  0  0  0  0
M  END
$$$$

  -OEChem-03222214043D

 29 29  0     1  0  0  0  0  0999 V2000
   -3.0416   -4.0341    0.6479 H   0  0  0  0  0  0  0  0  0  0  0  0
   -2.9961   -3.1118    0.0616 C   0  0  0  0  0  0  0  0  0  0  0  0
   -3.7713   -2.4298    0.4192 H   0  0  0  0  0  0  0  0  0  0  0  0
   -3.1859   -3.3536   -0.9868 H   0  0  0  0  0  0  0  0  0  0  0  0
   -1.6299   -2.4687    0.2078 C   0  0  0  0  0  0  0  0  0  0  0  0
   -0.7951   -2.9789    0.9311 O   0  0  0  0  0  0  0  0  0  0  0  0
   -1.3412   -1.3058   -0.4794 N   0  0  0  0  0  0  0  0  0  0  0  0
   -2.0529   -0.9628   -1.1171 H   0  0  0  0  0  0  0  0  0  0  0  0
   -0.0232   -0.6375   -0.4674 C   0  0  1  0  0  0  0  0  0  0  0  0
    0.7185   -1.3631   -0.8203 H   0  0  0  0  0  0  0  0  0  0  0  0
   -0.0496    0.5716   -1.4288 C   0  0  0  0  0  0  0  0  0  0  0  0
   -1.0357    0.6739   -1.8920 H   0  0  0  0  0  0  0  0  0  0  0  0
    0.1401    1.4990   -0.8761 H   0  0  0  0  0  0  0  0  0  0  0  0
    0.9798    0.4277   -2.5194 C   0  0  0  0  0  0  0  0  0  0  0  0
    1.0828   -0.5720   -3.4630 N   0  0  0  0  0  0  0  0  0  0  0  0
    0.4962   -1.4001   -3.5344 H   0  0  0  0  0  0  0  0  0  0  0  0
    2.1691   -0.2959   -4.2724 C   0  0  0  0  0  0  0  0  0  0  0  0
    2.5038   -0.9132   -5.1013 H   0  0  0  0  0  0  0  0  0  0  0  0
    2.7385    0.8235   -3.8978 N   0  0  0  0  0  0  0  0  0  0  0  0
    2.0152    1.2808   -2.8010 C   0  0  0  0  0  0  0  0  0  0  0  0
    2.2376    2.1898   -2.2499 H   0  0  0  0  0  0  0  0  0  0  0  0
    0.4539   -0.1902    0.9324 C   0  0  0  0  0  0  0  0  0  0  0  0
    1.6494   -0.1732    1.1914 O   0  0  0  0  0  0  0  0  0  0  0  0
   -0.4261    0.4473    1.7900 N   0  0  0  0  0  0  0  0  0  0  0  0
   -1.4135    0.3331    1.5876 H   0  0  0  0  0  0  0  0  0  0  0  0
   -0.0337    0.9241    3.1106 C   0  0  0  0  0  0  0  0  0  0  0  0
    0.7772    1.6557    3.0294 H   0  0  0  0  0  0  0  0  0  0  0  0
   -0.8816    1.4054    3.6070 H   0  0  0  0  0  0  0  0  0  0  0  0
    0.3062    0.0891    3.7323 H   0  0  0  0  0  0  0  0  0  0  0  0
  1  2  1  0  0  0  0
  2  3  1  0  0  0  0
  2  4  1  0  0  0  0
  2  5  1  0  0  0  0
  5  6  2  0  0  0  0
  5  7  1  0  0  0  0
  7  8  1  0  0  0  0
  7  9  1  0  0  0  0
  9 10  1  0  0  0  0
  9 11  1  0  0  0  0
  9 22  1  0  0  0  0
 11 12  1  0  0  0  0
 11 13  1  0  0  0  0
 11 14  1  0  0  0  0
 14 15  1  0  0  0  0
 14 20  2  0  0  0  0
 15 16  1  0  0  0  0
 15 17  1  0  0  0  0
 17 18  1  0  0  0  0
 17 19  2  0  0  0  0
 19 20  1  0  0  0  0
 20 21  1  0  0  0  0
 22 23  2  0  0  0  0
 22 24  1  0  0  0  0
 24 25  1  0  0  0  0
 24 26  1  0  0  0  0
 26 27  1  0  0  0  0
 26 28  1  0  0  0  0
 26 29  1  0  0  0  0
M  END
$$$$

  -OEChem-03222214043D

 29 29  0     1  0  0  0  0  0999 V2000
   -3.0326   -4.0432    0.6234 H   0  0  0  0  0  0  0  0  0  0  0  0
   -2.9890   -3.1204    0.0377 C   0  0  0  0  0  0  0  0  0  0  0  0
   -3.7785   -2.4483    0.3820 H   0  0  0  0  0  0  0  0  0  0  0  0
   -3.1584   -3.3646   -1.0136 H   0  0  0  0  0  0  0  0  0  0  0  0
   -1.6336   -2.4600    0.2074 C   0  0  0  0  0  0  0  0  0  0  0  0
   -0.8086   -2.9559    0.9518 O   0  0  0  0  0  0  0  0  0  0  0  0
   -1.3470   -1.2946   -0.4768 N   0  0  0  0  0  0  0  0  0  0  0  0
   -2.0482   -0.9676   -1.1338 H   0  0  0  0  0  0  0  0  0  0  0  0
   -0.0283   -0.6275   -0.4642 C   0  0  1  0  0  0  0  0  0  0  0  0
    0.7108   -1.3532   -0.8240 H   0  0  0  0  0  0  0  0  0  0  0  0
   -0.0516    0.5847   -1.4206 C   0  0  0  0  0  0  0  0  0  0  0  0
   -1.0370    0.7013   -1.8811 H   0  0  0  0  0  0  0  0  0  0  0  0
    0.1503    1.5068   -0.8634 H   0  0  0  0  0  0  0  0  0  0  0  0
    0.9803    0.4331   -2.5066 C   0  0  0  0  0  0  0  0  0  0  0  0
    0.9335   -0.3891   -3.6116 N   0  0  0  0  0  0  0  0  0  0  0  0
    0.2036   -1.0604   -3.8375 H   0  0  0  0  0  0  0  0  0  0  0  0
    2.0815   -0.1838   -4.3545 C   0  0  0  0  0  0  0  0  0  0  0  0
    2.3290   -0.6993   -5.2781 H   0  0  0  0  0  0  0  0  0  0  0  0
    2.8311    0.7277   -3.7851 N   0  0  0  0  0  0  0  0  0  0  0  0
    2.1615    1.1181   -2.6297 C   0  0  0  0  0  0  0  0  0  0  0  0
    2.5216    1.8655   -1.9287 H   0  0  0  0  0  0  0  0  0  0  0  0
    0.4546   -0.1847    0.9350 C   0  0  0  0  0  0  0  0  0  0  0  0
    1.6519   -0.1612    1.1851 O   0  0  0  0  0  0  0  0  0  0  0  0
   -0.4213    0.4513    1.7977 N   0  0  0  0  0  0  0  0  0  0  0  0
   -1.4095    0.3313    1.6031 H   0  0  0  0  0  0  0  0  0  0  0  0
   -0.0213    0.9270    3.1165 C   0  0  0  0  0  0  0  0  0  0  0  0
    0.7860    1.6620    3.0308 H   0  0  0  0  0  0  0  0  0  0  0  0
   -0.8677    1.4037    3.6198 H   0  0  0  0  0  0  0  0  0  0  0  0
    0.3266    0.0925    3.7344 H   0  0  0  0  0  0  0  0  0  0  0  0
  1  2  1  0  0  0  0
  2  3  1  0  0  0  0
  2  4  1  0  0  0  0
  2  5  1  0  0  0  0
  5  6  2  0  0  0  0
  5  7  1  0  0  0  0
  7  8  1  0  0  0  0
  7  9  1  0  0  0  0
  9 10  1  0  0  0  0
  9 11  1  0  0  0  0
  9 22  1  0  0  0  0
 11 12  1  0  0  0  0
 11 13  1  0  0  0  0
 11 14  1  0  0  0  0
 14 15  1  0  0  0  0
 14 20  2  0  0  0  0
 15 16  1  0  0  0  0
 15 17  1  0  0  0  0
 17 18  1  0  0  0  0
 17 19  2  0  0  0  0
 19 20  1  0  0  0  0
 20 21  1  0  0  0  0
 22 23  2  0  0  0  0
 22 24  1  0  0  0  0
 24 25  1  0  0  0  0
 24 26  1  0  0  0  0
 26 27  1  0  0  0  0
 26 28  1  0  0  0  0
 26 29  1  0  0  0  0
M  END
$$$$

  -OEChem-03222214043D

 29 29  0     1  0  0  0  0  0999 V2000
   -3.0249   -4.0527    0.6011 H   0  0  0  0  0  0  0  0  0  0  0  0
   -2.9816   -3.1292    0.0164 C   0  0  0  0  0  0  0  0  0  0  0  0
   -3.7881   -2.4685    0.3427 H   0  0  0  0  0  0  0  0  0  0  0  0
   -3.1236   -3.3760   -1.0384 H   0  0  0  0  0  0  0  0  0  0  0  0
   -1.6402   -2.4494    0.2159 C   0  0  0  0  0  0  0  0  0  0  0  0
   -0.8302   -2.9263    0.9887 O   0  0  0  0  0  0  0  0  0  0  0  0
   -1.3533   -1.2844   -0.4690 N   0  0  0  0  0  0  0  0  0  0  0  0
   -2.0331   -0.9887   -1.1620 H   0  0  0  0  0  0  0  0  0  0  0  0
   -0.0325   -0.6219   -0.4583 C   0  0  1  0  0  0  0  0  0  0  0  0
    0.7018   -1.3506   -0.8216 H   0  0  0  0  0  0  0  0  0  0  0  0
   -0.0520    0.5926   -1.4119 C   0  0  0  0  0  0  0  0  0  0  0  0
   -1.0386    0.7216   -1.8667 H   0  0  0  0  0  0  0  0  0  0  0  0
    0.1616    1.5109   -0.8530 H   0  0  0  0  0  0  0  0  0  0  0  0
    0.9784    0.4358   -2.4982 C   0  0  0  0  0  0  0  0  0  0  0  0
    0.8273   -0.1544   -3.7342 N   0  0  0  0  0  0  0  0  0  0  0  0
   -0.0088   -0.6102   -4.0913 H   0  0  0  0  0  0  0  0  0  0  0  0
    2.0228   -0.0382   -4.4193 C   0  0  0  0  0  0  0  0  0  0  0  0
    2.2079   -0.4147   -5.4213 H   0  0  0  0  0  0  0  0  0  0  0  0
    2.9039    0.5973   -3.6869 N   0  0  0  0  0  0  0  0  0  0  0  0
    2.2697    0.8974   -2.4849 C   0  0  0  0  0  0  0  0  0  0  0  0
    2.7304    1.4285   -1.6570 H   0  0  0  0  0  0  0  0  0  0  0  0
    0.4562   -0.1811    0.9396 C   0  0  0  0  0  0  0  0  0  0  0  0
    1.6557   -0.1495    1.1791 O   0  0  0  0  0  0  0  0  0  0  0  0
   -0.4155    0.4575    1.8046 N   0  0  0  0  0  0  0  0  0  0  0  0
   -1.4043    0.3266    1.6188 H   0  0  0  0  0  0  0  0  0  0  0  0
   -0.0095    0.9330    3.1216 C   0  0  0  0  0  0  0  0  0  0  0  0
    0.7962    1.6694    3.0324 H   0  0  0  0  0  0  0  0  0  0  0  0
   -0.8541    1.4080    3.6298 H   0  0  0  0  0  0  0  0  0  0  0  0
    0.3429    0.0986    3.7373 H   0  0  0  0  0  0  0  0  0  0  0  0
  1  2  1  0  0  0  0
  2  3  1  0  0  0  0
  2  4  1  0  0  0  0
  2  5  1  0  0  0  0
  5  6  2  0  0  0  0
  5  7  1  0  0  0  0
  7  8  1  0  0  0  0
  7  9  1  0  0  0  0
  9 10  1  0  0  0  0
  9 11  1  0  0  0  0
  9 22  1  0  0  0  0
 11 12  1  0  0  0  0
 11 13  1  0  0  0  0
 11 14  1  0  0  0  0
 14 15  1  0  0  0  0
 14 20  2  0  0  0  0
 15 16  1  0  0  0  0
 15 17  1  0  0  0  0
 17 18  1  0  0  0  0
 17 19  2  0  0  0  0
 19 20  1  0  0  0  0
 20 21  1  0  0  0  0
 22 23  2  0  0  0  0
 22 24  1  0  0  0  0
 24 25  1  0  0  0  0
 24 26  1  0  0  0  0
 26 27  1  0  0  0  0
 26 28  1  0  0  0  0
 26 29  1  0  0  0  0
M  END
$$$$

  -OEChem-03222214043D

 29 29  0     1  0  0  0  0  0999 V2000
   -3.0092   -4.0650    0.5800 H   0  0  0  0  0  0  0  0  0  0  0  0
   -2.9698   -3.1395   -0.0018 C   0  0  0  0  0  0  0  0  0  0  0  0
   -3.7915   -2.4915    0.3121 H   0  0  0  0  0  0  0  0  0  0  0  0
   -3.0896   -3.3854   -1.0596 H   0  0  0  0  0  0  0  0  0  0  0  0
   -1.6425   -2.4403    0.2229 C   0  0  0  0  0  0  0  0  0  0  0  0
   -0.8434   -2.9012    1.0166 O   0  0  0  0  0  0  0  0  0  0  0  0
   -1.3581   -1.2752   -0.4628 N   0  0  0  0  0  0  0  0  0  0  0  0
   -2.0205   -1.0065   -1.1832 H   0  0  0  0  0  0  0  0  0  0  0  0
   -0.0367   -0.6145   -0.4528 C   0  0  1  0  0  0  0  0  0  0  0  0
    0.6951   -1.3452   -0.8170 H   0  0  0  0  0  0  0  0  0  0  0  0
   -0.0548    0.6016   -1.4055 C   0  0  0  0  0  0  0  0  0  0  0  0
   -1.0429    0.7319   -1.8562 H   0  0  0  0  0  0  0  0  0  0  0  0
    0.1627    1.5199   -0.8482 H   0  0  0  0  0  0  0  0  0  0  0  0
    0.9738    0.4465   -2.4938 C   0  0  0  0  0  0  0  0  0  0  0  0
    0.7713    0.1241   -3.8183 N   0  0  0  0  0  0  0  0  0  0  0  0
   -0.1201   -0.0752   -4.2655 H   0  0  0  0  0  0  0  0  0  0  0  0
    1.9980    0.1213   -4.4564 C   0  0  0  0  0  0  0  0  0  0  0  0
    2.1549   -0.0999   -5.5084 H   0  0  0  0  0  0  0  0  0  0  0  0
    2.9487    0.4276   -3.6087 N   0  0  0  0  0  0  0  0  0  0  0  0
    2.3279    0.6323   -2.3800 C   0  0  0  0  0  0  0  0  0  0  0  0
    2.8420    0.9044   -1.4625 H   0  0  0  0  0  0  0  0  0  0  0  0
    0.4565   -0.1741    0.9436 C   0  0  0  0  0  0  0  0  0  0  0  0
    1.6575   -0.1391    1.1758 O   0  0  0  0  0  0  0  0  0  0  0  0
   -0.4111    0.4660    1.8114 N   0  0  0  0  0  0  0  0  0  0  0  0
   -1.4004    0.3304    1.6317 H   0  0  0  0  0  0  0  0  0  0  0  0
    0.0002    0.9369    3.1284 C   0  0  0  0  0  0  0  0  0  0  0  0
    0.8088    1.6700    3.0388 H   0  0  0  0  0  0  0  0  0  0  0  0
   -0.8411    1.4142    3.6397 H   0  0  0  0  0  0  0  0  0  0  0  0
    0.3504    0.0996    3.7413 H   0  0  0  0  0  0  0  0  0  0  0  0
  1  2  1  0  0  0  0
  2  3  1  0  0  0  0
  2  4  1  0  0  0  0
  2  5  1  0  0  0  0
  5  6  2  0  0  0  0
  5  7  1  0  0  0  0
  7  8  1  0  0  0  0
  7  9  1  0  0  0  0
  9 10  1  0  0  0  0
  9 11  1  0  0  0  0
  9 22  1  0  0  0  0
 11 12  1  0  0  0  0
 11 13  1  0  0  0  0
 11 14  1  0  0  0  0
 14 15  1  0  0  0  0
 14 20  2  0  0  0  0
 15 16  1  0  0  0  0
 15 17  1  0  0  0  0
 17 18  1  0  0  0  0
 17 19  2  0  0  0  0
 19 20  1  0  0  0  0
 20 21  1  0  0  0  0
 22 23  2  0  0  0  0
 22 24  1  0  0  0  0
 24 25  1  0  0  0  0
 24 26  1  0  0  0  0
 26 27  1  0  0  0  0
 26 28  1  0  0  0  0
 26 29  1  0  0  0  0
M  END
$$$$

  -OEChem-03222214043D

 29 29  0     1  0  0  0  0  0999 V2000
   -2.9992   -4.0754    0.5577 H   0  0  0  0  0  0  0  0  0  0  0  0
   -2.9588   -3.1486   -0.0220 C   0  0  0  0  0  0  0  0  0  0  0  0
   -3.7958   -2.5119    0.2739 H   0  0  0  0  0  0  0  0  0  0  0  0
   -3.0519   -3.3944   -1.0825 H   0  0  0  0  0  0  0  0  0  0  0  0
   -1.6460   -2.4321    0.2326 C   0  0  0  0  0  0  0  0  0  0  0  0
   -0.8636   -2.8781    1.0511 O   0  0  0  0  0  0  0  0  0  0  0  0
   -1.3560   -1.2695   -0.4554 N   0  0  0  0  0  0  0  0  0  0  0  0
   -1.9975   -1.0250   -1.2030 H   0  0  0  0  0  0  0  0  0  0  0  0
   -0.0321   -0.6136   -0.4398 C   0  0  1  0  0  0  0  0  0  0  0  0
    0.6964   -1.3494   -0.7994 H   0  0  0  0  0  0  0  0  0  0  0  0
   -0.0436    0.6025   -1.3944 C   0  0  0  0  0  0  0  0  0  0  0  0
   -1.0317    0.7245   -1.8477 H   0  0  0  0  0  0  0  0  0  0  0  0
    0.1660    1.5241   -0.8396 H   0  0  0  0  0  0  0  0  0  0  0  0
    0.9852    0.4570   -2.4855 C   0  0  0  0  0  0  0  0  0  0  0  0
    0.7721    0.4232   -3.8466 N   0  0  0  0  0  0  0  0  0  0  0  0
   -0.1240    0.4951   -4.3226 H   0  0  0  0  0  0  0  0  0  0  0  0
    1.9966    0.2925   -4.4751 C   0  0  0  0  0  0  0  0  0  0  0  0
    2.1450    0.2380   -5.5498 H   0  0  0  0  0  0  0  0  0  0  0  0
    2.9578    0.2451   -3.5863 N   0  0  0  0  0  0  0  0  0  0  0  0
    2.3458    0.3486   -2.3404 C   0  0  0  0  0  0  0  0  0  0  0  0
    2.8709    0.3464   -1.3892 H   0  0  0  0  0  0  0  0  0  0  0  0
    0.4569   -0.1709    0.9571 C   0  0  0  0  0  0  0  0  0  0  0  0
    1.6571   -0.1459    1.1951 O   0  0  0  0  0  0  0  0  0  0  0  0
   -0.4112    0.4752    1.8198 N   0  0  0  0  0  0  0  0  0  0  0  0
   -1.4004    0.3415    1.6373 H   0  0  0  0  0  0  0  0  0  0  0  0
   -0.0030    0.9430    3.1389 C   0  0  0  0  0  0  0  0  0  0  0  0
    0.8092    1.6727    3.0533 H   0  0  0  0  0  0  0  0  0  0  0  0
   -0.8441    1.4234    3.6474 H   0  0  0  0  0  0  0  0  0  0  0  0
    0.3413    0.1034    3.7521 H   0  0  0  0  0  0  0  0  0  0  0  0
  1  2  1  0  0  0  0
  2  3  1  0  0  0  0
  2  4  1  0  0  0  0
  2  5  1  0  0  0  0
  5  6  2  0  0  0  0
  5  7  1  0  0  0  0
  7  8  1  0  0  0  0
  7  9  1  0  0  0  0
  9 10  1  0  0  0  0
  9 11  1  0  0  0  0
  9 22  1  0  0  0  0
 11 12  1  0  0  0  0
 11 13  1  0  0  0  0
 11 14  1  0  0  0  0
 14 15  1  0  0  0  0
 14 20  2  0  0  0  0
 15 16  1  0  0  0  0
 15 17  1  0  0  0  0
 17 18  1  0  0  0  0
 17 19  2  0  0  0  0
 19 20  1  0  0  0  0
 20 21  1  0  0  0  0
 22 23  2  0  0  0  0
 22 24  1  0  0  0  0
 24 25  1  0  0  0  0
 24 26  1  0  0  0  0
 26 27  1  0  0  0  0
 26 28  1  0  0  0  0
 26 29  1  0  0  0  0
M  END
$$$$

  -OEChem-03222214043D

 29 29  0     1  0  0  0  0  0999 V2000
   -3.0109   -4.0683    0.5662 H   0  0  0  0  0  0  0  0  0  0  0  0
   -2.9560   -3.1529   -0.0301 C   0  0  0  0  0  0  0  0  0  0  0  0
   -3.8007   -2.5113    0.2315 H   0  0  0  0  0  0  0  0  0  0  0  0
   -3.0208   -3.4196   -1.0877 H   0  0  0  0  0  0  0  0  0  0  0  0
   -1.6509   -2.4303    0.2451 C   0  0  0  0  0  0  0  0  0  0  0  0
   -0.8846   -2.8658    1.0843 O   0  0  0  0  0  0  0  0  0  0  0  0
   -1.3498   -1.2735   -0.4478 N   0  0  0  0  0  0  0  0  0  0  0  0
   -1.9733   -1.0439   -1.2152 H   0  0  0  0  0  0  0  0  0  0  0  0
   -0.0226   -0.6244   -0.4232 C   0  0  1  0  0  0  0  0  0  0  0  0
    0.7015   -1.3695   -0.7705 H   0  0  0  0  0  0  0  0  0  0  0  0
   -0.0196    0.5895   -1.3834 C   0  0  0  0  0  0  0  0  0  0  0  0
   -1.0053    0.6998   -1.8447 H   0  0  0  0  0  0  0  0  0  0  0  0
    0.1756    1.5157   -0.8314 H   0  0  0  0  0  0  0  0  0  0  0  0
    1.0116    0.4595   -2.4770 C   0  0  0  0  0  0  0  0  0  0  0  0
    0.8349    0.7207   -3.8189 N   0  0  0  0  0  0  0  0  0  0  0  0
   -0.0152    1.0595   -4.2631 H   0  0  0  0  0  0  0  0  0  0  0  0
    2.0284    0.4776   -4.4728 C   0  0  0  0  0  0  0  0  0  0  0  0
    2.1933    0.6004   -5.5394 H   0  0  0  0  0  0  0  0  0  0  0  0
    2.9368    0.0765   -3.6188 N   0  0  0  0  0  0  0  0  0  0  0  0
    2.3226    0.0636   -2.3700 C   0  0  0  0  0  0  0  0  0  0  0  0
    2.8133   -0.2198   -1.4429 H   0  0  0  0  0  0  0  0  0  0  0  0
    0.4563   -0.1755    0.9752 C   0  0  0  0  0  0  0  0  0  0  0  0
    1.6542   -0.1602    1.2249 O   0  0  0  0  0  0  0  0  0  0  0  0
   -0.4161    0.4808    1.8257 N   0  0  0  0  0  0  0  0  0  0  0  0
   -1.4040    0.3497    1.6350 H   0  0  0  0  0  0  0  0  0  0  0  0
   -0.0185    0.9519    3.1467 C   0  0  0  0  0  0  0  0  0  0  0  0
    0.7986    1.6766    3.0657 H   0  0  0  0  0  0  0  0  0  0  0  0
   -0.8618    1.4394    3.6449 H   0  0  0  0  0  0  0  0  0  0  0  0
    0.3149    0.1132    3.7671 H   0  0  0  0  0  0  0  0  0  0  0  0
  1  2  1  0  0  0  0
  2  3  1  0  0  0  0
  2  4  1  0  0  0  0
  2  5  1  0  0  0  0
  5  6  2  0  0  0  0
  5  7  1  0  0  0  0
  7  8  1  0  0  0  0
  7  9  1  0  0  0  0
  9 10  1  0  0  0  0
  9 11  1  0  0  0  0
  9 22  1  0  0  0  0
 11 12  1  0  0  0  0
 11 13  1  0  0  0  0
 11 14  1  0  0  0  0
 14 15  1  0  0  0  0
 14 20  2  0  0  0  0
 15 16  1  0  0  0  0
 15 17  1  0  0  0  0
 17 18  1  0  0  0  0
 17 19  2  0  0  0  0
 19 20  1  0  0  0  0
 20 21  1  0  0  0  0
 22 23  2  0  0  0  0
 22 24  1  0  0  0  0
 24 25  1  0  0  0  0
 24 26  1  0  0  0  0
 26 27  1  0  0  0  0
 26 28  1  0  0  0  0
 26 29  1  0  0  0  0
M  END
$$$$

  -OEChem-03222214043D

 29 29  0     1  0  0  0  0  0999 V2000
   -3.0228   -4.0732    0.5590 H   0  0  0  0  0  0  0  0  0  0  0  0
   -2.9694   -3.1492   -0.0242 C   0  0  0  0  0  0  0  0  0  0  0  0
   -3.8133   -2.5115    0.2491 H   0  0  0  0  0  0  0  0  0  0  0  0
   -3.0376   -3.4009   -1.0852 H   0  0  0  0  0  0  0  0  0  0  0  0
   -1.6628   -2.4315    0.2573 C   0  0  0  0  0  0  0  0  0  0  0  0
   -0.9073   -2.8658    1.1068 O   0  0  0  0  0  0  0  0  0  0  0  0
   -1.3464   -1.2821   -0.4413 N   0  0  0  0  0  0  0  0  0  0  0  0
   -1.9586   -1.0567   -1.2193 H   0  0  0  0  0  0  0  0  0  0  0  0
   -0.0145   -0.6421   -0.4076 C   0  0  1  0  0  0  0  0  0  0  0  0
    0.7032   -1.3999   -0.7368 H   0  0  0  0  0  0  0  0  0  0  0  0
    0.0072    0.5628   -1.3814 C   0  0  0  0  0  0  0  0  0  0  0  0
   -0.9747    0.6675   -1.8522 H   0  0  0  0  0  0  0  0  0  0  0  0
    0.1947    1.4926   -0.8328 H   0  0  0  0  0  0  0  0  0  0  0  0
    1.0431    0.4409   -2.4746 C   0  0  0  0  0  0  0  0  0  0  0  0
    0.9498    0.9730   -3.7431 N   0  0  0  0  0  0  0  0  0  0  0  0
    0.1821    1.5308   -4.1095 H   0  0  0  0  0  0  0  0  0  0  0  0
    2.0986    0.6525   -4.4412 C   0  0  0  0  0  0  0  0  0  0  0  0
    2.3061    0.9373   -5.4687 H   0  0  0  0  0  0  0  0  0  0  0  0
    2.9051   -0.0473   -3.6834 N   0  0  0  0  0  0  0  0  0  0  0  0
    2.2700   -0.1786   -2.4522 C   0  0  0  0  0  0  0  0  0  0  0  0
    2.6932   -0.6951   -1.5952 H   0  0  0  0  0  0  0  0  0  0  0  0
    0.4539   -0.1855    0.9916 C   0  0  0  0  0  0  0  0  0  0  0  0
    1.6491   -0.1807    1.2543 O   0  0  0  0  0  0  0  0  0  0  0  0
   -0.4221    0.4838    1.8280 N   0  0  0  0  0  0  0  0  0  0  0  0
   -1.4088    0.3581    1.6276 H   0  0  0  0  0  0  0  0  0  0  0  0
   -0.0354    0.9579    3.1510 C   0  0  0  0  0  0  0  0  0  0  0  0
    0.7931    1.6702    3.0764 H   0  0  0  0  0  0  0  0  0  0  0  0
   -0.8785    1.4607    3.6342 H   0  0  0  0  0  0  0  0  0  0  0  0
    0.2772    0.1184    3.7811 H   0  0  0  0  0  0  0  0  0  0  0  0
  1  2  1  0  0  0  0
  2  3  1  0  0  0  0
  2  4  1  0  0  0  0
  2  5  1  0  0  0  0
  5  6  2  0  0  0  0
  5  7  1  0  0  0  0
  7  8  1  0  0  0  0
  7  9  1  0  0  0  0
  9 10  1  0  0  0  0
  9 11  1  0  0  0  0
  9 22  1  0  0  0  0
 11 12  1  0  0  0  0
 11 13  1  0  0  0  0
 11 14  1  0  0  0  0
 14 15  1  0  0  0  0
 14 20  2  0  0  0  0
 15 16  1  0  0  0  0
 15 17  1  0  0  0  0
 17 18  1  0  0  0  0
 17 19  2  0  0  0  0
 19 20  1  0  0  0  0
 20 21  1  0  0  0  0
 22 23  2  0  0  0  0
 22 24  1  0  0  0  0
 24 25  1  0  0  0  0
 24 26  1  0  0  0  0
 26 27  1  0  0  0  0
 26 28  1  0  0  0  0
 26 29  1  0  0  0  0
M  END
$$$$

  -OEChem-03222214043D

 29 29  0     1  0  0  0  0  0999 V2000
   -3.0741   -4.0436    0.5893 H   0  0  0  0  0  0  0  0  0  0  0  0
   -2.9865   -3.1422   -0.0242 C   0  0  0  0  0  0  0  0  0  0  0  0
   -3.8290   -2.4828    0.1975 H   0  0  0  0  0  0  0  0  0  0  0  0
   -3.0238   -3.4307   -1.0774 H   0  0  0  0  0  0  0  0  0  0  0  0
   -1.6786   -2.4336    0.2748 C   0  0  0  0  0  0  0  0  0  0  0  0
   -0.9425   -2.8642    1.1431 O   0  0  0  0  0  0  0  0  0  0  0  0
   -1.3387   -1.2967   -0.4329 N   0  0  0  0  0  0  0  0  0  0  0  0
   -1.9366   -1.0754   -1.2232 H   0  0  0  0  0  0  0  0  0  0  0  0
   -0.0006   -0.6707   -0.3895 C   0  0  1  0  0  0  0  0  0  0  0  0
    0.7128   -1.4394   -0.6976 H   0  0  0  0  0  0  0  0  0  0  0  0
    0.0358    0.5251   -1.3755 C   0  0  0  0  0  0  0  0  0  0  0  0
   -0.9440    0.6333   -1.8499 H   0  0  0  0  0  0  0  0  0  0  0  0
    0.2238    1.4552   -0.8274 H   0  0  0  0  0  0  0  0  0  0  0  0
    1.0713    0.4127   -2.4728 C   0  0  0  0  0  0  0  0  0  0  0  0
    1.0968    1.1854   -3.6148 N   0  0  0  0  0  0  0  0  0  0  0  0
    0.4406    1.9241   -3.8578 H   0  0  0  0  0  0  0  0  0  0  0  0
    2.1868    0.8137   -4.3786 C   0  0  0  0  0  0  0  0  0  0  0  0
    2.4591    1.2509   -5.3351 H   0  0  0  0  0  0  0  0  0  0  0  0
    2.8460   -0.1474   -3.7824 N   0  0  0  0  0  0  0  0  0  0  0  0
    2.1754   -0.3994   -2.5899 C   0  0  0  0  0  0  0  0  0  0  0  0
    2.4952   -1.1358   -1.8591 H   0  0  0  0  0  0  0  0  0  0  0  0
    0.4544   -0.2014    1.0103 C   0  0  0  0  0  0  0  0  0  0  0  0
    1.6452   -0.2115    1.2916 O   0  0  0  0  0  0  0  0  0  0  0  0
   -0.4242    0.4881    1.8277 N   0  0  0  0  0  0  0  0  0  0  0  0
   -1.4100    0.3731    1.6160 H   0  0  0  0  0  0  0  0  0  0  0  0
   -0.0481    0.9733    3.1499 C   0  0  0  0  0  0  0  0  0  0  0  0
    0.7890    1.6758    3.0773 H   0  0  0  0  0  0  0  0  0  0  0  0
   -0.8913    1.4908    3.6173 H   0  0  0  0  0  0  0  0  0  0  0  0
    0.2481    0.1380    3.7934 H   0  0  0  0  0  0  0  0  0  0  0  0
  1  2  1  0  0  0  0
  2  3  1  0  0  0  0
  2  4  1  0  0  0  0
  2  5  1  0  0  0  0
  5  6  2  0  0  0  0
  5  7  1  0  0  0  0
  7  8  1  0  0  0  0
  7  9  1  0  0  0  0
  9 10  1  0  0  0  0
  9 11  1  0  0  0  0
  9 22  1  0  0  0  0
 11 12  1  0  0  0  0
 11 13  1  0  0  0  0
 11 14  1  0  0  0  0
 14 15  1  0  0  0  0
 14 20  2  0  0  0  0
 15 16  1  0  0  0  0
 15 17  1  0  0  0  0
 17 18  1  0  0  0  0
 17 19  2  0  0  0  0
 19 20  1  0  0  0  0
 20 21  1  0  0  0  0
 22 23  2  0  0  0  0
 22 24  1  0  0  0  0
 24 25  1  0  0  0  0
 24 26  1  0  0  0  0
 26 27  1  0  0  0  0
 26 28  1  0  0  0  0
 26 29  1  0  0  0  0
M  END
$$$$

  -OEChem-03222214043D

 29 29  0     1  0  0  0  0  0999 V2000
   -3.0790   -4.0252    0.6299 H   0  0  0  0  0  0  0  0  0  0  0  0
   -2.9790   -3.1323    0.0059 C   0  0  0  0  0  0  0  0  0  0  0  0
   -3.8145   -2.4607    0.2170 H   0  0  0  0  0  0  0  0  0  0  0  0
   -3.0160   -3.4332   -1.0439 H   0  0  0  0  0  0  0  0  0  0  0  0
   -1.6643   -2.4354    0.3018 C   0  0  0  0  0  0  0  0  0  0  0  0
   -0.9441   -2.8568    1.1877 O   0  0  0  0  0  0  0  0  0  0  0  0
   -1.3006   -1.3197   -0.4280 N   0  0  0  0  0  0  0  0  0  0  0  0
   -1.8800   -1.1164   -1.2373 H   0  0  0  0  0  0  0  0  0  0  0  0
    0.0440   -0.7082   -0.3839 C   0  0  1  0  0  0  0  0  0  0  0  0
    0.7837   -1.4626   -0.6636 H   0  0  0  0  0  0  0  0  0  0  0  0
    0.0799    0.4925   -1.3616 C   0  0  0  0  0  0  0  0  0  0  0  0
   -0.9394    0.8164   -1.5932 H   0  0  0  0  0  0  0  0  0  0  0  0
    0.5751    1.3388   -0.8719 H   0  0  0  0  0  0  0  0  0  0  0  0
    0.8269    0.2405   -2.6535 C   0  0  0  0  0  0  0  0  0  0  0  0
    0.9821    1.1695   -3.6606 N   0  0  0  0  0  0  0  0  0  0  0  0
    0.6617    2.1353   -3.6432 H   0  0  0  0  0  0  0  0  0  0  0  0
    1.6929    0.5912   -4.6946 C   0  0  0  0  0  0  0  0  0  0  0  0
    1.9727    1.0905   -5.6178 H   0  0  0  0  0  0  0  0  0  0  0  0
    1.9792   -0.6524   -4.4013 N   0  0  0  0  0  0  0  0  0  0  0  0
    1.4547   -0.8848   -3.1347 C   0  0  0  0  0  0  0  0  0  0  0  0
    1.5291   -1.8366   -2.6184 H   0  0  0  0  0  0  0  0  0  0  0  0
    0.4600   -0.2201    1.0232 C   0  0  0  0  0  0  0  0  0  0  0  0
    1.6424   -0.2260    1.3385 O   0  0  0  0  0  0  0  0  0  0  0  0
   -0.4382    0.4886    1.8024 N   0  0  0  0  0  0  0  0  0  0  0  0
   -1.4179    0.3674    1.5671 H   0  0  0  0  0  0  0  0  0  0  0  0
   -0.0996    0.9895    3.1289 C   0  0  0  0  0  0  0  0  0  0  0  0
    0.7444    1.6851    3.0733 H   0  0  0  0  0  0  0  0  0  0  0  0
   -0.9533    1.5192    3.5623 H   0  0  0  0  0  0  0  0  0  0  0  0
    0.1701    0.1613    3.7929 H   0  0  0  0  0  0  0  0  0  0  0  0
  1  2  1  0  0  0  0
  2  3  1  0  0  0  0
  2  4  1  0  0  0  0
  2  5  1  0  0  0  0
  5  6  2  0  0  0  0
  5  7  1  0  0  0  0
  7  8  1  0  0  0  0
  7  9  1  0  0  0  0
  9 10  1  0  0  0  0
  9 11  1  0  0  0  0
  9 22  1  0  0  0  0
 11 12  1  0  0  0  0
 11 13  1  0  0  0  0
 11 14  1  0  0  0  0
 14 15  1  0  0  0  0
 14 20  2  0  0  0  0
 15 16  1  0  0  0  0
 15 17  1  0  0  0  0
 17 18  1  0  0  0  0
 17 19  2  0  0  0  0
 19 20  1  0  0  0  0
 20 21  1  0  0  0  0
 22 23  2  0  0  0  0
 22 24  1  0  0  0  0
 24 25  1  0  0  0  0
 24 26  1  0  0  0  0
 26 27  1  0  0  0  0
 26 28  1  0  0  0  0
 26 29  1  0  0  0  0
M  END
$$$$

  -OEChem-03222214043D

 29 29  0     1  0  0  0  0  0999 V2000
   -3.0704   -4.0305    0.6232 H   0  0  0  0  0  0  0  0  0  0  0  0
   -2.9798   -3.1279    0.0122 C   0  0  0  0  0  0  0  0  0  0  0  0
   -3.8097   -2.4580    0.2489 H   0  0  0  0  0  0  0  0  0  0  0  0
   -3.0367   -3.4117   -1.0413 H   0  0  0  0  0  0  0  0  0  0  0  0
   -1.6580   -2.4387    0.2949 C   0  0  0  0  0  0  0  0  0  0  0  0
   -0.9242   -2.8731    1.1633 O   0  0  0  0  0  0  0  0  0  0  0  0
   -1.3001   -1.3188   -0.4311 N   0  0  0  0  0  0  0  0  0  0  0  0
   -1.8957   -1.0971   -1.2237 H   0  0  0  0  0  0  0  0  0  0  0  0
    0.0425   -0.7028   -0.3911 C   0  0  1  0  0  0  0  0  0  0  0  0
    0.7865   -1.4511   -0.6801 H   0  0  0  0  0  0  0  0  0  0  0  0
    0.0688    0.4997   -1.3655 C   0  0  0  0  0  0  0  0  0  0  0  0
   -0.9492    0.8296   -1.5944 H   0  0  0  0  0  0  0  0  0  0  0  0
    0.5707    1.3422   -0.8760 H   0  0  0  0  0  0  0  0  0  0  0  0
    0.8138    0.2365   -2.6547 C   0  0  0  0  0  0  0  0  0  0  0  0
    1.2320    1.2041   -3.5430 N   0  0  0  0  0  0  0  0  0  0  0  0
    1.1339    2.2106   -3.4277 H   0  0  0  0  0  0  0  0  0  0  0  0
    1.8582    0.5865   -4.6091 C   0  0  0  0  0  0  0  0  0  0  0  0
    2.2952    1.0999   -5.4611 H   0  0  0  0  0  0  0  0  0  0  0  0
    1.8460   -0.7133   -4.4454 N   0  0  0  0  0  0  0  0  0  0  0  0
    1.2087   -0.9465   -3.2321 C   0  0  0  0  0  0  0  0  0  0  0  0
    1.0373   -1.9346   -2.8164 H   0  0  0  0  0  0  0  0  0  0  0  0
    0.4623   -0.2195    1.0168 C   0  0  0  0  0  0  0  0  0  0  0  0
    1.6456   -0.2210    1.3291 O   0  0  0  0  0  0  0  0  0  0  0  0
   -0.4360    0.4823    1.8020 N   0  0  0  0  0  0  0  0  0  0  0  0
   -1.4158    0.3666    1.5645 H   0  0  0  0  0  0  0  0  0  0  0  0
   -0.0965    0.9787    3.1300 C   0  0  0  0  0  0  0  0  0  0  0  0
    0.7433    1.6795    3.0757 H   0  0  0  0  0  0  0  0  0  0  0  0
   -0.9520    1.5012    3.5682 H   0  0  0  0  0  0  0  0  0  0  0  0
    0.1797    0.1490    3.7892 H   0  0  0  0  0  0  0  0  0  0  0  0
  1  2  1  0  0  0  0
  2  3  1  0  0  0  0
  2  4  1  0  0  0  0
  2  5  1  0  0  0  0
  5  6  2  0  0  0  0
  5  7  1  0  0  0  0
  7  8  1  0  0  0  0
  7  9  1  0  0  0  0
  9 10  1  0  0  0  0
  9 11  1  0  0  0  0
  9 22  1  0  0  0  0
 11 12  1  0  0  0  0
 11 13  1  0  0  0  0
 11 14  1  0  0  0  0
 14 15  1  0  0  0  0
 14 20  2  0  0  0  0
 15 16  1  0  0  0  0
 15 17  1  0  0  0  0
 17 18  1  0  0  0  0
 17 19  2  0  0  0  0
 19 20  1  0  0  0  0
 20 21  1  0  0  0  0
 22 23  2  0  0  0  0
 22 24  1  0  0  0  0
 24 25  1  0  0  0  0
 24 26  1  0  0  0  0
 26 27  1  0  0  0  0
 26 28  1  0  0  0  0
 26 29  1  0  0  0  0
M  END
$$$$

  -OEChem-03222214043D

 29 29  0     1  0  0  0  0  0999 V2000
   -3.0588   -4.0366    0.6078 H   0  0  0  0  0  0  0  0  0  0  0  0
   -2.9752   -3.1278    0.0046 C   0  0  0  0  0  0  0  0  0  0  0  0
   -3.8037   -2.4612    0.2552 H   0  0  0  0  0  0  0  0  0  0  0  0
   -3.0415   -3.4013   -1.0512 H   0  0  0  0  0  0  0  0  0  0  0  0
   -1.6524   -2.4388    0.2816 C   0  0  0  0  0  0  0  0  0  0  0  0
   -0.9088   -2.8798    1.1382 O   0  0  0  0  0  0  0  0  0  0  0  0
   -1.3053   -1.3106   -0.4366 N   0  0  0  0  0  0  0  0  0  0  0  0
   -1.9127   -1.0776   -1.2168 H   0  0  0  0  0  0  0  0  0  0  0  0
    0.0341   -0.6880   -0.4015 C   0  0  1  0  0  0  0  0  0  0  0  0
    0.7797   -1.4294   -0.7073 H   0  0  0  0  0  0  0  0  0  0  0  0
    0.0493    0.5191   -1.3680 C   0  0  0  0  0  0  0  0  0  0  0  0
   -0.9685    0.8516   -1.5942 H   0  0  0  0  0  0  0  0  0  0  0  0
    0.5544    1.3594   -0.8788 H   0  0  0  0  0  0  0  0  0  0  0  0
    0.7927    0.2423   -2.6531 C   0  0  0  0  0  0  0  0  0  0  0  0
    1.4714    1.1684   -3.4148 N   0  0  0  0  0  0  0  0  0  0  0  0
    1.5912    2.1559   -3.1983 H   0  0  0  0  0  0  0  0  0  0  0  0
    2.0173    0.5238   -4.5089 C   0  0  0  0  0  0  0  0  0  0  0  0
    2.6135    1.0006   -5.2817 H   0  0  0  0  0  0  0  0  0  0  0  0
    1.7093   -0.7499   -4.4812 N   0  0  0  0  0  0  0  0  0  0  0  0
    0.9580   -0.9423   -3.3276 C   0  0  0  0  0  0  0  0  0  0  0  0
    0.5522   -1.8994   -3.0132 H   0  0  0  0  0  0  0  0  0  0  0  0
    0.4631   -0.2151    1.0069 C   0  0  0  0  0  0  0  0  0  0  0  0
    1.6492   -0.2086    1.3082 O   0  0  0  0  0  0  0  0  0  0  0  0
   -0.4335    0.4750    1.8046 N   0  0  0  0  0  0  0  0  0  0  0  0
   -1.4145    0.3512    1.5761 H   0  0  0  0  0  0  0  0  0  0  0  0
   -0.0855    0.9659    3.1326 C   0  0  0  0  0  0  0  0  0  0  0  0
    0.7488    1.6730    3.0744 H   0  0  0  0  0  0  0  0  0  0  0  0
   -0.9404    1.4798    3.5822 H   0  0  0  0  0  0  0  0  0  0  0  0
    0.2030    0.1341    3.7840 H   0  0  0  0  0  0  0  0  0  0  0  0
  1  2  1  0  0  0  0
  2  3  1  0  0  0  0
  2  4  1  0  0  0  0
  2  5  1  0  0  0  0
  5  6  2  0  0  0  0
  5  7  1  0  0  0  0
  7  8  1  0  0  0  0
  7  9  1  0  0  0  0
  9 10  1  0  0  0  0
  9 11  1  0  0  0  0
  9 22  1  0  0  0  0
 11 12  1  0  0  0  0
 11 13  1  0  0  0  0
 11 14  1  0  0  0  0
 14 15  1  0  0  0  0
 14 20  2  0  0  0  0
 15 16  1  0  0  0  0
 15 17  1  0  0  0  0
 17 18  1  0  0  0  0
 17 19  2  0  0  0  0
 19 20  1  0  0  0  0
 20 21  1  0  0  0  0
 22 23  2  0  0  0  0
 22 24  1  0  0  0  0
 24 25  1  0  0  0  0
 24 26  1  0  0  0  0
 26 27  1  0  0  0  0
 26 28  1  0  0  0  0
 26 29  1  0  0  0  0
M  END
$$$$

  -OEChem-03222214043D

 29 29  0     1  0  0  0  0  0999 V2000
   -3.0358   -4.0536    0.5788 H   0  0  0  0  0  0  0  0  0  0  0  0
   -2.9689   -3.1302   -0.0037 C   0  0  0  0  0  0  0  0  0  0  0  0
   -3.7966   -2.4753    0.2785 H   0  0  0  0  0  0  0  0  0  0  0  0
   -3.0532   -3.3790   -1.0643 H   0  0  0  0  0  0  0  0  0  0  0  0
   -1.6452   -2.4397    0.2654 C   0  0  0  0  0  0  0  0  0  0  0  0
   -0.8931   -2.8835    1.1130 O   0  0  0  0  0  0  0  0  0  0  0  0
   -1.3095   -1.3030   -0.4444 N   0  0  0  0  0  0  0  0  0  0  0  0
   -1.9286   -1.0592   -1.2117 H   0  0  0  0  0  0  0  0  0  0  0  0
    0.0260   -0.6716   -0.4113 C   0  0  1  0  0  0  0  0  0  0  0  0
    0.7727   -1.4070   -0.7318 H   0  0  0  0  0  0  0  0  0  0  0  0
    0.0354    0.5408   -1.3691 C   0  0  0  0  0  0  0  0  0  0  0  0
   -0.9832    0.8659   -1.6018 H   0  0  0  0  0  0  0  0  0  0  0  0
    0.5339    1.3856   -0.8804 H   0  0  0  0  0  0  0  0  0  0  0  0
    0.7831    0.2484   -2.6451 C   0  0  0  0  0  0  0  0  0  0  0  0
    1.7013    1.0618   -3.2714 N   0  0  0  0  0  0  0  0  0  0  0  0
    2.0305    1.9668   -2.9411 H   0  0  0  0  0  0  0  0  0  0  0  0
    2.1549    0.4162   -4.4065 C   0  0  0  0  0  0  0  0  0  0  0  0
    2.8904    0.8143   -5.0997 H   0  0  0  0  0  0  0  0  0  0  0  0
    1.5667   -0.7495   -4.5282 N   0  0  0  0  0  0  0  0  0  0  0  0
    0.7196   -0.8722   -3.4333 C   0  0  0  0  0  0  0  0  0  0  0  0
    0.0916   -1.7353   -3.2341 H   0  0  0  0  0  0  0  0  0  0  0  0
    0.4631   -0.2072    0.9969 C   0  0  0  0  0  0  0  0  0  0  0  0
    1.6525   -0.1837    1.2848 O   0  0  0  0  0  0  0  0  0  0  0  0
   -0.4335    0.4703    1.8049 N   0  0  0  0  0  0  0  0  0  0  0  0
   -1.4149    0.3316    1.5867 H   0  0  0  0  0  0  0  0  0  0  0  0
   -0.0798    0.9567    3.1327 C   0  0  0  0  0  0  0  0  0  0  0  0
    0.7485    1.6704    3.0725 H   0  0  0  0  0  0  0  0  0  0  0  0
   -0.9354    1.4614    3.5911 H   0  0  0  0  0  0  0  0  0  0  0  0
    0.2193    0.1232    3.7769 H   0  0  0  0  0  0  0  0  0  0  0  0
  1  2  1  0  0  0  0
  2  3  1  0  0  0  0
  2  4  1  0  0  0  0
  2  5  1  0  0  0  0
  5  6  2  0  0  0  0
  5  7  1  0  0  0  0
  7  8  1  0  0  0  0
  7  9  1  0  0  0  0
  9 10  1  0  0  0  0
  9 11  1  0  0  0  0
  9 22  1  0  0  0  0
 11 12  1  0  0  0  0
 11 13  1  0  0  0  0
 11 14  1  0  0  0  0
 14 15  1  0  0  0  0
 14 20  2  0  0  0  0
 15 16  1  0  0  0  0
 15 17  1  0  0  0  0
 17 18  1  0  0  0  0
 17 19  2  0  0  0  0
 19 20  1  0  0  0  0
 20 21  1  0  0  0  0
 22 23  2  0  0  0  0
 22 24  1  0  0  0  0
 24 25  1  0  0  0  0
 24 26  1  0  0  0  0
 26 27  1  0  0  0  0
 26 28  1  0  0  0  0
 26 29  1  0  0  0  0
M  END
$$$$

  -OEChem-03222214043D

 29 29  0     1  0  0  0  0  0999 V2000
   -3.0315   -4.0575    0.5826 H   0  0  0  0  0  0  0  0  0  0  0  0
   -2.9613   -3.1466   -0.0191 C   0  0  0  0  0  0  0  0  0  0  0  0
   -3.7997   -2.4929    0.2331 H   0  0  0  0  0  0  0  0  0  0  0  0
   -3.0237   -3.4194   -1.0754 H   0  0  0  0  0  0  0  0  0  0  0  0
   -1.6482   -2.4391    0.2585 C   0  0  0  0  0  0  0  0  0  0  0  0
   -0.8941   -2.8761    1.1082 O   0  0  0  0  0  0  0  0  0  0  0  0
   -1.3226   -1.2965   -0.4469 N   0  0  0  0  0  0  0  0  0  0  0  0
   -1.9417   -1.0584   -1.2160 H   0  0  0  0  0  0  0  0  0  0  0  0
    0.0109   -0.6605   -0.4145 C   0  0  1  0  0  0  0  0  0  0  0  0
    0.7545   -1.3956   -0.7446 H   0  0  0  0  0  0  0  0  0  0  0  0
    0.0236    0.5530   -1.3685 C   0  0  0  0  0  0  0  0  0  0  0  0
   -0.9962    0.8666   -1.6127 H   0  0  0  0  0  0  0  0  0  0  0  0
    0.5107    1.4065   -0.8839 H   0  0  0  0  0  0  0  0  0  0  0  0
    0.7786    0.2410   -2.6332 C   0  0  0  0  0  0  0  0  0  0  0  0
    1.8981    0.8818   -3.1149 N   0  0  0  0  0  0  0  0  0  0  0  0
    2.4073    1.6345   -2.6550 H   0  0  0  0  0  0  0  0  0  0  0  0
    2.2650    0.2818   -4.3050 C   0  0  0  0  0  0  0  0  0  0  0  0
    3.1200    0.5677   -4.9111 H   0  0  0  0  0  0  0  0  0  0  0  0
    1.4294   -0.6859   -4.5990 N   0  0  0  0  0  0  0  0  0  0  0  0
    0.5027   -0.7260   -3.5641 C   0  0  0  0  0  0  0  0  0  0  0  0
   -0.3258   -1.4251   -3.5044 H   0  0  0  0  0  0  0  0  0  0  0  0
    0.4596   -0.2002    0.9911 C   0  0  0  0  0  0  0  0  0  0  0  0
    1.6525   -0.1721    1.2653 O   0  0  0  0  0  0  0  0  0  0  0  0
   -0.4297    0.4723    1.8111 N   0  0  0  0  0  0  0  0  0  0  0  0
   -1.4134    0.3368    1.6013 H   0  0  0  0  0  0  0  0  0  0  0  0
   -0.0617    0.9628    3.1336 C   0  0  0  0  0  0  0  0  0  0  0  0
    0.7596    1.6837    3.0616 H   0  0  0  0  0  0  0  0  0  0  0  0
   -0.9152    1.4606    3.6033 H   0  0  0  0  0  0  0  0  0  0  0  0
    0.2534    0.1326    3.7745 H   0  0  0  0  0  0  0  0  0  0  0  0
  1  2  1  0  0  0  0
  2  3  1  0  0  0  0
  2  4  1  0  0  0  0
  2  5  1  0  0  0  0
  5  6  2  0  0  0  0
  5  7  1  0  0  0  0
  7  8  1  0  0  0  0
  7  9  1  0  0  0  0
  9 10  1  0  0  0  0
  9 11  1  0  0  0  0
  9 22  1  0  0  0  0
 11 12  1  0  0  0  0
 11 13  1  0  0  0  0
 11 14  1  0  0  0  0
 14 15  1  0  0  0  0
 14 20  2  0  0  0  0
 15 16  1  0  0  0  0
 15 17  1  0  0  0  0
 17 18  1  0  0  0  0
 17 19  2  0  0  0  0
 19 20  1  0  0  0  0
 20 21  1  0  0  0  0
 22 23  2  0  0  0  0
 22 24  1  0  0  0  0
 24 25  1  0  0  0  0
 24 26  1  0  0  0  0
 26 27  1  0  0  0  0
 26 28  1  0  0  0  0
 26 29  1  0  0  0  0
M  END
$$$$

  -OEChem-03222214043D

 29 29  0     1  0  0  0  0  0999 V2000
   -3.0331   -4.0640    0.5846 H   0  0  0  0  0  0  0  0  0  0  0  0
   -2.9615   -3.1563   -0.0213 C   0  0  0  0  0  0  0  0  0  0  0  0
   -3.8031   -2.5032    0.2214 H   0  0  0  0  0  0  0  0  0  0  0  0
   -3.0161   -3.4352   -1.0764 H   0  0  0  0  0  0  0  0  0  0  0  0
   -1.6523   -2.4432    0.2607 C   0  0  0  0  0  0  0  0  0  0  0  0
   -0.8989   -2.8756    1.1137 O   0  0  0  0  0  0  0  0  0  0  0  0
   -1.3312   -1.2992   -0.4441 N   0  0  0  0  0  0  0  0  0  0  0  0
   -1.9482   -1.0675   -1.2167 H   0  0  0  0  0  0  0  0  0  0  0  0
    0.0011   -0.6611   -0.4150 C   0  0  1  0  0  0  0  0  0  0  0  0
    0.7419   -1.3973   -0.7483 H   0  0  0  0  0  0  0  0  0  0  0  0
    0.0151    0.5506   -1.3699 C   0  0  0  0  0  0  0  0  0  0  0  0
   -1.0067    0.8524   -1.6209 H   0  0  0  0  0  0  0  0  0  0  0  0
    0.4933    1.4140   -0.8937 H   0  0  0  0  0  0  0  0  0  0  0  0
    0.7736    0.2198   -2.6260 C   0  0  0  0  0  0  0  0  0  0  0  0
    2.0385    0.6404   -2.9693 N   0  0  0  0  0  0  0  0  0  0  0  0
    2.6726    1.1837   -2.3853 H   0  0  0  0  0  0  0  0  0  0  0  0
    2.3409    0.1325   -4.2190 C   0  0  0  0  0  0  0  0  0  0  0  0
    3.2795    0.2842   -4.7445 H   0  0  0  0  0  0  0  0  0  0  0  0
    1.3277   -0.5617   -4.6812 N   0  0  0  0  0  0  0  0  0  0  0  0
    0.3441   -0.5130   -3.7005 C   0  0  0  0  0  0  0  0  0  0  0  0
   -0.6294   -0.9878   -3.7777 H   0  0  0  0  0  0  0  0  0  0  0  0
    0.4589   -0.2001    0.9868 C   0  0  0  0  0  0  0  0  0  0  0  0
    1.6550   -0.1602    1.2462 O   0  0  0  0  0  0  0  0  0  0  0  0
   -0.4261    0.4714    1.8121 N   0  0  0  0  0  0  0  0  0  0  0  0
   -1.4110    0.3266    1.6143 H   0  0  0  0  0  0  0  0  0  0  0  0
   -0.0477    0.9762    3.1262 C   0  0  0  0  0  0  0  0  0  0  0  0
    0.7687    1.7010    3.0391 H   0  0  0  0  0  0  0  0  0  0  0  0
   -0.8994    1.4739    3.5995 H   0  0  0  0  0  0  0  0  0  0  0  0
    0.2784    0.1540    3.7721 H   0  0  0  0  0  0  0  0  0  0  0  0
  1  2  1  0  0  0  0
  2  3  1  0  0  0  0
  2  4  1  0  0  0  0
  2  5  1  0  0  0  0
  5  6  2  0  0  0  0
  5  7  1  0  0  0  0
  7  8  1  0  0  0  0
  7  9  1  0  0  0  0
  9 10  1  0  0  0  0
  9 11  1  0  0  0  0
  9 22  1  0  0  0  0
 11 12  1  0  0  0  0
 11 13  1  0  0  0  0
 11 14  1  0  0  0  0
 14 15  1  0  0  0  0
 14 20  2  0  0  0  0
 15 16  1  0  0  0  0
 15 17  1  0  0  0  0
 17 18  1  0  0  0  0
 17 19  2  0  0  0  0
 19 20  1  0  0  0  0
 20 21  1  0  0  0  0
 22 23  2  0  0  0  0
 22 24  1  0  0  0  0
 24 25  1  0  0  0  0
 24 26  1  0  0  0  0
 26 27  1  0  0  0  0
 26 28  1  0  0  0  0
 26 29  1  0  0  0  0
M  END
$$$$

  -OEChem-03222214043D

 29 29  0     1  0  0  0  0  0999 V2000
   -3.0239   -4.0835    0.5837 H   0  0  0  0  0  0  0  0  0  0  0  0
   -2.9711   -3.1642   -0.0065 C   0  0  0  0  0  0  0  0  0  0  0  0
   -3.8128   -2.5226    0.2648 H   0  0  0  0  0  0  0  0  0  0  0  0
   -3.0440   -3.4235   -1.0654 H   0  0  0  0  0  0  0  0  0  0  0  0
   -1.6622   -2.4467    0.2642 C   0  0  0  0  0  0  0  0  0  0  0  0
   -0.9018   -2.8750    1.1131 O   0  0  0  0  0  0  0  0  0  0  0  0
   -1.3493   -1.3022   -0.4434 N   0  0  0  0  0  0  0  0  0  0  0  0
   -1.9668   -1.0788   -1.2181 H   0  0  0  0  0  0  0  0  0  0  0  0
   -0.0175   -0.6637   -0.4220 C   0  0  1  0  0  0  0  0  0  0  0  0
    0.7180   -1.4037   -0.7588 H   0  0  0  0  0  0  0  0  0  0  0  0
   -0.0022    0.5448   -1.3802 C   0  0  0  0  0  0  0  0  0  0  0  0
   -1.0243    0.8454   -1.6310 H   0  0  0  0  0  0  0  0  0  0  0  0
    0.4780    1.4106   -0.9102 H   0  0  0  0  0  0  0  0  0  0  0  0
    0.7552    0.2018   -2.6329 C   0  0  0  0  0  0  0  0  0  0  0  0
    2.1039    0.3711   -2.8485 N   0  0  0  0  0  0  0  0  0  0  0  0
    2.7893    0.6829   -2.1612 H   0  0  0  0  0  0  0  0  0  0  0  0
    2.3897   -0.0226   -4.1423 C   0  0  0  0  0  0  0  0  0  0  0  0
    3.3779   -0.0156   -4.5935 H   0  0  0  0  0  0  0  0  0  0  0  0
    1.2914   -0.4080   -4.7489 N   0  0  0  0  0  0  0  0  0  0  0  0
    0.2645   -0.2650   -3.8229 C   0  0  0  0  0  0  0  0  0  0  0  0
   -0.7798   -0.4881   -4.0194 H   0  0  0  0  0  0  0  0  0  0  0  0
    0.4552   -0.2003    0.9735 C   0  0  0  0  0  0  0  0  0  0  0  0
    1.6552   -0.1590    1.2157 O   0  0  0  0  0  0  0  0  0  0  0  0
   -0.4194    0.4731    1.8080 N   0  0  0  0  0  0  0  0  0  0  0  0
   -1.4069    0.3343    1.6189 H   0  0  0  0  0  0  0  0  0  0  0  0
   -0.0256    0.9805    3.1166 C   0  0  0  0  0  0  0  0  0  0  0  0
    0.7942    1.7000    3.0190 H   0  0  0  0  0  0  0  0  0  0  0  0
   -0.8696    1.4850    3.5963 H   0  0  0  0  0  0  0  0  0  0  0  0
    0.3019    0.1588    3.7624 H   0  0  0  0  0  0  0  0  0  0  0  0
  1  2  1  0  0  0  0
  2  3  1  0  0  0  0
  2  4  1  0  0  0  0
  2  5  1  0  0  0  0
  5  6  2  0  0  0  0
  5  7  1  0  0  0  0
  7  8  1  0  0  0  0
  7  9  1  0  0  0  0
  9 10  1  0  0  0  0
  9 11  1  0  0  0  0
  9 22  1  0  0  0  0
 11 12  1  0  0  0  0
 11 13  1  0  0  0  0
 11 14  1  0  0  0  0
 14 15  1  0  0  0  0
 14 20  2  0  0  0  0
 15 16  1  0  0  0  0
 15 17  1  0  0  0  0
 17 18  1  0  0  0  0
 17 19  2  0  0  0  0
 19 20  1  0  0  0  0
 20 21  1  0  0  0  0
 22 23  2  0  0  0  0
 22 24  1  0  0  0  0
 24 25  1  0  0  0  0
 24 26  1  0  0  0  0
 26 27  1  0  0  0  0
 26 28  1  0  0  0  0
 26 29  1  0  0  0  0
M  END
$$$$

  -OEChem-03222214043D

 29 29  0     1  0  0  0  0  0999 V2000
   -3.0335   -4.0757    0.5920 H   0  0  0  0  0  0  0  0  0  0  0  0
   -2.9748   -3.1661   -0.0125 C   0  0  0  0  0  0  0  0  0  0  0  0
   -3.8205   -2.5217    0.2387 H   0  0  0  0  0  0  0  0  0  0  0  0
   -3.0354   -3.4423   -1.0680 H   0  0  0  0  0  0  0  0  0  0  0  0
   -1.6701   -2.4423    0.2614 C   0  0  0  0  0  0  0  0  0  0  0  0
   -0.9065   -2.8701    1.1078 O   0  0  0  0  0  0  0  0  0  0  0  0
   -1.3625   -1.2949   -0.4437 N   0  0  0  0  0  0  0  0  0  0  0  0
   -1.9772   -1.0778   -1.2224 H   0  0  0  0  0  0  0  0  0  0  0  0
   -0.0307   -0.6572   -0.4272 C   0  0  1  0  0  0  0  0  0  0  0  0
    0.6995   -1.4000   -0.7694 H   0  0  0  0  0  0  0  0  0  0  0  0
   -0.0214    0.5511   -1.3865 C   0  0  0  0  0  0  0  0  0  0  0  0
   -1.0440    0.8566   -1.6294 H   0  0  0  0  0  0  0  0  0  0  0  0
    0.4671    1.4140   -0.9198 H   0  0  0  0  0  0  0  0  0  0  0  0
    0.7309    0.2059   -2.6412 C   0  0  0  0  0  0  0  0  0  0  0  0
    2.0972    0.1028   -2.7718 N   0  0  0  0  0  0  0  0  0  0  0  0
    2.7832    0.1991   -2.0230 H   0  0  0  0  0  0  0  0  0  0  0  0
    2.3852   -0.2005   -4.0890 C   0  0  0  0  0  0  0  0  0  0  0  0
    3.3826   -0.3561   -4.4902 H   0  0  0  0  0  0  0  0  0  0  0  0
    1.2761   -0.2756   -4.7872 N   0  0  0  0  0  0  0  0  0  0  0  0
    0.2385   -0.0154   -3.8993 C   0  0  0  0  0  0  0  0  0  0  0  0
   -0.8133    0.0094   -4.1676 H   0  0  0  0  0  0  0  0  0  0  0  0
    0.4558   -0.1981    0.9643 C   0  0  0  0  0  0  0  0  0  0  0  0
    1.6587   -0.1664    1.1943 O   0  0  0  0  0  0  0  0  0  0  0  0
   -0.4088    0.4743    1.8096 N   0  0  0  0  0  0  0  0  0  0  0  0
   -1.3987    0.3420    1.6275 H   0  0  0  0  0  0  0  0  0  0  0  0
   -0.0020    0.9740    3.1171 C   0  0  0  0  0  0  0  0  0  0  0  0
    0.8133    1.6979    3.0152 H   0  0  0  0  0  0  0  0  0  0  0  0
   -0.8429    1.4711    3.6099 H   0  0  0  0  0  0  0  0  0  0  0  0
    0.3365    0.1493    3.7533 H   0  0  0  0  0  0  0  0  0  0  0  0
  1  2  1  0  0  0  0
  2  3  1  0  0  0  0
  2  4  1  0  0  0  0
  2  5  1  0  0  0  0
  5  6  2  0  0  0  0
  5  7  1  0  0  0  0
  7  8  1  0  0  0  0
  7  9  1  0  0  0  0
  9 10  1  0  0  0  0
  9 11  1  0  0  0  0
  9 22  1  0  0  0  0
 11 12  1  0  0  0  0
 11 13  1  0  0  0  0
 11 14  1  0  0  0  0
 14 15  1  0  0  0  0
 14 20  2  0  0  0  0
 15 16  1  0  0  0  0
 15 17  1  0  0  0  0
 17 18  1  0  0  0  0
 17 19  2  0  0  0  0
 19 20  1  0  0  0  0
 20 21  1  0  0  0  0
 22 23  2  0  0  0  0
 22 24  1  0  0  0  0
 24 25  1  0  0  0  0
 24 26  1  0  0  0  0
 26 27  1  0  0  0  0
 26 28  1  0  0  0  0
 26 29  1  0  0  0  0
M  END
$$$$

  -OEChem-03222214043D

 29 29  0     1  0  0  0  0  0999 V2000
   -3.0399   -4.0764    0.5805 H   0  0  0  0  0  0  0  0  0  0  0  0
   -2.9826   -3.1634   -0.0192 C   0  0  0  0  0  0  0  0  0  0  0  0
   -3.8286   -2.5211    0.2363 H   0  0  0  0  0  0  0  0  0  0  0  0
   -3.0439   -3.4343   -1.0761 H   0  0  0  0  0  0  0  0  0  0  0  0
   -1.6779   -2.4399    0.2570 C   0  0  0  0  0  0  0  0  0  0  0  0
   -0.9130   -2.8711    1.1005 O   0  0  0  0  0  0  0  0  0  0  0  0
   -1.3704   -1.2902   -0.4443 N   0  0  0  0  0  0  0  0  0  0  0  0
   -1.9838   -1.0725   -1.2240 H   0  0  0  0  0  0  0  0  0  0  0  0
   -0.0384   -0.6531   -0.4267 C   0  0  1  0  0  0  0  0  0  0  0  0
    0.6870   -1.3999   -0.7681 H   0  0  0  0  0  0  0  0  0  0  0  0
   -0.0316    0.5525   -1.3915 C   0  0  0  0  0  0  0  0  0  0  0  0
   -1.0537    0.8634   -1.6300 H   0  0  0  0  0  0  0  0  0  0  0  0
    0.4619    1.4118   -0.9234 H   0  0  0  0  0  0  0  0  0  0  0  0
    0.7201    0.2179   -2.6510 C   0  0  0  0  0  0  0  0  0  0  0  0
    2.0425   -0.1560   -2.7435 N   0  0  0  0  0  0  0  0  0  0  0  0
    2.6957   -0.2586   -1.9664 H   0  0  0  0  0  0  0  0  0  0  0  0
    2.3421   -0.3673   -4.0759 C   0  0  0  0  0  0  0  0  0  0  0  0
    3.3119   -0.6750   -4.4566 H   0  0  0  0  0  0  0  0  0  0  0  0
    1.2822   -0.1426   -4.8169 N   0  0  0  0  0  0  0  0  0  0  0  0
    0.2667    0.2292   -3.9429 C   0  0  0  0  0  0  0  0  0  0  0  0
   -0.7437    0.4887   -4.2442 H   0  0  0  0  0  0  0  0  0  0  0  0
    0.4544   -0.1973    0.9633 C   0  0  0  0  0  0  0  0  0  0  0  0
    1.6583   -0.1797    1.1895 O   0  0  0  0  0  0  0  0  0  0  0  0
   -0.4033    0.4744    1.8160 N   0  0  0  0  0  0  0  0  0  0  0  0
   -1.3946    0.3466    1.6386 H   0  0  0  0  0  0  0  0  0  0  0  0
    0.0122    0.9673    3.1234 C   0  0  0  0  0  0  0  0  0  0  0  0
    0.8324    1.6856    3.0208 H   0  0  0  0  0  0  0  0  0  0  0  0
   -0.8232    1.4692    3.6208 H   0  0  0  0  0  0  0  0  0  0  0  0
    0.3468    0.1383    3.7559 H   0  0  0  0  0  0  0  0  0  0  0  0
  1  2  1  0  0  0  0
  2  3  1  0  0  0  0
  2  4  1  0  0  0  0
  2  5  1  0  0  0  0
  5  6  2  0  0  0  0
  5  7  1  0  0  0  0
  7  8  1  0  0  0  0
  7  9  1  0  0  0  0
  9 10  1  0  0  0  0
  9 11  1  0  0  0  0
  9 22  1  0  0  0  0
 11 12  1  0  0  0  0
 11 13  1  0  0  0  0
 11 14  1  0  0  0  0
 14 15  1  0  0  0  0
 14 20  2  0  0  0  0
 15 16  1  0  0  0  0
 15 17  1  0  0  0  0
 17 18  1  0  0  0  0
 17 19  2  0  0  0  0
 19 20  1  0  0  0  0
 20 21  1  0  0  0  0
 22 23  2  0  0  0  0
 22 24  1  0  0  0  0
 24 25  1  0  0  0  0
 24 26  1  0  0  0  0
 26 27  1  0  0  0  0
 26 28  1  0  0  0  0
 26 29  1  0  0  0  0
M  END
$$$$

  -OEChem-03222214043D

 29 29  0     1  0  0  0  0  0999 V2000
   -3.0599   -4.0562    0.5973 H   0  0  0  0  0  0  0  0  0  0  0  0
   -2.9909   -3.1498   -0.0109 C   0  0  0  0  0  0  0  0  0  0  0  0
   -3.8300   -2.4954    0.2362 H   0  0  0  0  0  0  0  0  0  0  0  0
   -3.0524   -3.4297   -1.0653 H   0  0  0  0  0  0  0  0  0  0  0  0
   -1.6791   -2.4386    0.2619 C   0  0  0  0  0  0  0  0  0  0  0  0
   -0.9160   -2.8768    1.1034 O   0  0  0  0  0  0  0  0  0  0  0  0
   -1.3612   -1.2938   -0.4426 N   0  0  0  0  0  0  0  0  0  0  0  0
   -1.9727   -1.0708   -1.2224 H   0  0  0  0  0  0  0  0  0  0  0  0
   -0.0272   -0.6618   -0.4197 C   0  0  1  0  0  0  0  0  0  0  0  0
    0.6968   -1.4133   -0.7502 H   0  0  0  0  0  0  0  0  0  0  0  0
   -0.0196    0.5401   -1.3911 C   0  0  0  0  0  0  0  0  0  0  0  0
   -1.0404    0.8603   -1.6221 H   0  0  0  0  0  0  0  0  0  0  0  0
    0.4810    1.3930   -0.9186 H   0  0  0  0  0  0  0  0  0  0  0  0
    0.7304    0.2260   -2.6600 C   0  0  0  0  0  0  0  0  0  0  0  0
    1.9518   -0.4015   -2.7802 N   0  0  0  0  0  0  0  0  0  0  0  0
    2.5496   -0.7084   -2.0127 H   0  0  0  0  0  0  0  0  0  0  0  0
    2.2605   -0.5041   -4.1231 C   0  0  0  0  0  0  0  0  0  0  0  0
    3.1670   -0.9494   -4.5233 H   0  0  0  0  0  0  0  0  0  0  0  0
    1.2971    0.0151   -4.8468 N   0  0  0  0  0  0  0  0  0  0  0  0
    0.3404    0.4760   -3.9492 C   0  0  0  0  0  0  0  0  0  0  0  0
   -0.5888    0.9606   -4.2336 H   0  0  0  0  0  0  0  0  0  0  0  0
    0.4535   -0.2022    0.9729 C   0  0  0  0  0  0  0  0  0  0  0  0
    1.6534   -0.2066    1.2185 O   0  0  0  0  0  0  0  0  0  0  0  0
   -0.4088    0.4758    1.8156 N   0  0  0  0  0  0  0  0  0  0  0  0
   -1.3989    0.3668    1.6205 H   0  0  0  0  0  0  0  0  0  0  0  0
   -0.0060    0.9572    3.1310 C   0  0  0  0  0  0  0  0  0  0  0  0
    0.8216    1.6689    3.0426 H   0  0  0  0  0  0  0  0  0  0  0  0
   -0.8431    1.4631    3.6214 H   0  0  0  0  0  0  0  0  0  0  0  0
    0.3139    0.1215    3.7622 H   0  0  0  0  0  0  0  0  0  0  0  0
  1  2  1  0  0  0  0
  2  3  1  0  0  0  0
  2  4  1  0  0  0  0
  2  5  1  0  0  0  0
  5  6  2  0  0  0  0
  5  7  1  0  0  0  0
  7  8  1  0  0  0  0
  7  9  1  0  0  0  0
  9 10  1  0  0  0  0
  9 11  1  0  0  0  0
  9 22  1  0  0  0  0
 11 12  1  0  0  0  0
 11 13  1  0  0  0  0
 11 14  1  0  0  0  0
 14 15  1  0  0  0  0
 14 20  2  0  0  0  0
 15 16  1  0  0  0  0
 15 17  1  0  0  0  0
 17 18  1  0  0  0  0
 17 19  2  0  0  0  0
 19 20  1  0  0  0  0
 20 21  1  0  0  0  0
 22 23  2  0  0  0  0
 22 24  1  0  0  0  0
 24 25  1  0  0  0  0
 24 26  1  0  0  0  0
 26 27  1  0  0  0  0
 26 28  1  0  0  0  0
 26 29  1  0  0  0  0
M  END
$$$$

  -OEChem-03222214043D

 29 29  0     1  0  0  0  0  0999 V2000
   -3.0748   -4.0508    0.6045 H   0  0  0  0  0  0  0  0  0  0  0  0
   -3.0054   -3.1361    0.0086 C   0  0  0  0  0  0  0  0  0  0  0  0
   -3.8314   -2.4750    0.2816 H   0  0  0  0  0  0  0  0  0  0  0  0
   -3.0906   -3.3995   -1.0485 H   0  0  0  0  0  0  0  0  0  0  0  0
   -1.6799   -2.4453    0.2677 C   0  0  0  0  0  0  0  0  0  0  0  0
   -0.9130   -2.8983    1.0976 O   0  0  0  0  0  0  0  0  0  0  0  0
   -1.3498   -1.3068   -0.4413 N   0  0  0  0  0  0  0  0  0  0  0  0
   -1.9652   -1.0701   -1.2140 H   0  0  0  0  0  0  0  0  0  0  0  0
   -0.0141   -0.6784   -0.4114 C   0  0  1  0  0  0  0  0  0  0  0  0
    0.7121   -1.4330   -0.7264 H   0  0  0  0  0  0  0  0  0  0  0  0
   -0.0013    0.5183   -1.3911 C   0  0  0  0  0  0  0  0  0  0  0  0
   -1.0208    0.8440   -1.6208 H   0  0  0  0  0  0  0  0  0  0  0  0
    0.5008    1.3681   -0.9147 H   0  0  0  0  0  0  0  0  0  0  0  0
    0.7505    0.2228   -2.6665 C   0  0  0  0  0  0  0  0  0  0  0  0
    1.8228   -0.6227   -2.8623 N   0  0  0  0  0  0  0  0  0  0  0  0
    2.3291   -1.1311   -2.1380 H   0  0  0  0  0  0  0  0  0  0  0  0
    2.1566   -0.6065   -4.2030 C   0  0  0  0  0  0  0  0  0  0  0  0
    2.9730   -1.1666   -4.6504 H   0  0  0  0  0  0  0  0  0  0  0  0
    1.3432    0.1861   -4.8590 N   0  0  0  0  0  0  0  0  0  0  0  0
    0.4655    0.7086   -3.9159 C   0  0  0  0  0  0  0  0  0  0  0  0
   -0.3403    1.4005   -4.1422 H   0  0  0  0  0  0  0  0  0  0  0  0
    0.4506   -0.2115    0.9851 C   0  0  0  0  0  0  0  0  0  0  0  0
    1.6450   -0.2329    1.2539 O   0  0  0  0  0  0  0  0  0  0  0  0
   -0.4191    0.4740    1.8145 N   0  0  0  0  0  0  0  0  0  0  0  0
   -1.4070    0.3808    1.6012 H   0  0  0  0  0  0  0  0  0  0  0  0
   -0.0316    0.9601    3.1330 C   0  0  0  0  0  0  0  0  0  0  0  0
    0.8070    1.6601    3.0536 H   0  0  0  0  0  0  0  0  0  0  0  0
   -0.8697    1.4809    3.6057 H   0  0  0  0  0  0  0  0  0  0  0  0
    0.2666    0.1249    3.7755 H   0  0  0  0  0  0  0  0  0  0  0  0
  1  2  1  0  0  0  0
  2  3  1  0  0  0  0
  2  4  1  0  0  0  0
  2  5  1  0  0  0  0
  5  6  2  0  0  0  0
  5  7  1  0  0  0  0
  7  8  1  0  0  0  0
  7  9  1  0  0  0  0
  9 10  1  0  0  0  0
  9 11  1  0  0  0  0
  9 22  1  0  0  0  0
 11 12  1  0  0  0  0
 11 13  1  0  0  0  0
 11 14  1  0  0  0  0
 14 15  1  0  0  0  0
 14 20  2  0  0  0  0
 15 16  1  0  0  0  0
 15 17  1  0  0  0  0
 17 18  1  0  0  0  0
 17 19  2  0  0  0  0
 19 20  1  0  0  0  0
 20 21  1  0  0  0  0
 22 23  2  0  0  0  0
 22 24  1  0  0  0  0
 24 25  1  0  0  0  0
 24 26  1  0  0  0  0
 26 27  1  0  0  0  0
 26 28  1  0  0  0  0
 26 29  1  0  0  0  0
M  END
$$$$

  -OEChem-03222214043D

 29 29  0     1  0  0  0  0  0999 V2000
   -3.1051   -4.0192    0.6517 H   0  0  0  0  0  0  0  0  0  0  0  0
   -3.0165   -3.1202    0.0349 C   0  0  0  0  0  0  0  0  0  0  0  0
   -3.8295   -2.4367    0.2910 H   0  0  0  0  0  0  0  0  0  0  0  0
   -3.1055   -3.4063   -1.0159 H   0  0  0  0  0  0  0  0  0  0  0  0
   -1.6780   -2.4495    0.2801 C   0  0  0  0  0  0  0  0  0  0  0  0
   -0.9086   -2.9132    1.1017 O   0  0  0  0  0  0  0  0  0  0  0  0
   -1.3365   -1.3196   -0.4371 N   0  0  0  0  0  0  0  0  0  0  0  0
   -1.9572   -1.0713   -1.2022 H   0  0  0  0  0  0  0  0  0  0  0  0
    0.0017   -0.6964   -0.4076 C   0  0  1  0  0  0  0  0  0  0  0  0
    0.7323   -1.4506   -0.7111 H   0  0  0  0  0  0  0  0  0  0  0  0
    0.0141    0.4970   -1.3914 C   0  0  0  0  0  0  0  0  0  0  0  0
   -1.0060    0.8239   -1.6170 H   0  0  0  0  0  0  0  0  0  0  0  0
    0.5180    1.3465   -0.9160 H   0  0  0  0  0  0  0  0  0  0  0  0
    0.7592    0.2124   -2.6745 C   0  0  0  0  0  0  0  0  0  0  0  0
    1.6392   -0.8067   -2.9775 N   0  0  0  0  0  0  0  0  0  0  0  0
    1.9971   -1.5071   -2.3295 H   0  0  0  0  0  0  0  0  0  0  0  0
    2.0297   -0.6743   -4.2963 C   0  0  0  0  0  0  0  0  0  0  0  0
    2.7306   -1.3266   -4.8092 H   0  0  0  0  0  0  0  0  0  0  0  0
    1.4293    0.3557   -4.8416 N   0  0  0  0  0  0  0  0  0  0  0  0
    0.6387    0.9155   -3.8450 C   0  0  0  0  0  0  0  0  0  0  0  0
    0.0040    1.7860   -3.9803 H   0  0  0  0  0  0  0  0  0  0  0  0
    0.4519   -0.2212    0.9914 C   0  0  0  0  0  0  0  0  0  0  0  0
    1.6408   -0.2503    1.2813 O   0  0  0  0  0  0  0  0  0  0  0  0
   -0.4267    0.4722    1.8049 N   0  0  0  0  0  0  0  0  0  0  0  0
   -1.4117    0.3865    1.5762 H   0  0  0  0  0  0  0  0  0  0  0  0
   -0.0558    0.9607    3.1272 C   0  0  0  0  0  0  0  0  0  0  0  0
    0.7841    1.6600    3.0568 H   0  0  0  0  0  0  0  0  0  0  0  0
   -0.8998    1.4827    3.5880 H   0  0  0  0  0  0  0  0  0  0  0  0
    0.2338    0.1266    3.7751 H   0  0  0  0  0  0  0  0  0  0  0  0
  1  2  1  0  0  0  0
  2  3  1  0  0  0  0
  2  4  1  0  0  0  0
  2  5  1  0  0  0  0
  5  6  2  0  0  0  0
  5  7  1  0  0  0  0
  7  8  1  0  0  0  0
  7  9  1  0  0  0  0
  9 10  1  0  0  0  0
  9 11  1  0  0  0  0
  9 22  1  0  0  0  0
 11 12  1  0  0  0  0
 11 13  1  0  0  0  0
 11 14  1  0  0  0  0
 14 15  1  0  0  0  0
 14 20  2  0  0  0  0
 15 16  1  0  0  0  0
 15 17  1  0  0  0  0
 17 18  1  0  0  0  0
 17 19  2  0  0  0  0
 19 20  1  0  0  0  0
 20 21  1  0  0  0  0
 22 23  2  0  0  0  0
 22 24  1  0  0  0  0
 24 25  1  0  0  0  0
 24 26  1  0  0  0  0
 26 27  1  0  0  0  0
 26 28  1  0  0  0  0
 26 29  1  0  0  0  0
M  END
$$$$

  -OEChem-03222214043D

 29 29  0     1  0  0  0  0  0999 V2000
   -3.1049   -4.0202    0.6821 H   0  0  0  0  0  0  0  0  0  0  0  0
   -3.0275   -3.1114    0.0784 C   0  0  0  0  0  0  0  0  0  0  0  0
   -3.8192   -2.4212    0.3792 H   0  0  0  0  0  0  0  0  0  0  0  0
   -3.1628   -3.3765   -0.9730 H   0  0  0  0  0  0  0  0  0  0  0  0
   -1.6701   -2.4649    0.2815 C   0  0  0  0  0  0  0  0  0  0  0  0
   -0.8804   -2.9482    1.0717 O   0  0  0  0  0  0  0  0  0  0  0  0
   -1.3330   -1.3362   -0.4397 N   0  0  0  0  0  0  0  0  0  0  0  0
   -1.9783   -1.0605   -1.1744 H   0  0  0  0  0  0  0  0  0  0  0  0
    0.0028   -0.7068   -0.4191 C   0  0  1  0  0  0  0  0  0  0  0  0
    0.7417   -1.4537   -0.7216 H   0  0  0  0  0  0  0  0  0  0  0  0
    0.0059    0.4870   -1.4025 C   0  0  0  0  0  0  0  0  0  0  0  0
   -1.0186    0.7994   -1.6279 H   0  0  0  0  0  0  0  0  0  0  0  0
    0.4981    1.3445   -0.9291 H   0  0  0  0  0  0  0  0  0  0  0  0
    0.7437    0.2078   -2.6916 C   0  0  0  0  0  0  0  0  0  0  0  0
    1.4011   -0.9318   -3.1094 N   0  0  0  0  0  0  0  0  0  0  0  0
    1.5447   -1.7801   -2.5644 H   0  0  0  0  0  0  0  0  0  0  0  0
    1.9082   -0.7096   -4.3756 C   0  0  0  0  0  0  0  0  0  0  0  0
    2.4831   -1.4276   -4.9538 H   0  0  0  0  0  0  0  0  0  0  0  0
    1.5927    0.4964   -4.7807 N   0  0  0  0  0  0  0  0  0  0  0  0
    0.8752    1.0789   -3.7420 C   0  0  0  0  0  0  0  0  0  0  0  0
    0.4695    2.0860   -3.7642 H   0  0  0  0  0  0  0  0  0  0  0  0
    0.4496   -0.2275    0.9802 C   0  0  0  0  0  0  0  0  0  0  0  0
    1.6372   -0.2502    1.2745 O   0  0  0  0  0  0  0  0  0  0  0  0
   -0.4338    0.4620    1.7923 N   0  0  0  0  0  0  0  0  0  0  0  0
   -1.4179    0.3750    1.5609 H   0  0  0  0  0  0  0  0  0  0  0  0
   -0.0669    0.9607    3.1120 C   0  0  0  0  0  0  0  0  0  0  0  0
    0.7731    1.6596    3.0384 H   0  0  0  0  0  0  0  0  0  0  0  0
   -0.9119    1.4863    3.5667 H   0  0  0  0  0  0  0  0  0  0  0  0
    0.2206    0.1319    3.7673 H   0  0  0  0  0  0  0  0  0  0  0  0
  1  2  1  0  0  0  0
  2  3  1  0  0  0  0
  2  4  1  0  0  0  0
  2  5  1  0  0  0  0
  5  6  2  0  0  0  0
  5  7  1  0  0  0  0
  7  8  1  0  0  0  0
  7  9  1  0  0  0  0
  9 10  1  0  0  0  0
  9 11  1  0  0  0  0
  9 22  1  0  0  0  0
 11 12  1  0  0  0  0
 11 13  1  0  0  0  0
 11 14  1  0  0  0  0
 14 15  1  0  0  0  0
 14 20  2  0  0  0  0
 15 16  1  0  0  0  0
 15 17  1  0  0  0  0
 17 18  1  0  0  0  0
 17 19  2  0  0  0  0
 19 20  1  0  0  0  0
 20 21  1  0  0  0  0
 22 23  2  0  0  0  0
 22 24  1  0  0  0  0
 24 25  1  0  0  0  0
 24 26  1  0  0  0  0
 26 27  1  0  0  0  0
 26 28  1  0  0  0  0
 26 29  1  0  0  0  0
M  END
$$$$

  -OEChem-03222214043D

 29 29  0     1  0  0  0  0  0999 V2000
   -3.0974   -4.0164    0.7029 H   0  0  0  0  0  0  0  0  0  0  0  0
   -3.0257   -3.1085    0.0970 C   0  0  0  0  0  0  0  0  0  0  0  0
   -3.8046   -2.4115    0.4149 H   0  0  0  0  0  0  0  0  0  0  0  0
   -3.1865   -3.3728   -0.9509 H   0  0  0  0  0  0  0  0  0  0  0  0
   -1.6587   -2.4737    0.2693 C   0  0  0  0  0  0  0  0  0  0  0  0
   -0.8497   -2.9724    1.0293 O   0  0  0  0  0  0  0  0  0  0  0  0
   -1.3332   -1.3393   -0.4482 N   0  0  0  0  0  0  0  0  0  0  0  0
   -2.0036   -1.0370   -1.1491 H   0  0  0  0  0  0  0  0  0  0  0  0
   -0.0015   -0.6998   -0.4360 C   0  0  1  0  0  0  0  0  0  0  0  0
    0.7442   -1.4360   -0.7506 H   0  0  0  0  0  0  0  0  0  0  0  0
   -0.0145    0.5005   -1.4105 C   0  0  0  0  0  0  0  0  0  0  0  0
   -1.0447    0.7936   -1.6351 H   0  0  0  0  0  0  0  0  0  0  0  0
    0.4646    1.3660   -0.9381 H   0  0  0  0  0  0  0  0  0  0  0  0
    0.7159    0.2238   -2.7033 C   0  0  0  0  0  0  0  0  0  0  0  0
    1.1293   -0.9786   -3.2404 N   0  0  0  0  0  0  0  0  0  0  0  0
    1.0338   -1.8967   -2.8107 H   0  0  0  0  0  0  0  0  0  0  0  0
    1.7701   -0.7275   -4.4389 C   0  0  0  0  0  0  0  0  0  0  0  0
    2.2091   -1.4837   -5.0836 H   0  0  0  0  0  0  0  0  0  0  0  0
    1.7715    0.5594   -4.6874 N   0  0  0  0  0  0  0  0  0  0  0  0
    1.1300    1.1631   -3.6118 C   0  0  0  0  0  0  0  0  0  0  0  0
    0.9761    2.2332   -3.5087 H   0  0  0  0  0  0  0  0  0  0  0  0
    0.4501   -0.2251    0.9636 C   0  0  0  0  0  0  0  0  0  0  0  0
    1.6389   -0.2389    1.2528 O   0  0  0  0  0  0  0  0  0  0  0  0
   -0.4344    0.4527    1.7846 N   0  0  0  0  0  0  0  0  0  0  0  0
   -1.4189    0.3645    1.5562 H   0  0  0  0  0  0  0  0  0  0  0  0
   -0.0630    0.9520    3.1029 C   0  0  0  0  0  0  0  0  0  0  0  0
    0.7685    1.6603    3.0249 H   0  0  0  0  0  0  0  0  0  0  0  0
   -0.9103    1.4669    3.5655 H   0  0  0  0  0  0  0  0  0  0  0  0
    0.2393    0.1246    3.7535 H   0  0  0  0  0  0  0  0  0  0  0  0
  1  2  1  0  0  0  0
  2  3  1  0  0  0  0
  2  4  1  0  0  0  0
  2  5  1  0  0  0  0
  5  6  2  0  0  0  0
  5  7  1  0  0  0  0
  7  8  1  0  0  0  0
  7  9  1  0  0  0  0
  9 10  1  0  0  0  0
  9 11  1  0  0  0  0
  9 22  1  0  0  0  0
 11 12  1  0  0  0  0
 11 13  1  0  0  0  0
 11 14  1  0  0  0  0
 14 15  1  0  0  0  0
 14 20  2  0  0  0  0
 15 16  1  0  0  0  0
 15 17  1  0  0  0  0
 17 18  1  0  0  0  0
 17 19  2  0  0  0  0
 19 20  1  0  0  0  0
 20 21  1  0  0  0  0
 22 23  2  0  0  0  0
 22 24  1  0  0  0  0
 24 25  1  0  0  0  0
 24 26  1  0  0  0  0
 26 27  1  0  0  0  0
 26 28  1  0  0  0  0
 26 29  1  0  0  0  0
M  END
$$$$

  -OEChem-03222214043D

 29 29  0     1  0  0  0  0  0999 V2000
   -3.0755   -4.0127    0.6991 H   0  0  0  0  0  0  0  0  0  0  0  0
   -3.0145   -3.0982    0.1021 C   0  0  0  0  0  0  0  0  0  0  0  0
   -3.7784   -2.3995    0.4515 H   0  0  0  0  0  0  0  0  0  0  0  0
   -3.2082   -3.3487   -0.9435 H   0  0  0  0  0  0  0  0  0  0  0  0
   -1.6378   -2.4762    0.2418 C   0  0  0  0  0  0  0  0  0  0  0  0
   -0.8098   -2.9922    0.9690 O   0  0  0  0  0  0  0  0  0  0  0  0
   -1.3266   -1.3311   -0.4647 N   0  0  0  0  0  0  0  0  0  0  0  0
   -2.0248   -0.9940   -1.1209 H   0  0  0  0  0  0  0  0  0  0  0  0
   -0.0013   -0.6783   -0.4542 C   0  0  1  0  0  0  0  0  0  0  0  0
    0.7514   -1.4017   -0.7853 H   0  0  0  0  0  0  0  0  0  0  0  0
   -0.0293    0.5302   -1.4164 C   0  0  0  0  0  0  0  0  0  0  0  0
   -1.0629    0.8108   -1.6413 H   0  0  0  0  0  0  0  0  0  0  0  0
    0.4397    1.3994   -0.9407 H   0  0  0  0  0  0  0  0  0  0  0  0
    0.7017    0.2527   -2.7069 C   0  0  0  0  0  0  0  0  0  0  0  0
    0.8683   -0.9482   -3.3650 N   0  0  0  0  0  0  0  0  0  0  0  0
    0.5445   -1.8599   -3.0487 H   0  0  0  0  0  0  0  0  0  0  0  0
    1.6259   -0.7244   -4.4994 C   0  0  0  0  0  0  0  0  0  0  0  0
    1.9253   -1.4876   -5.2121 H   0  0  0  0  0  0  0  0  0  0  0  0
    1.9321    0.5466   -4.5931 N   0  0  0  0  0  0  0  0  0  0  0  0
    1.3748    1.1640   -3.4785 C   0  0  0  0  0  0  0  0  0  0  0  0
    1.4601    2.2231   -3.2538 H   0  0  0  0  0  0  0  0  0  0  0  0
    0.4521   -0.2152    0.9488 C   0  0  0  0  0  0  0  0  0  0  0  0
    1.6419   -0.2152    1.2334 O   0  0  0  0  0  0  0  0  0  0  0  0
   -0.4367    0.4437    1.7806 N   0  0  0  0  0  0  0  0  0  0  0  0
   -1.4209    0.3464    1.5551 H   0  0  0  0  0  0  0  0  0  0  0  0
   -0.0668    0.9283    3.1048 C   0  0  0  0  0  0  0  0  0  0  0  0
    0.7551    1.6486    3.0340 H   0  0  0  0  0  0  0  0  0  0  0  0
   -0.9191    1.4248    3.5781 H   0  0  0  0  0  0  0  0  0  0  0  0
    0.2484    0.0954    3.7422 H   0  0  0  0  0  0  0  0  0  0  0  0
  1  2  1  0  0  0  0
  2  3  1  0  0  0  0
  2  4  1  0  0  0  0
  2  5  1  0  0  0  0
  5  6  2  0  0  0  0
  5  7  1  0  0  0  0
  7  8  1  0  0  0  0
  7  9  1  0  0  0  0
  9 10  1  0  0  0  0
  9 11  1  0  0  0  0
  9 22  1  0  0  0  0
 11 12  1  0  0  0  0
 11 13  1  0  0  0  0
 11 14  1  0  0  0  0
 14 15  1  0  0  0  0
 14 20  2  0  0  0  0
 15 16  1  0  0  0  0
 15 17  1  0  0  0  0
 17 18  1  0  0  0  0
 17 19  2  0  0  0  0
 19 20  1  0  0  0  0
 20 21  1  0  0  0  0
 22 23  2  0  0  0  0
 22 24  1  0  0  0  0
 24 25  1  0  0  0  0
 24 26  1  0  0  0  0
 26 27  1  0  0  0  0
 26 28  1  0  0  0  0
 26 29  1  0  0  0  0
M  END
$$$$

  -OEChem-03222214043D

 29 29  0     1  0  0  0  0  0999 V2000
   -3.0592   -4.0147    0.6750 H   0  0  0  0  0  0  0  0  0  0  0  0
   -3.0036   -3.0962    0.0835 C   0  0  0  0  0  0  0  0  0  0  0  0
   -3.7661   -2.4008    0.4426 H   0  0  0  0  0  0  0  0  0  0  0  0
   -3.2043   -3.3403   -0.9624 H   0  0  0  0  0  0  0  0  0  0  0  0
   -1.6269   -2.4732    0.2180 C   0  0  0  0  0  0  0  0  0  0  0  0
   -0.7929   -2.9953    0.9336 O   0  0  0  0  0  0  0  0  0  0  0  0
   -1.3242   -1.3184   -0.4768 N   0  0  0  0  0  0  0  0  0  0  0  0
   -2.0353   -0.9631   -1.1087 H   0  0  0  0  0  0  0  0  0  0  0  0
   -0.0022   -0.6581   -0.4620 C   0  0  1  0  0  0  0  0  0  0  0  0
    0.7521   -1.3745   -0.8068 H   0  0  0  0  0  0  0  0  0  0  0  0
   -0.0352    0.5570   -1.4137 C   0  0  0  0  0  0  0  0  0  0  0  0
   -1.0679    0.8386   -1.6408 H   0  0  0  0  0  0  0  0  0  0  0  0
    0.4328    1.4239   -0.9327 H   0  0  0  0  0  0  0  0  0  0  0  0
    0.7020    0.2745   -2.6977 C   0  0  0  0  0  0  0  0  0  0  0  0
    0.6374   -0.8536   -3.4882 N   0  0  0  0  0  0  0  0  0  0  0  0
    0.1096   -1.7008   -3.2904 H   0  0  0  0  0  0  0  0  0  0  0  0
    1.4862   -0.6796   -4.5657 C   0  0  0  0  0  0  0  0  0  0  0  0
    1.6515   -1.4074   -5.3549 H   0  0  0  0  0  0  0  0  0  0  0  0
    2.0652    0.4943   -4.4991 N   0  0  0  0  0  0  0  0  0  0  0  0
    1.5955    1.0949   -3.3359 C   0  0  0  0  0  0  0  0  0  0  0  0
    1.8933    2.0787   -2.9855 H   0  0  0  0  0  0  0  0  0  0  0  0
    0.4538   -0.2069    0.9441 C   0  0  0  0  0  0  0  0  0  0  0  0
    1.6449   -0.1979    1.2230 O   0  0  0  0  0  0  0  0  0  0  0  0
   -0.4360    0.4384    1.7856 N   0  0  0  0  0  0  0  0  0  0  0  0
   -1.4204    0.3395    1.5623 H   0  0  0  0  0  0  0  0  0  0  0  0
   -0.0635    0.9160    3.1118 C   0  0  0  0  0  0  0  0  0  0  0  0
    0.7491    1.6470    3.0426 H   0  0  0  0  0  0  0  0  0  0  0  0
   -0.9188    1.3978    3.5947 H   0  0  0  0  0  0  0  0  0  0  0  0
    0.2663    0.0814    3.7397 H   0  0  0  0  0  0  0  0  0  0  0  0
  1  2  1  0  0  0  0
  2  3  1  0  0  0  0
  2  4  1  0  0  0  0
  2  5  1  0  0  0  0
  5  6  2  0  0  0  0
  5  7  1  0  0  0  0
  7  8  1  0  0  0  0
  7  9  1  0  0  0  0
  9 10  1  0  0  0  0
  9 11  1  0  0  0  0
  9 22  1  0  0  0  0
 11 12  1  0  0  0  0
 11 13  1  0  0  0  0
 11 14  1  0  0  0  0
 14 15  1  0  0  0  0
 14 20  2  0  0  0  0
 15 16  1  0  0  0  0
 15 17  1  0  0  0  0
 17 18  1  0  0  0  0
 17 19  2  0  0  0  0
 19 20  1  0  0  0  0
 20 21  1  0  0  0  0
 22 23  2  0  0  0  0
 22 24  1  0  0  0  0
 24 25  1  0  0  0  0
 24 26  1  0  0  0  0
 26 27  1  0  0  0  0
 26 28  1  0  0  0  0
 26 29  1  0  0  0  0
M  END
$$$$

  -OEChem-03222214043D

 29 29  0     1  0  0  0  0  0999 V2000
   -3.0506   -4.0182    0.6494 H   0  0  0  0  0  0  0  0  0  0  0  0
   -2.9964   -3.0972    0.0620 C   0  0  0  0  0  0  0  0  0  0  0  0
   -3.7651   -2.4076    0.4186 H   0  0  0  0  0  0  0  0  0  0  0  0
   -3.1884   -3.3383   -0.9861 H   0  0  0  0  0  0  0  0  0  0  0  0
   -1.6241   -2.4671    0.2075 C   0  0  0  0  0  0  0  0  0  0  0  0
   -0.7943   -2.9846    0.9311 O   0  0  0  0  0  0  0  0  0  0  0  0
   -1.3248   -1.3072   -0.4802 N   0  0  0  0  0  0  0  0  0  0  0  0
   -2.0369   -0.9493   -1.1089 H   0  0  0  0  0  0  0  0  0  0  0  0
   -0.0039   -0.6447   -0.4622 C   0  0  1  0  0  0  0  0  0  0  0  0
    0.7485   -1.3596   -0.8151 H   0  0  0  0  0  0  0  0  0  0  0  0
   -0.0349    0.5737   -1.4084 C   0  0  0  0  0  0  0  0  0  0  0  0
   -1.0651    0.8636   -1.6367 H   0  0  0  0  0  0  0  0  0  0  0  0
    0.4379    1.4351   -0.9223 H   0  0  0  0  0  0  0  0  0  0  0  0
    0.7081    0.2845   -2.6869 C   0  0  0  0  0  0  0  0  0  0  0  0
    0.4482   -0.6999   -3.6161 N   0  0  0  0  0  0  0  0  0  0  0  0
   -0.2614   -1.4252   -3.5475 H   0  0  0  0  0  0  0  0  0  0  0  0
    1.3729   -0.5883   -4.6380 C   0  0  0  0  0  0  0  0  0  0  0  0
    1.4236   -1.2358   -5.5086 H   0  0  0  0  0  0  0  0  0  0  0  0
    2.1828    0.4156   -4.4065 N   0  0  0  0  0  0  0  0  0  0  0  0
    1.7859    0.9645   -3.1917 C   0  0  0  0  0  0  0  0  0  0  0  0
    2.2615    1.8157   -2.7137 H   0  0  0  0  0  0  0  0  0  0  0  0
    0.4550   -0.2015    0.9451 C   0  0  0  0  0  0  0  0  0  0  0  0
    1.6477   -0.1828    1.2169 O   0  0  0  0  0  0  0  0  0  0  0  0
   -0.4343    0.4373    1.7921 N   0  0  0  0  0  0  0  0  0  0  0  0
   -1.4193    0.3270    1.5766 H   0  0  0  0  0  0  0  0  0  0  0  0
   -0.0574    0.9122    3.1180 C   0  0  0  0  0  0  0  0  0  0  0  0
    0.7514    1.6473    3.0472 H   0  0  0  0  0  0  0  0  0  0  0  0
   -0.9124    1.3885    3.6071 H   0  0  0  0  0  0  0  0  0  0  0  0
    0.2795    0.0770    3.7411 H   0  0  0  0  0  0  0  0  0  0  0  0
  1  2  1  0  0  0  0
  2  3  1  0  0  0  0
  2  4  1  0  0  0  0
  2  5  1  0  0  0  0
  5  6  2  0  0  0  0
  5  7  1  0  0  0  0
  7  8  1  0  0  0  0
  7  9  1  0  0  0  0
  9 10  1  0  0  0  0
  9 11  1  0  0  0  0
  9 22  1  0  0  0  0
 11 12  1  0  0  0  0
 11 13  1  0  0  0  0
 11 14  1  0  0  0  0
 14 15  1  0  0  0  0
 14 20  2  0  0  0  0
 15 16  1  0  0  0  0
 15 17  1  0  0  0  0
 17 18  1  0  0  0  0
 17 19  2  0  0  0  0
 19 20  1  0  0  0  0
 20 21  1  0  0  0  0
 22 23  2  0  0  0  0
 22 24  1  0  0  0  0
 24 25  1  0  0  0  0
 24 26  1  0  0  0  0
 26 27  1  0  0  0  0
 26 28  1  0  0  0  0
 26 29  1  0  0  0  0
M  END
$$$$

  -OEChem-03222214043D

 29 29  0     1  0  0  0  0  0999 V2000
   -3.0447   -4.0258    0.6267 H   0  0  0  0  0  0  0  0  0  0  0  0
   -2.9898   -3.1055    0.0378 C   0  0  0  0  0  0  0  0  0  0  0  0
   -3.7769   -2.4262    0.3736 H   0  0  0  0  0  0  0  0  0  0  0  0
   -3.1524   -3.3523   -1.0139 H   0  0  0  0  0  0  0  0  0  0  0  0
   -1.6308   -2.4553    0.2151 C   0  0  0  0  0  0  0  0  0  0  0  0
   -0.8165   -2.9533    0.9695 O   0  0  0  0  0  0  0  0  0  0  0  0
   -1.3298   -1.2962   -0.4736 N   0  0  0  0  0  0  0  0  0  0  0  0
   -2.0218   -0.9679   -1.1392 H   0  0  0  0  0  0  0  0  0  0  0  0
   -0.0062   -0.6394   -0.4564 C   0  0  1  0  0  0  0  0  0  0  0  0
    0.7417   -1.3581   -0.8120 H   0  0  0  0  0  0  0  0  0  0  0  0
   -0.0300    0.5811   -1.4002 C   0  0  0  0  0  0  0  0  0  0  0  0
   -1.0559    0.8876   -1.6243 H   0  0  0  0  0  0  0  0  0  0  0  0
    0.4567    1.4342   -0.9130 H   0  0  0  0  0  0  0  0  0  0  0  0
    0.7121    0.2859   -2.6771 C   0  0  0  0  0  0  0  0  0  0  0  0
    0.3032   -0.4923   -3.7388 N   0  0  0  0  0  0  0  0  0  0  0  0
   -0.5565   -1.0315   -3.8004 H   0  0  0  0  0  0  0  0  0  0  0  0
    1.2876   -0.4555   -4.7089 C   0  0  0  0  0  0  0  0  0  0  0  0
    1.2491   -0.9810   -5.6588 H   0  0  0  0  0  0  0  0  0  0  0  0
    2.2777    0.3091   -4.3189 N   0  0  0  0  0  0  0  0  0  0  0  0
    1.9354    0.7763   -3.0540 C   0  0  0  0  0  0  0  0  0  0  0  0
    2.5490    1.4414   -2.4535 H   0  0  0  0  0  0  0  0  0  0  0  0
    0.4571   -0.1980    0.9502 C   0  0  0  0  0  0  0  0  0  0  0  0
    1.6510   -0.1800    1.2175 O   0  0  0  0  0  0  0  0  0  0  0  0
   -0.4282    0.4446    1.7984 N   0  0  0  0  0  0  0  0  0  0  0  0
   -1.4138    0.3303    1.5875 H   0  0  0  0  0  0  0  0  0  0  0  0
   -0.0475    0.9159    3.1243 C   0  0  0  0  0  0  0  0  0  0  0  0
    0.7613    1.6509    3.0532 H   0  0  0  0  0  0  0  0  0  0  0  0
   -0.9012    1.3912    3.6167 H   0  0  0  0  0  0  0  0  0  0  0  0
    0.2906    0.0790    3.7446 H   0  0  0  0  0  0  0  0  0  0  0  0
  1  2  1  0  0  0  0
  2  3  1  0  0  0  0
  2  4  1  0  0  0  0
  2  5  1  0  0  0  0
  5  6  2  0  0  0  0
  5  7  1  0  0  0  0
  7  8  1  0  0  0  0
  7  9  1  0  0  0  0
  9 10  1  0  0  0  0
  9 11  1  0  0  0  0
  9 22  1  0  0  0  0
 11 12  1  0  0  0  0
 11 13  1  0  0  0  0
 11 14  1  0  0  0  0
 14 15  1  0  0  0  0
 14 20  2  0  0  0  0
 15 16  1  0  0  0  0
 15 17  1  0  0  0  0
 17 18  1  0  0  0  0
 17 19  2  0  0  0  0
 19 20  1  0  0  0  0
 20 21  1  0  0  0  0
 22 23  2  0  0  0  0
 22 24  1  0  0  0  0
 24 25  1  0  0  0  0
 24 26  1  0  0  0  0
 26 27  1  0  0  0  0
 26 28  1  0  0  0  0
 26 29  1  0  0  0  0
M  END
$$$$

  -OEChem-03222214043D

 29 29  0     1  0  0  0  0  0999 V2000
   -3.0394   -4.0361    0.6023 H   0  0  0  0  0  0  0  0  0  0  0  0
   -2.9794   -3.1218    0.0046 C   0  0  0  0  0  0  0  0  0  0  0  0
   -3.7945   -2.4561    0.2979 H   0  0  0  0  0  0  0  0  0  0  0  0
   -3.0920   -3.3846   -1.0499 H   0  0  0  0  0  0  0  0  0  0  0  0
   -1.6437   -2.4390    0.2311 C   0  0  0  0  0  0  0  0  0  0  0  0
   -0.8544   -2.9073    1.0301 O   0  0  0  0  0  0  0  0  0  0  0  0
   -1.3388   -1.2832   -0.4617 N   0  0  0  0  0  0  0  0  0  0  0  0
   -1.9969   -1.0038   -1.1815 H   0  0  0  0  0  0  0  0  0  0  0  0
   -0.0107   -0.6357   -0.4474 C   0  0  1  0  0  0  0  0  0  0  0  0
    0.7307   -1.3606   -0.8039 H   0  0  0  0  0  0  0  0  0  0  0  0
   -0.0258    0.5874   -1.3889 C   0  0  0  0  0  0  0  0  0  0  0  0
   -1.0484    0.9101   -1.6058 H   0  0  0  0  0  0  0  0  0  0  0  0
    0.4761    1.4317   -0.9022 H   0  0  0  0  0  0  0  0  0  0  0  0
    0.7111    0.2889   -2.6679 C   0  0  0  0  0  0  0  0  0  0  0  0
    0.2076   -0.2364   -3.8386 N   0  0  0  0  0  0  0  0  0  0  0  0
   -0.7520   -0.5244   -4.0121 H   0  0  0  0  0  0  0  0  0  0  0  0
    1.2348   -0.3021   -4.7620 C   0  0  0  0  0  0  0  0  0  0  0  0
    1.1402   -0.6787   -5.7764 H   0  0  0  0  0  0  0  0  0  0  0  0
    2.3432    0.1601   -4.2382 N   0  0  0  0  0  0  0  0  0  0  0  0
    2.0337    0.5344   -2.9344 C   0  0  0  0  0  0  0  0  0  0  0  0
    2.7389    0.9659   -2.2299 H   0  0  0  0  0  0  0  0  0  0  0  0
    0.4589   -0.1947    0.9573 C   0  0  0  0  0  0  0  0  0  0  0  0
    1.6549   -0.1735    1.2153 O   0  0  0  0  0  0  0  0  0  0  0  0
   -0.4203    0.4558    1.8056 N   0  0  0  0  0  0  0  0  0  0  0  0
   -1.4070    0.3297    1.6057 H   0  0  0  0  0  0  0  0  0  0  0  0
   -0.0321    0.9252    3.1299 C   0  0  0  0  0  0  0  0  0  0  0  0
    0.7797    1.6566    3.0549 H   0  0  0  0  0  0  0  0  0  0  0  0
   -0.8817    1.4040    3.6256 H   0  0  0  0  0  0  0  0  0  0  0  0
    0.3050    0.0870    3.7489 H   0  0  0  0  0  0  0  0  0  0  0  0
  1  2  1  0  0  0  0
  2  3  1  0  0  0  0
  2  4  1  0  0  0  0
  2  5  1  0  0  0  0
  5  6  2  0  0  0  0
  5  7  1  0  0  0  0
  7  8  1  0  0  0  0
  7  9  1  0  0  0  0
  9 10  1  0  0  0  0
  9 11  1  0  0  0  0
  9 22  1  0  0  0  0
 11 12  1  0  0  0  0
 11 13  1  0  0  0  0
 11 14  1  0  0  0  0
 14 15  1  0  0  0  0
 14 20  2  0  0  0  0
 15 16  1  0  0  0  0
 15 17  1  0  0  0  0
 17 18  1  0  0  0  0
 17 19  2  0  0  0  0
 19 20  1  0  0  0  0
 20 21  1  0  0  0  0
 22 23  2  0  0  0  0
 22 24  1  0  0  0  0
 24 25  1  0  0  0  0
 24 26  1  0  0  0  0
 26 27  1  0  0  0  0
 26 28  1  0  0  0  0
 26 29  1  0  0  0  0
M  END
$$$$

  -OEChem-03222214043D

 29 29  0     1  0  0  0  0  0999 V2000
   -3.0217   -4.0535    0.5643 H   0  0  0  0  0  0  0  0  0  0  0  0
   -2.9673   -3.1325   -0.0233 C   0  0  0  0  0  0  0  0  0  0  0  0
   -3.8007   -2.4851    0.2596 H   0  0  0  0  0  0  0  0  0  0  0  0
   -3.0531   -3.3871   -1.0823 H   0  0  0  0  0  0  0  0  0  0  0  0
   -1.6497   -2.4271    0.2363 C   0  0  0  0  0  0  0  0  0  0  0  0
   -0.8781   -2.8764    1.0631 O   0  0  0  0  0  0  0  0  0  0  0  0
   -1.3436   -1.2721   -0.4573 N   0  0  0  0  0  0  0  0  0  0  0  0
   -1.9732   -1.0306   -1.2157 H   0  0  0  0  0  0  0  0  0  0  0  0
   -0.0134   -0.6299   -0.4398 C   0  0  1  0  0  0  0  0  0  0  0  0
    0.7240   -1.3588   -0.7958 H   0  0  0  0  0  0  0  0  0  0  0  0
   -0.0262    0.5945   -1.3808 C   0  0  0  0  0  0  0  0  0  0  0  0
   -1.0488    0.9195   -1.5950 H   0  0  0  0  0  0  0  0  0  0  0  0
    0.4787    1.4386   -0.8963 H   0  0  0  0  0  0  0  0  0  0  0  0
    0.7097    0.2966   -2.6603 C   0  0  0  0  0  0  0  0  0  0  0  0
    0.1793    0.0454   -3.9072 N   0  0  0  0  0  0  0  0  0  0  0  0
   -0.8068    0.0201   -4.1541 H   0  0  0  0  0  0  0  0  0  0  0  0
    1.2241   -0.1417   -4.7933 C   0  0  0  0  0  0  0  0  0  0  0  0
    1.1141   -0.3581   -5.8521 H   0  0  0  0  0  0  0  0  0  0  0  0
    2.3709   -0.0172   -4.1722 N   0  0  0  0  0  0  0  0  0  0  0  0
    2.0686    0.2603   -2.8426 C   0  0  0  0  0  0  0  0  0  0  0  0
    2.8042    0.4281   -2.0610 H   0  0  0  0  0  0  0  0  0  0  0  0
    0.4595   -0.1892    0.9638 C   0  0  0  0  0  0  0  0  0  0  0  0
    1.6567   -0.1721    1.2168 O   0  0  0  0  0  0  0  0  0  0  0  0
   -0.4147    0.4661    1.8136 N   0  0  0  0  0  0  0  0  0  0  0  0
   -1.4022    0.3387    1.6182 H   0  0  0  0  0  0  0  0  0  0  0  0
   -0.0205    0.9327    3.1375 C   0  0  0  0  0  0  0  0  0  0  0  0
    0.7975    1.6567    3.0615 H   0  0  0  0  0  0  0  0  0  0  0  0
   -0.8645    1.4196    3.6351 H   0  0  0  0  0  0  0  0  0  0  0  0
    0.3100    0.0915    3.7560 H   0  0  0  0  0  0  0  0  0  0  0  0
  1  2  1  0  0  0  0
  2  3  1  0  0  0  0
  2  4  1  0  0  0  0
  2  5  1  0  0  0  0
  5  6  2  0  0  0  0
  5  7  1  0  0  0  0
  7  8  1  0  0  0  0
  7  9  1  0  0  0  0
  9 10  1  0  0  0  0
  9 11  1  0  0  0  0
  9 22  1  0  0  0  0
 11 12  1  0  0  0  0
 11 13  1  0  0  0  0
 11 14  1  0  0  0  0
 14 15  1  0  0  0  0
 14 20  2  0  0  0  0
 15 16  1  0  0  0  0
 15 17  1  0  0  0  0
 17 18  1  0  0  0  0
 17 19  2  0  0  0  0
 19 20  1  0  0  0  0
 20 21  1  0  0  0  0
 22 23  2  0  0  0  0
 22 24  1  0  0  0  0
 24 25  1  0  0  0  0
 24 26  1  0  0  0  0
 26 27  1  0  0  0  0
 26 28  1  0  0  0  0
 26 29  1  0  0  0  0
M  END
$$$$

  -OEChem-03222214043D

 29 29  0     1  0  0  0  0  0999 V2000
   -3.0139   -4.0613    0.5538 H   0  0  0  0  0  0  0  0  0  0  0  0
   -2.9583   -3.1423   -0.0368 C   0  0  0  0  0  0  0  0  0  0  0  0
   -3.8044   -2.5034    0.2269 H   0  0  0  0  0  0  0  0  0  0  0  0
   -3.0207   -3.4031   -1.0959 H   0  0  0  0  0  0  0  0  0  0  0  0
   -1.6541   -2.4207    0.2456 C   0  0  0  0  0  0  0  0  0  0  0  0
   -0.8985   -2.8532    1.0960 O   0  0  0  0  0  0  0  0  0  0  0  0
   -1.3427   -1.2693   -0.4520 N   0  0  0  0  0  0  0  0  0  0  0  0
   -1.9502   -1.0530   -1.2358 H   0  0  0  0  0  0  0  0  0  0  0  0
   -0.0099   -0.6325   -0.4296 C   0  0  1  0  0  0  0  0  0  0  0  0
    0.7241   -1.3678   -0.7781 H   0  0  0  0  0  0  0  0  0  0  0  0
   -0.0136    0.5917   -1.3731 C   0  0  0  0  0  0  0  0  0  0  0  0
   -1.0378    0.9110   -1.5886 H   0  0  0  0  0  0  0  0  0  0  0  0
    0.4862    1.4383   -0.8883 H   0  0  0  0  0  0  0  0  0  0  0  0
    0.7234    0.3059   -2.6561 C   0  0  0  0  0  0  0  0  0  0  0  0
    0.2264    0.3457   -3.9409 N   0  0  0  0  0  0  0  0  0  0  0  0
   -0.7207    0.5928   -4.2177 H   0  0  0  0  0  0  0  0  0  0  0  0
    1.2523    0.0339   -4.8139 C   0  0  0  0  0  0  0  0  0  0  0  0
    1.1609   -0.0115   -5.8953 H   0  0  0  0  0  0  0  0  0  0  0  0
    2.3565   -0.1985   -4.1485 N   0  0  0  0  0  0  0  0  0  0  0  0
    2.0464   -0.0278   -2.8030 C   0  0  0  0  0  0  0  0  0  0  0  0
    2.7524   -0.1416   -1.9851 H   0  0  0  0  0  0  0  0  0  0  0  0
    0.4598   -0.1878    0.9739 C   0  0  0  0  0  0  0  0  0  0  0  0
    1.6564   -0.1761    1.2307 O   0  0  0  0  0  0  0  0  0  0  0  0
   -0.4148    0.4750    1.8173 N   0  0  0  0  0  0  0  0  0  0  0  0
   -1.4019    0.3436    1.6219 H   0  0  0  0  0  0  0  0  0  0  0  0
   -0.0239    0.9404    3.1423 C   0  0  0  0  0  0  0  0  0  0  0  0
    0.7996    1.6587    3.0694 H   0  0  0  0  0  0  0  0  0  0  0  0
   -0.8671    1.4337    3.6350 H   0  0  0  0  0  0  0  0  0  0  0  0
    0.2975    0.0974    3.7631 H   0  0  0  0  0  0  0  0  0  0  0  0
  1  2  1  0  0  0  0
  2  3  1  0  0  0  0
  2  4  1  0  0  0  0
  2  5  1  0  0  0  0
  5  6  2  0  0  0  0
  5  7  1  0  0  0  0
  7  8  1  0  0  0  0
  7  9  1  0  0  0  0
  9 10  1  0  0  0  0
  9 11  1  0  0  0  0
  9 22  1  0  0  0  0
 11 12  1  0  0  0  0
 11 13  1  0  0  0  0
 11 14  1  0  0  0  0
 14 15  1  0  0  0  0
 14 20  2  0  0  0  0
 15 16  1  0  0  0  0
 15 17  1  0  0  0  0
 17 18  1  0  0  0  0
 17 19  2  0  0  0  0
 19 20  1  0  0  0  0
 20 21  1  0  0  0  0
 22 23  2  0  0  0  0
 22 24  1  0  0  0  0
 24 25  1  0  0  0  0
 24 26  1  0  0  0  0
 26 27  1  0  0  0  0
 26 28  1  0  0  0  0
 26 29  1  0  0  0  0
M  END
$$$$

  -OEChem-03222214043D

 29 29  0     1  0  0  0  0  0999 V2000
   -3.0537   -4.0318    0.5887 H   0  0  0  0  0  0  0  0  0  0  0  0
   -2.9566   -3.1485   -0.0494 C   0  0  0  0  0  0  0  0  0  0  0  0
   -3.8074   -2.4878    0.1329 H   0  0  0  0  0  0  0  0  0  0  0  0
   -2.9671   -3.4682   -1.0942 H   0  0  0  0  0  0  0  0  0  0  0  0
   -1.6598   -2.4236    0.2584 C   0  0  0  0  0  0  0  0  0  0  0  0
   -0.9224   -2.8483    1.1286 O   0  0  0  0  0  0  0  0  0  0  0  0
   -1.3326   -1.2800   -0.4448 N   0  0  0  0  0  0  0  0  0  0  0  0
   -1.9228   -1.0765   -1.2456 H   0  0  0  0  0  0  0  0  0  0  0  0
    0.0043   -0.6517   -0.4117 C   0  0  1  0  0  0  0  0  0  0  0  0
    0.7353   -1.3962   -0.7432 H   0  0  0  0  0  0  0  0  0  0  0  0
    0.0125    0.5705   -1.3608 C   0  0  0  0  0  0  0  0  0  0  0  0
   -1.0132    0.8800   -1.5824 H   0  0  0  0  0  0  0  0  0  0  0  0
    0.5004    1.4226   -0.8733 H   0  0  0  0  0  0  0  0  0  0  0  0
    0.7530    0.3034   -2.6478 C   0  0  0  0  0  0  0  0  0  0  0  0
    0.3394    0.6328   -3.9207 N   0  0  0  0  0  0  0  0  0  0  0  0
   -0.5136    1.1276   -4.1707 H   0  0  0  0  0  0  0  0  0  0  0  0
    1.3068    0.2179   -4.8167 C   0  0  0  0  0  0  0  0  0  0  0  0
    1.2573    0.3455   -5.8943 H   0  0  0  0  0  0  0  0  0  0  0  0
    2.2970   -0.3540   -4.1778 N   0  0  0  0  0  0  0  0  0  0  0  0
    1.9725   -0.3021   -2.8260 C   0  0  0  0  0  0  0  0  0  0  0  0
    2.5988   -0.6862   -2.0257 H   0  0  0  0  0  0  0  0  0  0  0  0
    0.4615   -0.1979    0.9928 C   0  0  0  0  0  0  0  0  0  0  0  0
    1.6553   -0.1919    1.2625 O   0  0  0  0  0  0  0  0  0  0  0  0
   -0.4176    0.4780    1.8208 N   0  0  0  0  0  0  0  0  0  0  0  0
   -1.4036    0.3493    1.6181 H   0  0  0  0  0  0  0  0  0  0  0  0
   -0.0362    0.9587    3.1431 C   0  0  0  0  0  0  0  0  0  0  0  0
    0.7924    1.6709    3.0684 H   0  0  0  0  0  0  0  0  0  0  0  0
   -0.8814    1.4638    3.6202 H   0  0  0  0  0  0  0  0  0  0  0  0
    0.2744    0.1227    3.7787 H   0  0  0  0  0  0  0  0  0  0  0  0
  1  2  1  0  0  0  0
  2  3  1  0  0  0  0
  2  4  1  0  0  0  0
  2  5  1  0  0  0  0
  5  6  2  0  0  0  0
  5  7  1  0  0  0  0
  7  8  1  0  0  0  0
  7  9  1  0  0  0  0
  9 10  1  0  0  0  0
  9 11  1  0  0  0  0
  9 22  1  0  0  0  0
 11 12  1  0  0  0  0
 11 13  1  0  0  0  0
 11 14  1  0  0  0  0
 14 15  1  0  0  0  0
 14 20  2  0  0  0  0
 15 16  1  0  0  0  0
 15 17  1  0  0  0  0
 17 18  1  0  0  0  0
 17 19  2  0  0  0  0
 19 20  1  0  0  0  0
 20 21  1  0  0  0  0
 22 23  2  0  0  0  0
 22 24  1  0  0  0  0
 24 25  1  0  0  0  0
 24 26  1  0  0  0  0
 26 27  1  0  0  0  0
 26 28  1  0  0  0  0
 26 29  1  0  0  0  0
M  END
$$$$

  -OEChem-03222214043D

 29 29  0     1  0  0  0  0  0999 V2000
   -3.0601   -4.0399    0.5837 H   0  0  0  0  0  0  0  0  0  0  0  0
   -2.9672   -3.1420   -0.0343 C   0  0  0  0  0  0  0  0  0  0  0  0
   -3.8135   -2.4829    0.1729 H   0  0  0  0  0  0  0  0  0  0  0  0
   -2.9910   -3.4370   -1.0861 H   0  0  0  0  0  0  0  0  0  0  0  0
   -1.6648   -2.4281    0.2755 C   0  0  0  0  0  0  0  0  0  0  0  0
   -0.9386   -2.8512    1.1558 O   0  0  0  0  0  0  0  0  0  0  0  0
   -1.3194   -1.2959   -0.4371 N   0  0  0  0  0  0  0  0  0  0  0  0
   -1.9011   -1.0931   -1.2444 H   0  0  0  0  0  0  0  0  0  0  0  0
    0.0206   -0.6748   -0.3950 C   0  0  1  0  0  0  0  0  0  0  0  0
    0.7507   -1.4285   -0.7024 H   0  0  0  0  0  0  0  0  0  0  0  0
    0.0426    0.5359   -1.3610 C   0  0  0  0  0  0  0  0  0  0  0  0
   -0.9830    0.8386   -1.5927 H   0  0  0  0  0  0  0  0  0  0  0  0
    0.5207    1.3935   -0.8739 H   0  0  0  0  0  0  0  0  0  0  0  0
    0.7899    0.2808   -2.6501 C   0  0  0  0  0  0  0  0  0  0  0  0
    0.5136    0.8677   -3.8669 N   0  0  0  0  0  0  0  0  0  0  0  0
   -0.2074    1.5613   -4.0527 H   0  0  0  0  0  0  0  0  0  0  0  0
    1.4078    0.3857   -4.8040 C   0  0  0  0  0  0  0  0  0  0  0  0
    1.4317    0.6720   -5.8518 H   0  0  0  0  0  0  0  0  0  0  0  0
    2.2250   -0.4714   -4.2453 N   0  0  0  0  0  0  0  0  0  0  0  0
    1.8621   -0.5410   -2.9041 C   0  0  0  0  0  0  0  0  0  0  0  0
    2.3661   -1.1590   -2.1669 H   0  0  0  0  0  0  0  0  0  0  0  0
    0.4598   -0.2063    1.0108 C   0  0  0  0  0  0  0  0  0  0  0  0
    1.6486   -0.2103    1.3011 O   0  0  0  0  0  0  0  0  0  0  0  0
   -0.4267    0.4846    1.8183 N   0  0  0  0  0  0  0  0  0  0  0  0
   -1.4102    0.3586    1.6026 H   0  0  0  0  0  0  0  0  0  0  0  0
   -0.0626    0.9738    3.1425 C   0  0  0  0  0  0  0  0  0  0  0  0
    0.7761    1.6749    3.0763 H   0  0  0  0  0  0  0  0  0  0  0  0
   -0.9096    1.4939    3.5997 H   0  0  0  0  0  0  0  0  0  0  0  0
    0.2261    0.1404    3.7917 H   0  0  0  0  0  0  0  0  0  0  0  0
  1  2  1  0  0  0  0
  2  3  1  0  0  0  0
  2  4  1  0  0  0  0
  2  5  1  0  0  0  0
  5  6  2  0  0  0  0
  5  7  1  0  0  0  0
  7  8  1  0  0  0  0
  7  9  1  0  0  0  0
  9 10  1  0  0  0  0
  9 11  1  0  0  0  0
  9 22  1  0  0  0  0
 11 12  1  0  0  0  0
 11 13  1  0  0  0  0
 11 14  1  0  0  0  0
 14 15  1  0  0  0  0
 14 20  2  0  0  0  0
 15 16  1  0  0  0  0
 15 17  1  0  0  0  0
 17 18  1  0  0  0  0
 17 19  2  0  0  0  0
 19 20  1  0  0  0  0
 20 21  1  0  0  0  0
 22 23  2  0  0  0  0
 22 24  1  0  0  0  0
 24 25  1  0  0  0  0
 24 26  1  0  0  0  0
 26 27  1  0  0  0  0
 26 28  1  0  0  0  0
 26 29  1  0  0  0  0
M  END
$$$$

  -OEChem-03222214043D

 29 29  0     1  0  0  0  0  0999 V2000
   -3.0701   -4.0351    0.6065 H   0  0  0  0  0  0  0  0  0  0  0  0
   -2.9766   -3.1351   -0.0082 C   0  0  0  0  0  0  0  0  0  0  0  0
   -3.8166   -2.4713    0.2098 H   0  0  0  0  0  0  0  0  0  0  0  0
   -3.0117   -3.4255   -1.0610 H   0  0  0  0  0  0  0  0  0  0  0  0
   -1.6664   -2.4325    0.2941 C   0  0  0  0  0  0  0  0  0  0  0  0
   -0.9461   -2.8530    1.1805 O   0  0  0  0  0  0  0  0  0  0  0  0
   -1.3073   -1.3124   -0.4309 N   0  0  0  0  0  0  0  0  0  0  0  0
   -1.8857   -1.1102   -1.2411 H   0  0  0  0  0  0  0  0  0  0  0  0
    0.0359   -0.6986   -0.3851 C   0  0  1  0  0  0  0  0  0  0  0  0
    0.7689   -1.4567   -0.6711 H   0  0  0  0  0  0  0  0  0  0  0  0
    0.0706    0.5034   -1.3619 C   0  0  0  0  0  0  0  0  0  0  0  0
   -0.9521    0.8132   -1.5976 H   0  0  0  0  0  0  0  0  0  0  0  0
    0.5527    1.3582   -0.8742 H   0  0  0  0  0  0  0  0  0  0  0  0
    0.8199    0.2551   -2.6530 C   0  0  0  0  0  0  0  0  0  0  0  0
    0.7339    1.0543   -3.7737 N   0  0  0  0  0  0  0  0  0  0  0  0
    0.1957    1.9135   -3.8610 H   0  0  0  0  0  0  0  0  0  0  0  0
    1.5394    0.5229   -4.7626 C   0  0  0  0  0  0  0  0  0  0  0  0
    1.6740    0.9449   -5.7545 H   0  0  0  0  0  0  0  0  0  0  0  0
    2.1175   -0.5694   -4.3306 N   0  0  0  0  0  0  0  0  0  0  0  0
    1.6889   -0.7461   -3.0194 C   0  0  0  0  0  0  0  0  0  0  0  0
    2.0072   -1.5690   -2.3873 H   0  0  0  0  0  0  0  0  0  0  0  0
    0.4586   -0.2150    1.0210 C   0  0  0  0  0  0  0  0  0  0  0  0
    1.6427   -0.2222    1.3298 O   0  0  0  0  0  0  0  0  0  0  0  0
   -0.4359    0.4900    1.8075 N   0  0  0  0  0  0  0  0  0  0  0  0
   -1.4167    0.3684    1.5772 H   0  0  0  0  0  0  0  0  0  0  0  0
   -0.0899    0.9859    3.1340 C   0  0  0  0  0  0  0  0  0  0  0  0
    0.7539    1.6817    3.0762 H   0  0  0  0  0  0  0  0  0  0  0  0
   -0.9409    1.5138    3.5744 H   0  0  0  0  0  0  0  0  0  0  0  0
    0.1835    0.1550    3.7928 H   0  0  0  0  0  0  0  0  0  0  0  0
  1  2  1  0  0  0  0
  2  3  1  0  0  0  0
  2  4  1  0  0  0  0
  2  5  1  0  0  0  0
  5  6  2  0  0  0  0
  5  7  1  0  0  0  0
  7  8  1  0  0  0  0
  7  9  1  0  0  0  0
  9 10  1  0  0  0  0
  9 11  1  0  0  0  0
  9 22  1  0  0  0  0
 11 12  1  0  0  0  0
 11 13  1  0  0  0  0
 11 14  1  0  0  0  0
 14 15  1  0  0  0  0
 14 20  2  0  0  0  0
 15 16  1  0  0  0  0
 15 17  1  0  0  0  0
 17 18  1  0  0  0  0
 17 19  2  0  0  0  0
 19 20  1  0  0  0  0
 20 21  1  0  0  0  0
 22 23  2  0  0  0  0
 22 24  1  0  0  0  0
 24 25  1  0  0  0  0
 24 26  1  0  0  0  0
 26 27  1  0  0  0  0
 26 28  1  0  0  0  0
 26 29  1  0  0  0  0
M  END
$$$$

  -OEChem-03222214043D

 29 29  0     1  0  0  0  0  0999 V2000
   -3.0763   -4.0207    0.6284 H   0  0  0  0  0  0  0  0  0  0  0  0
   -2.9637   -3.1408   -0.0117 C   0  0  0  0  0  0  0  0  0  0  0  0
   -3.8027   -2.4646    0.1688 H   0  0  0  0  0  0  0  0  0  0  0  0
   -2.9800   -3.4629   -1.0558 H   0  0  0  0  0  0  0  0  0  0  0  0
   -1.6542   -2.4385    0.2945 C   0  0  0  0  0  0  0  0  0  0  0  0
   -0.9378   -2.8573    1.1850 O   0  0  0  0  0  0  0  0  0  0  0  0
   -1.2882   -1.3238   -0.4351 N   0  0  0  0  0  0  0  0  0  0  0  0
   -1.8667   -1.1166   -1.2445 H   0  0  0  0  0  0  0  0  0  0  0  0
    0.0550   -0.7112   -0.3884 C   0  0  1  0  0  0  0  0  0  0  0  0
    0.8071   -1.4516   -0.6786 H   0  0  0  0  0  0  0  0  0  0  0  0
    0.0784    0.4937   -1.3524 C   0  0  0  0  0  0  0  0  0  0  0  0
   -0.9001    0.9842   -1.3637 H   0  0  0  0  0  0  0  0  0  0  0  0
    0.8022    1.2297   -0.9836 H   0  0  0  0  0  0  0  0  0  0  0  0
    0.4945    0.1418   -2.7626 C   0  0  0  0  0  0  0  0  0  0  0  0
    0.5948    1.0365   -3.8061 N   0  0  0  0  0  0  0  0  0  0  0  0
    0.4526    2.0430   -3.7523 H   0  0  0  0  0  0  0  0  0  0  0  0
    0.9704    0.3491   -4.9446 C   0  0  0  0  0  0  0  0  0  0  0  0
    1.1364    0.7975   -5.9202 H   0  0  0  0  0  0  0  0  0  0  0  0
    1.0942   -0.9274   -4.6777 N   0  0  0  0  0  0  0  0  0  0  0  0
    0.8082   -1.0723   -3.3251 C   0  0  0  0  0  0  0  0  0  0  0  0
    0.8191   -2.0227   -2.8007 H   0  0  0  0  0  0  0  0  0  0  0  0
    0.4662   -0.2212    1.0186 C   0  0  0  0  0  0  0  0  0  0  0  0
    1.6488   -0.2198    1.3341 O   0  0  0  0  0  0  0  0  0  0  0  0
   -0.4344    0.4876    1.7947 N   0  0  0  0  0  0  0  0  0  0  0  0
   -1.4140    0.3631    1.5599 H   0  0  0  0  0  0  0  0  0  0  0  0
   -0.0957    0.9940    3.1192 C   0  0  0  0  0  0  0  0  0  0  0  0
    0.7472    1.6907    3.0599 H   0  0  0  0  0  0  0  0  0  0  0  0
   -0.9494    1.5239    3.5521 H   0  0  0  0  0  0  0  0  0  0  0  0
    0.1764    0.1683    3.7853 H   0  0  0  0  0  0  0  0  0  0  0  0
  1  2  1  0  0  0  0
  2  3  1  0  0  0  0
  2  4  1  0  0  0  0
  2  5  1  0  0  0  0
  5  6  2  0  0  0  0
  5  7  1  0  0  0  0
  7  8  1  0  0  0  0
  7  9  1  0  0  0  0
  9 10  1  0  0  0  0
  9 11  1  0  0  0  0
  9 22  1  0  0  0  0
 11 12  1  0  0  0  0
 11 13  1  0  0  0  0
 11 14  1  0  0  0  0
 14 15  1  0  0  0  0
 14 20  2  0  0  0  0
 15 16  1  0  0  0  0
 15 17  1  0  0  0  0
 17 18  1  0  0  0  0
 17 19  2  0  0  0  0
 19 20  1  0  0  0  0
 20 21  1  0  0  0  0
 22 23  2  0  0  0  0
 22 24  1  0  0  0  0
 24 25  1  0  0  0  0
 24 26  1  0  0  0  0
 26 27  1  0  0  0  0
 26 28  1  0  0  0  0
 26 29  1  0  0  0  0
M  END
$$$$

  -OEChem-03222214043D

 29 29  0     1  0  0  0  0  0999 V2000
   -3.0524   -4.0502    0.5867 H   0  0  0  0  0  0  0  0  0  0  0  0
   -2.9731   -3.1308   -0.0005 C   0  0  0  0  0  0  0  0  0  0  0  0
   -3.8043   -2.4722    0.2620 H   0  0  0  0  0  0  0  0  0  0  0  0
   -3.0384   -3.3865   -1.0609 H   0  0  0  0  0  0  0  0  0  0  0  0
   -1.6529   -2.4417    0.2880 C   0  0  0  0  0  0  0  0  0  0  0  0
   -0.9227   -2.8748    1.1601 O   0  0  0  0  0  0  0  0  0  0  0  0
   -1.2919   -1.3225   -0.4369 N   0  0  0  0  0  0  0  0  0  0  0  0
   -1.8881   -1.0943   -1.2274 H   0  0  0  0  0  0  0  0  0  0  0  0
    0.0507   -0.7078   -0.3957 C   0  0  1  0  0  0  0  0  0  0  0  0
    0.8020   -1.4446   -0.6995 H   0  0  0  0  0  0  0  0  0  0  0  0
    0.0675    0.4991   -1.3558 C   0  0  0  0  0  0  0  0  0  0  0  0
   -0.9072    0.9970   -1.3640 H   0  0  0  0  0  0  0  0  0  0  0  0
    0.7984    1.2287   -0.9889 H   0  0  0  0  0  0  0  0  0  0  0  0
    0.4786    0.1372   -2.7636 C   0  0  0  0  0  0  0  0  0  0  0  0
    0.8608    1.0272   -3.7438 N   0  0  0  0  0  0  0  0  0  0  0  0
    0.9496    2.0361   -3.6407 H   0  0  0  0  0  0  0  0  0  0  0  0
    1.1530    0.3183   -4.8937 C   0  0  0  0  0  0  0  0  0  0  0  0
    1.4858    0.7564   -5.8303 H   0  0  0  0  0  0  0  0  0  0  0  0
    0.9670   -0.9631   -4.6917 N   0  0  0  0  0  0  0  0  0  0  0  0
    0.5584   -1.0928   -3.3696 C   0  0  0  0  0  0  0  0  0  0  0  0
    0.3246   -2.0399   -2.8926 H   0  0  0  0  0  0  0  0  0  0  0  0
    0.4692   -0.2249    1.0116 C   0  0  0  0  0  0  0  0  0  0  0  0
    1.6533   -0.2190    1.3216 O   0  0  0  0  0  0  0  0  0  0  0  0
   -0.4317    0.4773    1.7930 N   0  0  0  0  0  0  0  0  0  0  0  0
   -1.4110    0.3497    1.5594 H   0  0  0  0  0  0  0  0  0  0  0  0
   -0.0938    0.9848    3.1167 C   0  0  0  0  0  0  0  0  0  0  0  0
    0.7449    1.6865    3.0562 H   0  0  0  0  0  0  0  0  0  0  0  0
   -0.9502    1.5097    3.5505 H   0  0  0  0  0  0  0  0  0  0  0  0
    0.1831    0.1603    3.7821 H   0  0  0  0  0  0  0  0  0  0  0  0
  1  2  1  0  0  0  0
  2  3  1  0  0  0  0
  2  4  1  0  0  0  0
  2  5  1  0  0  0  0
  5  6  2  0  0  0  0
  5  7  1  0  0  0  0
  7  8  1  0  0  0  0
  7  9  1  0  0  0  0
  9 10  1  0  0  0  0
  9 11  1  0  0  0  0
  9 22  1  0  0  0  0
 11 12  1  0  0  0  0
 11 13  1  0  0  0  0
 11 14  1  0  0  0  0
 14 15  1  0  0  0  0
 14 20  2  0  0  0  0
 15 16  1  0  0  0  0
 15 17  1  0  0  0  0
 17 18  1  0  0  0  0
 17 19  2  0  0  0  0
 19 20  1  0  0  0  0
 20 21  1  0  0  0  0
 22 23  2  0  0  0  0
 22 24  1  0  0  0  0
 24 25  1  0  0  0  0
 24 26  1  0  0  0  0
 26 27  1  0  0  0  0
 26 28  1  0  0  0  0
 26 29  1  0  0  0  0
M  END
$$$$

  -OEChem-03222214043D

 29 29  0     1  0  0  0  0  0999 V2000
   -3.0576   -4.0476    0.5848 H   0  0  0  0  0  0  0  0  0  0  0  0
   -2.9802   -3.1259    0.0008 C   0  0  0  0  0  0  0  0  0  0  0  0
   -3.8042   -2.4637    0.2768 H   0  0  0  0  0  0  0  0  0  0  0  0
   -3.0607   -3.3763   -1.0597 H   0  0  0  0  0  0  0  0  0  0  0  0
   -1.6530   -2.4444    0.2753 C   0  0  0  0  0  0  0  0  0  0  0  0
   -0.9090   -2.8893    1.1296 O   0  0  0  0  0  0  0  0  0  0  0  0
   -1.3019   -1.3170   -0.4416 N   0  0  0  0  0  0  0  0  0  0  0  0
   -1.9152   -1.0705   -1.2132 H   0  0  0  0  0  0  0  0  0  0  0  0
    0.0380   -0.6956   -0.4049 C   0  0  1  0  0  0  0  0  0  0  0  0
    0.7878   -1.4290   -0.7228 H   0  0  0  0  0  0  0  0  0  0  0  0
    0.0490    0.5136   -1.3610 C   0  0  0  0  0  0  0  0  0  0  0  0
   -0.9252    1.0126   -1.3702 H   0  0  0  0  0  0  0  0  0  0  0  0
    0.7803    1.2428   -0.9939 H   0  0  0  0  0  0  0  0  0  0  0  0
    0.4600    0.1418   -2.7654 C   0  0  0  0  0  0  0  0  0  0  0  0
    1.1106    0.9558   -3.6667 N   0  0  0  0  0  0  0  0  0  0  0  0
    1.4155    1.9134   -3.5038 H   0  0  0  0  0  0  0  0  0  0  0  0
    1.3254    0.2406   -4.8301 C   0  0  0  0  0  0  0  0  0  0  0  0
    1.8192    0.6245   -5.7184 H   0  0  0  0  0  0  0  0  0  0  0  0
    0.8441   -0.9727   -4.7081 N   0  0  0  0  0  0  0  0  0  0  0  0
    0.3172   -1.0537   -3.4248 C   0  0  0  0  0  0  0  0  0  0  0  0
   -0.1459   -1.9429   -3.0078 H   0  0  0  0  0  0  0  0  0  0  0  0
    0.4670   -0.2222    1.0023 C   0  0  0  0  0  0  0  0  0  0  0  0
    1.6540   -0.2099    1.3004 O   0  0  0  0  0  0  0  0  0  0  0  0
   -0.4298    0.4692    1.7977 N   0  0  0  0  0  0  0  0  0  0  0  0
   -1.4106    0.3417    1.5707 H   0  0  0  0  0  0  0  0  0  0  0  0
   -0.0819    0.9691    3.1220 C   0  0  0  0  0  0  0  0  0  0  0  0
    0.7528    1.6753    3.0594 H   0  0  0  0  0  0  0  0  0  0  0  0
   -0.9367    1.4867    3.5675 H   0  0  0  0  0  0  0  0  0  0  0  0
    0.2056    0.1417    3.7792 H   0  0  0  0  0  0  0  0  0  0  0  0
  1  2  1  0  0  0  0
  2  3  1  0  0  0  0
  2  4  1  0  0  0  0
  2  5  1  0  0  0  0
  5  6  2  0  0  0  0
  5  7  1  0  0  0  0
  7  8  1  0  0  0  0
  7  9  1  0  0  0  0
  9 10  1  0  0  0  0
  9 11  1  0  0  0  0
  9 22  1  0  0  0  0
 11 12  1  0  0  0  0
 11 13  1  0  0  0  0
 11 14  1  0  0  0  0
 14 15  1  0  0  0  0
 14 20  2  0  0  0  0
 15 16  1  0  0  0  0
 15 17  1  0  0  0  0
 17 18  1  0  0  0  0
 17 19  2  0  0  0  0
 19 20  1  0  0  0  0
 20 21  1  0  0  0  0
 22 23  2  0  0  0  0
 22 24  1  0  0  0  0
 24 25  1  0  0  0  0
 24 26  1  0  0  0  0
 26 27  1  0  0  0  0
 26 28  1  0  0  0  0
 26 29  1  0  0  0  0
M  END
$$$$

  -OEChem-03222214043D

 29 29  0     1  0  0  0  0  0999 V2000
   -3.0488   -4.0540    0.5753 H   0  0  0  0  0  0  0  0  0  0  0  0
   -2.9785   -3.1313   -0.0078 C   0  0  0  0  0  0  0  0  0  0  0  0
   -3.8062   -2.4750    0.2709 H   0  0  0  0  0  0  0  0  0  0  0  0
   -3.0595   -3.3809   -1.0685 H   0  0  0  0  0  0  0  0  0  0  0  0
   -1.6545   -2.4429    0.2651 C   0  0  0  0  0  0  0  0  0  0  0  0
   -0.9044   -2.8885    1.1137 O   0  0  0  0  0  0  0  0  0  0  0  0
   -1.3131   -1.3086   -0.4456 N   0  0  0  0  0  0  0  0  0  0  0  0
   -1.9343   -1.0548   -1.2081 H   0  0  0  0  0  0  0  0  0  0  0  0
    0.0244   -0.6821   -0.4114 C   0  0  1  0  0  0  0  0  0  0  0  0
    0.7720   -1.4134   -0.7400 H   0  0  0  0  0  0  0  0  0  0  0  0
    0.0374    0.5293   -1.3631 C   0  0  0  0  0  0  0  0  0  0  0  0
   -0.9380    1.0257   -1.3780 H   0  0  0  0  0  0  0  0  0  0  0  0
    0.7654    1.2613   -0.9953 H   0  0  0  0  0  0  0  0  0  0  0  0
    0.4522    0.1445   -2.7613 C   0  0  0  0  0  0  0  0  0  0  0  0
    1.3455    0.8145   -3.5677 N   0  0  0  0  0  0  0  0  0  0  0  0
    1.8612    1.6585   -3.3255 H   0  0  0  0  0  0  0  0  0  0  0  0
    1.4679    0.1210   -4.7571 C   0  0  0  0  0  0  0  0  0  0  0  0
    2.1052    0.4125   -5.5871 H   0  0  0  0  0  0  0  0  0  0  0  0
    0.7009   -0.9425   -4.7398 N   0  0  0  0  0  0  0  0  0  0  0  0
    0.0752   -0.9487   -3.4993 C   0  0  0  0  0  0  0  0  0  0  0  0
   -0.6173   -1.7153   -3.1656 H   0  0  0  0  0  0  0  0  0  0  0  0
    0.4626   -0.2166    0.9954 C   0  0  0  0  0  0  0  0  0  0  0  0
    1.6527   -0.1983    1.2815 O   0  0  0  0  0  0  0  0  0  0  0  0
   -0.4297    0.4665    1.8035 N   0  0  0  0  0  0  0  0  0  0  0  0
   -1.4125    0.3351    1.5869 H   0  0  0  0  0  0  0  0  0  0  0  0
   -0.0697    0.9633    3.1258 C   0  0  0  0  0  0  0  0  0  0  0  0
    0.7600    1.6746    3.0560 H   0  0  0  0  0  0  0  0  0  0  0  0
   -0.9223    1.4740    3.5834 H   0  0  0  0  0  0  0  0  0  0  0  0
    0.2304    0.1348    3.7760 H   0  0  0  0  0  0  0  0  0  0  0  0
  1  2  1  0  0  0  0
  2  3  1  0  0  0  0
  2  4  1  0  0  0  0
  2  5  1  0  0  0  0
  5  6  2  0  0  0  0
  5  7  1  0  0  0  0
  7  8  1  0  0  0  0
  7  9  1  0  0  0  0
  9 10  1  0  0  0  0
  9 11  1  0  0  0  0
  9 22  1  0  0  0  0
 11 12  1  0  0  0  0
 11 13  1  0  0  0  0
 11 14  1  0  0  0  0
 14 15  1  0  0  0  0
 14 20  2  0  0  0  0
 15 16  1  0  0  0  0
 15 17  1  0  0  0  0
 17 18  1  0  0  0  0
 17 19  2  0  0  0  0
 19 20  1  0  0  0  0
 20 21  1  0  0  0  0
 22 23  2  0  0  0  0
 22 24  1  0  0  0  0
 24 25  1  0  0  0  0
 24 26  1  0  0  0  0
 26 27  1  0  0  0  0
 26 28  1  0  0  0  0
 26 29  1  0  0  0  0
M  END
$$$$

  -OEChem-03222214043D

 29 29  0     1  0  0  0  0  0999 V2000
   -3.0454   -4.0517    0.5854 H   0  0  0  0  0  0  0  0  0  0  0  0
   -2.9696   -3.1405   -0.0149 C   0  0  0  0  0  0  0  0  0  0  0  0
   -3.8023   -2.4810    0.2406 H   0  0  0  0  0  0  0  0  0  0  0  0
   -3.0363   -3.4106   -1.0716 H   0  0  0  0  0  0  0  0  0  0  0  0
   -1.6505   -2.4437    0.2602 C   0  0  0  0  0  0  0  0  0  0  0  0
   -0.8983   -2.8855    1.1090 O   0  0  0  0  0  0  0  0  0  0  0  0
   -1.3169   -1.3050   -0.4474 N   0  0  0  0  0  0  0  0  0  0  0  0
   -1.9389   -1.0557   -1.2104 H   0  0  0  0  0  0  0  0  0  0  0  0
    0.0181   -0.6731   -0.4134 C   0  0  1  0  0  0  0  0  0  0  0  0
    0.7645   -1.4036   -0.7470 H   0  0  0  0  0  0  0  0  0  0  0  0
    0.0330    0.5392   -1.3629 C   0  0  0  0  0  0  0  0  0  0  0  0
   -0.9486    1.0233   -1.3871 H   0  0  0  0  0  0  0  0  0  0  0  0
    0.7492    1.2834   -0.9967 H   0  0  0  0  0  0  0  0  0  0  0  0
    0.4542    0.1358   -2.7524 C   0  0  0  0  0  0  0  0  0  0  0  0
    1.5426    0.6017   -3.4560 N   0  0  0  0  0  0  0  0  0  0  0  0
    2.2400    1.2636   -3.1201 H   0  0  0  0  0  0  0  0  0  0  0  0
    1.5686   -0.0265   -4.6871 C   0  0  0  0  0  0  0  0  0  0  0  0
    2.3194    0.1357   -5.4553 H   0  0  0  0  0  0  0  0  0  0  0  0
    0.5531   -0.8500   -4.7944 N   0  0  0  0  0  0  0  0  0  0  0  0
   -0.1443   -0.7636   -3.5959 C   0  0  0  0  0  0  0  0  0  0  0  0
   -1.0404   -1.3312   -3.3645 H   0  0  0  0  0  0  0  0  0  0  0  0
    0.4614   -0.2098    0.9925 C   0  0  0  0  0  0  0  0  0  0  0  0
    1.6536   -0.1861    1.2703 O   0  0  0  0  0  0  0  0  0  0  0  0
   -0.4290    0.4677    1.8071 N   0  0  0  0  0  0  0  0  0  0  0  0
   -1.4123    0.3357    1.5935 H   0  0  0  0  0  0  0  0  0  0  0  0
   -0.0651    0.9617    3.1295 C   0  0  0  0  0  0  0  0  0  0  0  0
    0.7592    1.6792    3.0586 H   0  0  0  0  0  0  0  0  0  0  0  0
   -0.9188    1.4646    3.5935 H   0  0  0  0  0  0  0  0  0  0  0  0
    0.2439    0.1329    3.7752 H   0  0  0  0  0  0  0  0  0  0  0  0
  1  2  1  0  0  0  0
  2  3  1  0  0  0  0
  2  4  1  0  0  0  0
  2  5  1  0  0  0  0
  5  6  2  0  0  0  0
  5  7  1  0  0  0  0
  7  8  1  0  0  0  0
  7  9  1  0  0  0  0
  9 10  1  0  0  0  0
  9 11  1  0  0  0  0
  9 22  1  0  0  0  0
 11 12  1  0  0  0  0
 11 13  1  0  0  0  0
 11 14  1  0  0  0  0
 14 15  1  0  0  0  0
 14 20  2  0  0  0  0
 15 16  1  0  0  0  0
 15 17  1  0  0  0  0
 17 18  1  0  0  0  0
 17 19  2  0  0  0  0
 19 20  1  0  0  0  0
 20 21  1  0  0  0  0
 22 23  2  0  0  0  0
 22 24  1  0  0  0  0
 24 25  1  0  0  0  0
 24 26  1  0  0  0  0
 26 27  1  0  0  0  0
 26 28  1  0  0  0  0
 26 29  1  0  0  0  0
M  END
$$$$

  -OEChem-03222214043D

 29 29  0     1  0  0  0  0  0999 V2000
   -3.0572   -4.0377    0.6195 H   0  0  0  0  0  0  0  0  0  0  0  0
   -2.9631   -3.1546   -0.0190 C   0  0  0  0  0  0  0  0  0  0  0  0
   -3.8039   -2.4860    0.1796 H   0  0  0  0  0  0  0  0  0  0  0  0
   -2.9962   -3.4727   -1.0639 H   0  0  0  0  0  0  0  0  0  0  0  0
   -1.6540   -2.4429    0.2655 C   0  0  0  0  0  0  0  0  0  0  0  0
   -0.9060   -2.8728    1.1243 O   0  0  0  0  0  0  0  0  0  0  0  0
   -1.3257   -1.3039   -0.4438 N   0  0  0  0  0  0  0  0  0  0  0  0
   -1.9350   -1.0777   -1.2241 H   0  0  0  0  0  0  0  0  0  0  0  0
    0.0089   -0.6710   -0.4121 C   0  0  1  0  0  0  0  0  0  0  0  0
    0.7531   -1.4038   -0.7454 H   0  0  0  0  0  0  0  0  0  0  0  0
    0.0264    0.5390   -1.3636 C   0  0  0  0  0  0  0  0  0  0  0  0
   -0.9598    1.0132   -1.3945 H   0  0  0  0  0  0  0  0  0  0  0  0
    0.7354    1.2938   -1.0048 H   0  0  0  0  0  0  0  0  0  0  0  0
    0.4497    0.1153   -2.7444 C   0  0  0  0  0  0  0  0  0  0  0  0
    1.6707    0.3331   -3.3417 N   0  0  0  0  0  0  0  0  0  0  0  0
    2.4851    0.7662   -2.9091 H   0  0  0  0  0  0  0  0  0  0  0  0
    1.6286   -0.1880   -4.6215 C   0  0  0  0  0  0  0  0  0  0  0  0
    2.4538   -0.1765   -5.3280 H   0  0  0  0  0  0  0  0  0  0  0  0
    0.4446   -0.7004   -4.8607 N   0  0  0  0  0  0  0  0  0  0  0  0
   -0.3003   -0.5128   -3.7029 C   0  0  0  0  0  0  0  0  0  0  0  0
   -1.3343   -0.8197   -3.5793 H   0  0  0  0  0  0  0  0  0  0  0  0
    0.4590   -0.2059    0.9905 C   0  0  0  0  0  0  0  0  0  0  0  0
    1.6537   -0.1753    1.2574 O   0  0  0  0  0  0  0  0  0  0  0  0
   -0.4268    0.4723    1.8092 N   0  0  0  0  0  0  0  0  0  0  0  0
   -1.4113    0.3310    1.6064 H   0  0  0  0  0  0  0  0  0  0  0  0
   -0.0539    0.9678    3.1284 C   0  0  0  0  0  0  0  0  0  0  0  0
    0.7678    1.6874    3.0505 H   0  0  0  0  0  0  0  0  0  0  0  0
   -0.9054    1.4685    3.5989 H   0  0  0  0  0  0  0  0  0  0  0  0
    0.2627    0.1402    3.7720 H   0  0  0  0  0  0  0  0  0  0  0  0
  1  2  1  0  0  0  0
  2  3  1  0  0  0  0
  2  4  1  0  0  0  0
  2  5  1  0  0  0  0
  5  6  2  0  0  0  0
  5  7  1  0  0  0  0
  7  8  1  0  0  0  0
  7  9  1  0  0  0  0
  9 10  1  0  0  0  0
  9 11  1  0  0  0  0
  9 22  1  0  0  0  0
 11 12  1  0  0  0  0
 11 13  1  0  0  0  0
 11 14  1  0  0  0  0
 14 15  1  0  0  0  0
 14 20  2  0  0  0  0
 15 16  1  0  0  0  0
 15 17  1  0  0  0  0
 17 18  1  0  0  0  0
 17 19  2  0  0  0  0
 19 20  1  0  0  0  0
 20 21  1  0  0  0  0
 22 23  2  0  0  0  0
 22 24  1  0  0  0  0
 24 25  1  0  0  0  0
 24 26  1  0  0  0  0
 26 27  1  0  0  0  0
 26 28  1  0  0  0  0
 26 29  1  0  0  0  0
M  END
$$$$

  -OEChem-03222214043D

 29 29  0     1  0  0  0  0  0999 V2000
   -3.0566   -4.0450    0.6198 H   0  0  0  0  0  0  0  0  0  0  0  0
   -2.9668   -3.1585   -0.0148 C   0  0  0  0  0  0  0  0  0  0  0  0
   -3.8102   -2.4941    0.1876 H   0  0  0  0  0  0  0  0  0  0  0  0
   -2.9994   -3.4715   -1.0612 H   0  0  0  0  0  0  0  0  0  0  0  0
   -1.6608   -2.4418    0.2723 C   0  0  0  0  0  0  0  0  0  0  0  0
   -0.9151   -2.8657    1.1363 O   0  0  0  0  0  0  0  0  0  0  0  0
   -1.3340   -1.3048   -0.4407 N   0  0  0  0  0  0  0  0  0  0  0  0
   -1.9348   -1.0938   -1.2317 H   0  0  0  0  0  0  0  0  0  0  0  0
    0.0011   -0.6739   -0.4134 C   0  0  1  0  0  0  0  0  0  0  0  0
    0.7429   -1.4083   -0.7483 H   0  0  0  0  0  0  0  0  0  0  0  0
    0.0137    0.5341   -1.3669 C   0  0  0  0  0  0  0  0  0  0  0  0
   -0.9740    1.0057   -1.3945 H   0  0  0  0  0  0  0  0  0  0  0  0
    0.7230    1.2922   -1.0159 H   0  0  0  0  0  0  0  0  0  0  0  0
    0.4318    0.1017   -2.7459 C   0  0  0  0  0  0  0  0  0  0  0  0
    1.7135    0.0549   -3.2461 N   0  0  0  0  0  0  0  0  0  0  0  0
    2.5698    0.2587   -2.7326 H   0  0  0  0  0  0  0  0  0  0  0  0
    1.6505   -0.3532   -4.5654 C   0  0  0  0  0  0  0  0  0  0  0  0
    2.5077   -0.4956   -5.2173 H   0  0  0  0  0  0  0  0  0  0  0  0
    0.4013   -0.5451   -4.9188 N   0  0  0  0  0  0  0  0  0  0  0  0
   -0.3680   -0.2537   -3.7990 C   0  0  0  0  0  0  0  0  0  0  0  0
   -1.4522   -0.2985   -3.7670 H   0  0  0  0  0  0  0  0  0  0  0  0
    0.4577   -0.2056    0.9857 C   0  0  0  0  0  0  0  0  0  0  0  0
    1.6537   -0.1831    1.2479 O   0  0  0  0  0  0  0  0  0  0  0  0
   -0.4223    0.4768    1.8073 N   0  0  0  0  0  0  0  0  0  0  0  0
   -1.4081    0.3412    1.6073 H   0  0  0  0  0  0  0  0  0  0  0  0
   -0.0420    0.9705    3.1251 C   0  0  0  0  0  0  0  0  0  0  0  0
    0.7806    1.6886    3.0433 H   0  0  0  0  0  0  0  0  0  0  0  0
   -0.8899    1.4723    3.6007 H   0  0  0  0  0  0  0  0  0  0  0  0
    0.2762    0.1416    3.7663 H   0  0  0  0  0  0  0  0  0  0  0  0
  1  2  1  0  0  0  0
  2  3  1  0  0  0  0
  2  4  1  0  0  0  0
  2  5  1  0  0  0  0
  5  6  2  0  0  0  0
  5  7  1  0  0  0  0
  7  8  1  0  0  0  0
  7  9  1  0  0  0  0
  9 10  1  0  0  0  0
  9 11  1  0  0  0  0
  9 22  1  0  0  0  0
 11 12  1  0  0  0  0
 11 13  1  0  0  0  0
 11 14  1  0  0  0  0
 14 15  1  0  0  0  0
 14 20  2  0  0  0  0
 15 16  1  0  0  0  0
 15 17  1  0  0  0  0
 17 18  1  0  0  0  0
 17 19  2  0  0  0  0
 19 20  1  0  0  0  0
 20 21  1  0  0  0  0
 22 23  2  0  0  0  0
 22 24  1  0  0  0  0
 24 25  1  0  0  0  0
 24 26  1  0  0  0  0
 26 27  1  0  0  0  0
 26 28  1  0  0  0  0
 26 29  1  0  0  0  0
M  END
$$$$

  -OEChem-03222214043D

 29 29  0     1  0  0  0  0  0999 V2000
   -3.0576   -4.0475    0.6092 H   0  0  0  0  0  0  0  0  0  0  0  0
   -2.9722   -3.1557   -0.0181 C   0  0  0  0  0  0  0  0  0  0  0  0
   -3.8168   -2.4955    0.1920 H   0  0  0  0  0  0  0  0  0  0  0  0
   -3.0067   -3.4603   -1.0669 H   0  0  0  0  0  0  0  0  0  0  0  0
   -1.6672   -2.4384    0.2709 C   0  0  0  0  0  0  0  0  0  0  0  0
   -0.9204   -2.8633    1.1336 O   0  0  0  0  0  0  0  0  0  0  0  0
   -1.3413   -1.3003   -0.4407 N   0  0  0  0  0  0  0  0  0  0  0  0
   -1.9383   -1.0935   -1.2359 H   0  0  0  0  0  0  0  0  0  0  0  0
   -0.0053   -0.6724   -0.4162 C   0  0  1  0  0  0  0  0  0  0  0  0
    0.7328   -1.4085   -0.7544 H   0  0  0  0  0  0  0  0  0  0  0  0
    0.0005    0.5373   -1.3680 C   0  0  0  0  0  0  0  0  0  0  0  0
   -0.9849    1.0142   -1.3853 H   0  0  0  0  0  0  0  0  0  0  0  0
    0.7178    1.2901   -1.0213 H   0  0  0  0  0  0  0  0  0  0  0  0
    0.4109    0.1073   -2.7499 C   0  0  0  0  0  0  0  0  0  0  0  0
    1.6816   -0.2113   -3.1736 N   0  0  0  0  0  0  0  0  0  0  0  0
    2.5233   -0.2269   -2.5989 H   0  0  0  0  0  0  0  0  0  0  0  0
    1.6253   -0.5244   -4.5189 C   0  0  0  0  0  0  0  0  0  0  0  0
    2.4744   -0.8250   -5.1265 H   0  0  0  0  0  0  0  0  0  0  0  0
    0.3939   -0.4068   -4.9575 N   0  0  0  0  0  0  0  0  0  0  0  0
   -0.3701   -0.0022   -3.8693 C   0  0  0  0  0  0  0  0  0  0  0  0
   -1.4369    0.1970   -3.9039 H   0  0  0  0  0  0  0  0  0  0  0  0
    0.4590   -0.2078    0.9809 C   0  0  0  0  0  0  0  0  0  0  0  0
    1.6564   -0.1920    1.2377 O   0  0  0  0  0  0  0  0  0  0  0  0
   -0.4158    0.4749    1.8072 N   0  0  0  0  0  0  0  0  0  0  0  0
   -1.4028    0.3449    1.6091 H   0  0  0  0  0  0  0  0  0  0  0  0
   -0.0297    0.9669    3.1236 C   0  0  0  0  0  0  0  0  0  0  0  0
    0.7950    1.6823    3.0395 H   0  0  0  0  0  0  0  0  0  0  0  0
   -0.8747    1.4713    3.6016 H   0  0  0  0  0  0  0  0  0  0  0  0
    0.2880    0.1369    3.7634 H   0  0  0  0  0  0  0  0  0  0  0  0
  1  2  1  0  0  0  0
  2  3  1  0  0  0  0
  2  4  1  0  0  0  0
  2  5  1  0  0  0  0
  5  6  2  0  0  0  0
  5  7  1  0  0  0  0
  7  8  1  0  0  0  0
  7  9  1  0  0  0  0
  9 10  1  0  0  0  0
  9 11  1  0  0  0  0
  9 22  1  0  0  0  0
 11 12  1  0  0  0  0
 11 13  1  0  0  0  0
 11 14  1  0  0  0  0
 14 15  1  0  0  0  0
 14 20  2  0  0  0  0
 15 16  1  0  0  0  0
 15 17  1  0  0  0  0
 17 18  1  0  0  0  0
 17 19  2  0  0  0  0
 19 20  1  0  0  0  0
 20 21  1  0  0  0  0
 22 23  2  0  0  0  0
 22 24  1  0  0  0  0
 24 25  1  0  0  0  0
 24 26  1  0  0  0  0
 26 27  1  0  0  0  0
 26 28  1  0  0  0  0
 26 29  1  0  0  0  0
M  END
$$$$

  -OEChem-03222214043D

 29 29  0     1  0  0  0  0  0999 V2000
   -3.0441   -4.0684    0.5794 H   0  0  0  0  0  0  0  0  0  0  0  0
   -2.9819   -3.1495   -0.0105 C   0  0  0  0  0  0  0  0  0  0  0  0
   -3.8207   -2.5022    0.2560 H   0  0  0  0  0  0  0  0  0  0  0  0
   -3.0507   -3.4081   -1.0699 H   0  0  0  0  0  0  0  0  0  0  0  0
   -1.6705   -2.4401    0.2677 C   0  0  0  0  0  0  0  0  0  0  0  0
   -0.9152   -2.8750    1.1180 O   0  0  0  0  0  0  0  0  0  0  0  0
   -1.3444   -1.3015   -0.4428 N   0  0  0  0  0  0  0  0  0  0  0  0
   -1.9442   -1.0886   -1.2345 H   0  0  0  0  0  0  0  0  0  0  0  0
   -0.0086   -0.6739   -0.4166 C   0  0  1  0  0  0  0  0  0  0  0  0
    0.7280   -1.4121   -0.7511 H   0  0  0  0  0  0  0  0  0  0  0  0
   -0.0055    0.5342   -1.3721 C   0  0  0  0  0  0  0  0  0  0  0  0
   -0.9878    1.0176   -1.3848 H   0  0  0  0  0  0  0  0  0  0  0  0
    0.7172    1.2810   -1.0241 H   0  0  0  0  0  0  0  0  0  0  0  0
    0.4050    0.1158   -2.7590 C   0  0  0  0  0  0  0  0  0  0  0  0
    1.5966   -0.4632   -3.1370 N   0  0  0  0  0  0  0  0  0  0  0  0
    2.3799   -0.6871   -2.5243 H   0  0  0  0  0  0  0  0  0  0  0  0
    1.5632   -0.6775   -4.5020 C   0  0  0  0  0  0  0  0  0  0  0  0
    2.3645   -1.1234   -5.0845 H   0  0  0  0  0  0  0  0  0  0  0  0
    0.4196   -0.2635   -4.9943 N   0  0  0  0  0  0  0  0  0  0  0  0
   -0.3068    0.2416   -3.9222 C   0  0  0  0  0  0  0  0  0  0  0  0
   -1.3011    0.6713   -3.9984 H   0  0  0  0  0  0  0  0  0  0  0  0
    0.4555   -0.2100    0.9809 C   0  0  0  0  0  0  0  0  0  0  0  0
    1.6521   -0.2077    1.2412 O   0  0  0  0  0  0  0  0  0  0  0  0
   -0.4166    0.4732    1.8098 N   0  0  0  0  0  0  0  0  0  0  0  0
   -1.4044    0.3588    1.6060 H   0  0  0  0  0  0  0  0  0  0  0  0
   -0.0284    0.9642    3.1264 C   0  0  0  0  0  0  0  0  0  0  0  0
    0.8056    1.6690    3.0429 H   0  0  0  0  0  0  0  0  0  0  0  0
   -0.8684    1.4809    3.6001 H   0  0  0  0  0  0  0  0  0  0  0  0
    0.2768    0.1324    3.7702 H   0  0  0  0  0  0  0  0  0  0  0  0
  1  2  1  0  0  0  0
  2  3  1  0  0  0  0
  2  4  1  0  0  0  0
  2  5  1  0  0  0  0
  5  6  2  0  0  0  0
  5  7  1  0  0  0  0
  7  8  1  0  0  0  0
  7  9  1  0  0  0  0
  9 10  1  0  0  0  0
  9 11  1  0  0  0  0
  9 22  1  0  0  0  0
 11 12  1  0  0  0  0
 11 13  1  0  0  0  0
 11 14  1  0  0  0  0
 14 15  1  0  0  0  0
 14 20  2  0  0  0  0
 15 16  1  0  0  0  0
 15 17  1  0  0  0  0
 17 18  1  0  0  0  0
 17 19  2  0  0  0  0
 19 20  1  0  0  0  0
 20 21  1  0  0  0  0
 22 23  2  0  0  0  0
 22 24  1  0  0  0  0
 24 25  1  0  0  0  0
 24 26  1  0  0  0  0
 26 27  1  0  0  0  0
 26 28  1  0  0  0  0
 26 29  1  0  0  0  0
M  END
$$$$

  -OEChem-03222214043D

 29 29  0     1  0  0  0  0  0999 V2000
   -3.0637   -4.0533    0.5897 H   0  0  0  0  0  0  0  0  0  0  0  0
   -2.9910   -3.1386   -0.0055 C   0  0  0  0  0  0  0  0  0  0  0  0
   -3.8236   -2.4814    0.2565 H   0  0  0  0  0  0  0  0  0  0  0  0
   -3.0617   -3.4026   -1.0634 H   0  0  0  0  0  0  0  0  0  0  0  0
   -1.6721   -2.4414    0.2701 C   0  0  0  0  0  0  0  0  0  0  0  0
   -0.9177   -2.8856    1.1163 O   0  0  0  0  0  0  0  0  0  0  0  0
   -1.3351   -1.3071   -0.4422 N   0  0  0  0  0  0  0  0  0  0  0  0
   -1.9346   -1.0866   -1.2324 H   0  0  0  0  0  0  0  0  0  0  0  0
    0.0023   -0.6832   -0.4103 C   0  0  1  0  0  0  0  0  0  0  0  0
    0.7402   -1.4237   -0.7345 H   0  0  0  0  0  0  0  0  0  0  0  0
    0.0039    0.5224   -1.3705 C   0  0  0  0  0  0  0  0  0  0  0  0
   -0.9749    1.0132   -1.3781 H   0  0  0  0  0  0  0  0  0  0  0  0
    0.7323    1.2624   -1.0196 H   0  0  0  0  0  0  0  0  0  0  0  0
    0.4144    0.1219   -2.7649 C   0  0  0  0  0  0  0  0  0  0  0  0
    1.4625   -0.6898   -3.1441 N   0  0  0  0  0  0  0  0  0  0  0  0
    2.1533   -1.1125   -2.5251 H   0  0  0  0  0  0  0  0  0  0  0  0
    1.4526   -0.8017   -4.5215 C   0  0  0  0  0  0  0  0  0  0  0  0
    2.1653   -1.3755   -5.1071 H   0  0  0  0  0  0  0  0  0  0  0  0
    0.4540   -0.1136   -5.0218 N   0  0  0  0  0  0  0  0  0  0  0  0
   -0.1962    0.4705   -3.9408 C   0  0  0  0  0  0  0  0  0  0  0  0
   -1.0718    1.1079   -4.0195 H   0  0  0  0  0  0  0  0  0  0  0  0
    0.4569   -0.2146    0.9893 C   0  0  0  0  0  0  0  0  0  0  0  0
    1.6499   -0.2268    1.2647 O   0  0  0  0  0  0  0  0  0  0  0  0
   -0.4191    0.4745    1.8093 N   0  0  0  0  0  0  0  0  0  0  0  0
   -1.4054    0.3710    1.5937 H   0  0  0  0  0  0  0  0  0  0  0  0
   -0.0415    0.9652    3.1289 C   0  0  0  0  0  0  0  0  0  0  0  0
    0.7960    1.6668    3.0528 H   0  0  0  0  0  0  0  0  0  0  0  0
   -0.8836    1.4855    3.5949 H   0  0  0  0  0  0  0  0  0  0  0  0
    0.2540    0.1324    3.7758 H   0  0  0  0  0  0  0  0  0  0  0  0
  1  2  1  0  0  0  0
  2  3  1  0  0  0  0
  2  4  1  0  0  0  0
  2  5  1  0  0  0  0
  5  6  2  0  0  0  0
  5  7  1  0  0  0  0
  7  8  1  0  0  0  0
  7  9  1  0  0  0  0
  9 10  1  0  0  0  0
  9 11  1  0  0  0  0
  9 22  1  0  0  0  0
 11 12  1  0  0  0  0
 11 13  1  0  0  0  0
 11 14  1  0  0  0  0
 14 15  1  0  0  0  0
 14 20  2  0  0  0  0
 15 16  1  0  0  0  0
 15 17  1  0  0  0  0
 17 18  1  0  0  0  0
 17 19  2  0  0  0  0
 19 20  1  0  0  0  0
 20 21  1  0  0  0  0
 22 23  2  0  0  0  0
 22 24  1  0  0  0  0
 24 25  1  0  0  0  0
 24 26  1  0  0  0  0
 26 27  1  0  0  0  0
 26 28  1  0  0  0  0
 26 29  1  0  0  0  0
M  END
$$$$

  -OEChem-03222214043D

 29 29  0     1  0  0  0  0  0999 V2000
   -3.0803   -4.0388    0.6116 H   0  0  0  0  0  0  0  0  0  0  0  0
   -3.0004   -3.1251    0.0156 C   0  0  0  0  0  0  0  0  0  0  0  0
   -3.8202   -2.4553    0.2862 H   0  0  0  0  0  0  0  0  0  0  0  0
   -3.0862   -3.3881   -1.0415 H   0  0  0  0  0  0  0  0  0  0  0  0
   -1.6687   -2.4473    0.2770 C   0  0  0  0  0  0  0  0  0  0  0  0
   -0.9088   -2.9049    1.1111 O   0  0  0  0  0  0  0  0  0  0  0  0
   -1.3230   -1.3187   -0.4399 N   0  0  0  0  0  0  0  0  0  0  0  0
   -1.9289   -1.0843   -1.2214 H   0  0  0  0  0  0  0  0  0  0  0  0
    0.0150   -0.6968   -0.4056 C   0  0  1  0  0  0  0  0  0  0  0  0
    0.7570   -1.4373   -0.7180 H   0  0  0  0  0  0  0  0  0  0  0  0
    0.0157    0.5052   -1.3711 C   0  0  0  0  0  0  0  0  0  0  0  0
   -0.9608    1.0002   -1.3753 H   0  0  0  0  0  0  0  0  0  0  0  0
    0.7470    1.2414   -1.0180 H   0  0  0  0  0  0  0  0  0  0  0  0
    0.4254    0.1192   -2.7720 C   0  0  0  0  0  0  0  0  0  0  0  0
    1.2784   -0.8843   -3.1825 N   0  0  0  0  0  0  0  0  0  0  0  0
    1.8261   -1.4956   -2.5786 H   0  0  0  0  0  0  0  0  0  0  0  0
    1.3200   -0.8884   -4.5638 C   0  0  0  0  0  0  0  0  0  0  0  0
    1.9179   -1.5637   -5.1694 H   0  0  0  0  0  0  0  0  0  0  0  0
    0.5293    0.0432   -5.0395 N   0  0  0  0  0  0  0  0  0  0  0  0
   -0.0300    0.6787   -3.9371 C   0  0  0  0  0  0  0  0  0  0  0  0
   -0.7384    1.4997   -3.9941 H   0  0  0  0  0  0  0  0  0  0  0  0
    0.4565   -0.2217    0.9960 C   0  0  0  0  0  0  0  0  0  0  0  0
    1.6452   -0.2408    1.2876 O   0  0  0  0  0  0  0  0  0  0  0  0
   -0.4267    0.4722    1.8041 N   0  0  0  0  0  0  0  0  0  0  0  0
   -1.4107    0.3784    1.5740 H   0  0  0  0  0  0  0  0  0  0  0  0
   -0.0620    0.9676    3.1256 C   0  0  0  0  0  0  0  0  0  0  0  0
    0.7787    1.6658    3.0558 H   0  0  0  0  0  0  0  0  0  0  0  0
   -0.9075    1.4929    3.5796 H   0  0  0  0  0  0  0  0  0  0  0  0
    0.2236    0.1369    3.7794 H   0  0  0  0  0  0  0  0  0  0  0  0
  1  2  1  0  0  0  0
  2  3  1  0  0  0  0
  2  4  1  0  0  0  0
  2  5  1  0  0  0  0
  5  6  2  0  0  0  0
  5  7  1  0  0  0  0
  7  8  1  0  0  0  0
  7  9  1  0  0  0  0
  9 10  1  0  0  0  0
  9 11  1  0  0  0  0
  9 22  1  0  0  0  0
 11 12  1  0  0  0  0
 11 13  1  0  0  0  0
 11 14  1  0  0  0  0
 14 15  1  0  0  0  0
 14 20  2  0  0  0  0
 15 16  1  0  0  0  0
 15 17  1  0  0  0  0
 17 18  1  0  0  0  0
 17 19  2  0  0  0  0
 19 20  1  0  0  0  0
 20 21  1  0  0  0  0
 22 23  2  0  0  0  0
 22 24  1  0  0  0  0
 24 25  1  0  0  0  0
 24 26  1  0  0  0  0
 26 27  1  0  0  0  0
 26 28  1  0  0  0  0
 26 29  1  0  0  0  0
M  END
$$$$

  -OEChem-03222214043D

 29 29  0     1  0  0  0  0  0999 V2000
   -3.0953   -4.0279    0.6421 H   0  0  0  0  0  0  0  0  0  0  0  0
   -3.0105   -3.1180    0.0412 C   0  0  0  0  0  0  0  0  0  0  0  0
   -3.8173   -2.4361    0.3197 H   0  0  0  0  0  0  0  0  0  0  0  0
   -3.1138   -3.3837   -1.0136 H   0  0  0  0  0  0  0  0  0  0  0  0
   -1.6666   -2.4572    0.2823 C   0  0  0  0  0  0  0  0  0  0  0  0
   -0.8973   -2.9273    1.1002 O   0  0  0  0  0  0  0  0  0  0  0  0
   -1.3176   -1.3320   -0.4382 N   0  0  0  0  0  0  0  0  0  0  0  0
   -1.9370   -1.0789   -1.2031 H   0  0  0  0  0  0  0  0  0  0  0  0
    0.0201   -0.7088   -0.4060 C   0  0  1  0  0  0  0  0  0  0  0  0
    0.7674   -1.4460   -0.7137 H   0  0  0  0  0  0  0  0  0  0  0  0
    0.0169    0.4912   -1.3746 C   0  0  0  0  0  0  0  0  0  0  0  0
   -0.9606    0.9844   -1.3775 H   0  0  0  0  0  0  0  0  0  0  0  0
    0.7465    1.2294   -1.0221 H   0  0  0  0  0  0  0  0  0  0  0  0
    0.4234    0.1142   -2.7796 C   0  0  0  0  0  0  0  0  0  0  0  0
    1.0437   -1.0304   -3.2378 N   0  0  0  0  0  0  0  0  0  0  0  0
    1.3917   -1.7986   -2.6664 H   0  0  0  0  0  0  0  0  0  0  0  0
    1.1769   -0.9392   -4.6103 C   0  0  0  0  0  0  0  0  0  0  0  0
    1.6405   -1.6892   -5.2447 H   0  0  0  0  0  0  0  0  0  0  0  0
    0.6592    0.1865   -5.0382 N   0  0  0  0  0  0  0  0  0  0  0  0
    0.1904    0.8519   -3.9112 C   0  0  0  0  0  0  0  0  0  0  0  0
   -0.3011    1.8203   -3.9281 H   0  0  0  0  0  0  0  0  0  0  0  0
    0.4563   -0.2277    0.9958 C   0  0  0  0  0  0  0  0  0  0  0  0
    1.6426   -0.2481    1.2958 O   0  0  0  0  0  0  0  0  0  0  0  0
   -0.4309    0.4681    1.7981 N   0  0  0  0  0  0  0  0  0  0  0  0
   -1.4137    0.3781    1.5622 H   0  0  0  0  0  0  0  0  0  0  0  0
   -0.0719    0.9719    3.1181 C   0  0  0  0  0  0  0  0  0  0  0  0
    0.7690    1.6698    3.0470 H   0  0  0  0  0  0  0  0  0  0  0  0
   -0.9195    1.5001    3.5650 H   0  0  0  0  0  0  0  0  0  0  0  0
    0.2109    0.1454    3.7786 H   0  0  0  0  0  0  0  0  0  0  0  0
  1  2  1  0  0  0  0
  2  3  1  0  0  0  0
  2  4  1  0  0  0  0
  2  5  1  0  0  0  0
  5  6  2  0  0  0  0
  5  7  1  0  0  0  0
  7  8  1  0  0  0  0
  7  9  1  0  0  0  0
  9 10  1  0  0  0  0
  9 11  1  0  0  0  0
  9 22  1  0  0  0  0
 11 12  1  0  0  0  0
 11 13  1  0  0  0  0
 11 14  1  0  0  0  0
 14 15  1  0  0  0  0
 14 20  2  0  0  0  0
 15 16  1  0  0  0  0
 15 17  1  0  0  0  0
 17 18  1  0  0  0  0
 17 19  2  0  0  0  0
 19 20  1  0  0  0  0
 20 21  1  0  0  0  0
 22 23  2  0  0  0  0
 22 24  1  0  0  0  0
 24 25  1  0  0  0  0
 24 26  1  0  0  0  0
 26 27  1  0  0  0  0
 26 28  1  0  0  0  0
 26 29  1  0  0  0  0
M  END
$$$$

  -OEChem-03222214043D

 29 29  0     1  0  0  0  0  0999 V2000
   -3.0995   -4.0134    0.6775 H   0  0  0  0  0  0  0  0  0  0  0  0
   -3.0168   -3.1044    0.0746 C   0  0  0  0  0  0  0  0  0  0  0  0
   -3.8021   -2.4083    0.3783 H   0  0  0  0  0  0  0  0  0  0  0  0
   -3.1573   -3.3668   -0.9767 H   0  0  0  0  0  0  0  0  0  0  0  0
   -1.6544   -2.4683    0.2751 C   0  0  0  0  0  0  0  0  0  0  0  0
   -0.8640   -2.9605    1.0588 O   0  0  0  0  0  0  0  0  0  0  0  0
   -1.3121   -1.3401   -0.4436 N   0  0  0  0  0  0  0  0  0  0  0  0
   -1.9598   -1.0521   -1.1718 H   0  0  0  0  0  0  0  0  0  0  0  0
    0.0222   -0.7084   -0.4184 C   0  0  1  0  0  0  0  0  0  0  0  0
    0.7767   -1.4366   -0.7321 H   0  0  0  0  0  0  0  0  0  0  0  0
    0.0060    0.4939   -1.3832 C   0  0  0  0  0  0  0  0  0  0  0  0
   -0.9787    0.9722   -1.3846 H   0  0  0  0  0  0  0  0  0  0  0  0
    0.7259    1.2426   -1.0325 H   0  0  0  0  0  0  0  0  0  0  0  0
    0.4063    0.1193   -2.7905 C   0  0  0  0  0  0  0  0  0  0  0  0
    0.7701   -1.1098   -3.3023 N   0  0  0  0  0  0  0  0  0  0  0  0
    0.8795   -1.9747   -2.7756 H   0  0  0  0  0  0  0  0  0  0  0  0
    1.0317   -0.9642   -4.6514 C   0  0  0  0  0  0  0  0  0  0  0  0
    1.3511   -1.7619   -5.3160 H   0  0  0  0  0  0  0  0  0  0  0  0
    0.8353    0.2796   -5.0157 N   0  0  0  0  0  0  0  0  0  0  0  0
    0.4523    0.9651   -3.8682 C   0  0  0  0  0  0  0  0  0  0  0  0
    0.2153    2.0244   -3.8340 H   0  0  0  0  0  0  0  0  0  0  0  0
    0.4572   -0.2295    0.9847 C   0  0  0  0  0  0  0  0  0  0  0  0
    1.6430   -0.2434    1.2866 O   0  0  0  0  0  0  0  0  0  0  0  0
   -0.4350    0.4568    1.7897 N   0  0  0  0  0  0  0  0  0  0  0  0
   -1.4169    0.3648    1.5515 H   0  0  0  0  0  0  0  0  0  0  0  0
   -0.0802    0.9596    3.1111 C   0  0  0  0  0  0  0  0  0  0  0  0
    0.7534    1.6665    3.0418 H   0  0  0  0  0  0  0  0  0  0  0  0
   -0.9329    1.4774    3.5606 H   0  0  0  0  0  0  0  0  0  0  0  0
    0.2121    0.1339    3.7683 H   0  0  0  0  0  0  0  0  0  0  0  0
  1  2  1  0  0  0  0
  2  3  1  0  0  0  0
  2  4  1  0  0  0  0
  2  5  1  0  0  0  0
  5  6  2  0  0  0  0
  5  7  1  0  0  0  0
  7  8  1  0  0  0  0
  7  9  1  0  0  0  0
  9 10  1  0  0  0  0
  9 11  1  0  0  0  0
  9 22  1  0  0  0  0
 11 12  1  0  0  0  0
 11 13  1  0  0  0  0
 11 14  1  0  0  0  0
 14 15  1  0  0  0  0
 14 20  2  0  0  0  0
 15 16  1  0  0  0  0
 15 17  1  0  0  0  0
 17 18  1  0  0  0  0
 17 19  2  0  0  0  0
 19 20  1  0  0  0  0
 20 21  1  0  0  0  0
 22 23  2  0  0  0  0
 22 24  1  0  0  0  0
 24 25  1  0  0  0  0
 24 26  1  0  0  0  0
 26 27  1  0  0  0  0
 26 28  1  0  0  0  0
 26 29  1  0  0  0  0
M  END
$$$$

  -OEChem-03222214043D

 29 29  0     1  0  0  0  0  0999 V2000
   -3.0899   -4.0099    0.6929 H   0  0  0  0  0  0  0  0  0  0  0  0
   -3.0173   -3.0972    0.0942 C   0  0  0  0  0  0  0  0  0  0  0  0
   -3.7849   -2.3956    0.4294 H   0  0  0  0  0  0  0  0  0  0  0  0
   -3.1955   -3.3501   -0.9536 H   0  0  0  0  0  0  0  0  0  0  0  0
   -1.6417   -2.4775    0.2539 C   0  0  0  0  0  0  0  0  0  0  0  0
   -0.8271   -2.9912    0.9978 O   0  0  0  0  0  0  0  0  0  0  0  0
   -1.3141   -1.3396   -0.4565 N   0  0  0  0  0  0  0  0  0  0  0  0
   -1.9956   -1.0101   -1.1345 H   0  0  0  0  0  0  0  0  0  0  0  0
    0.0148   -0.6951   -0.4367 C   0  0  1  0  0  0  0  0  0  0  0  0
    0.7745   -1.4121   -0.7662 H   0  0  0  0  0  0  0  0  0  0  0  0
   -0.0160    0.5137   -1.3919 C   0  0  0  0  0  0  0  0  0  0  0  0
   -1.0105    0.9709   -1.3924 H   0  0  0  0  0  0  0  0  0  0  0  0
    0.6886    1.2762   -1.0396 H   0  0  0  0  0  0  0  0  0  0  0  0
    0.3812    0.1404   -2.7997 C   0  0  0  0  0  0  0  0  0  0  0  0
    0.4781   -1.1117   -3.3716 N   0  0  0  0  0  0  0  0  0  0  0  0
    0.3362   -2.0027   -2.8993 H   0  0  0  0  0  0  0  0  0  0  0  0
    0.8873   -0.9641   -4.6836 C   0  0  0  0  0  0  0  0  0  0  0  0
    1.0586   -1.7792   -5.3811 H   0  0  0  0  0  0  0  0  0  0  0  0
    1.0383    0.3068   -4.9670 N   0  0  0  0  0  0  0  0  0  0  0  0
    0.7372    1.0045   -3.8023 C   0  0  0  0  0  0  0  0  0  0  0  0
    0.7754    2.0855   -3.7042 H   0  0  0  0  0  0  0  0  0  0  0  0
    0.4552   -0.2253    0.9677 C   0  0  0  0  0  0  0  0  0  0  0  0
    1.6427   -0.2293    1.2624 O   0  0  0  0  0  0  0  0  0  0  0  0
   -0.4377    0.4447    1.7860 N   0  0  0  0  0  0  0  0  0  0  0  0
   -1.4204    0.3517    1.5521 H   0  0  0  0  0  0  0  0  0  0  0  0
   -0.0770    0.9412    3.1082 C   0  0  0  0  0  0  0  0  0  0  0  0
    0.7476    1.6583    3.0365 H   0  0  0  0  0  0  0  0  0  0  0  0
   -0.9313    1.4454    3.5697 H   0  0  0  0  0  0  0  0  0  0  0  0
    0.2304    0.1139    3.7564 H   0  0  0  0  0  0  0  0  0  0  0  0
  1  2  1  0  0  0  0
  2  3  1  0  0  0  0
  2  4  1  0  0  0  0
  2  5  1  0  0  0  0
  5  6  2  0  0  0  0
  5  7  1  0  0  0  0
  7  8  1  0  0  0  0
  7  9  1  0  0  0  0
  9 10  1  0  0  0  0
  9 11  1  0  0  0  0
  9 22  1  0  0  0  0
 11 12  1  0  0  0  0
 11 13  1  0  0  0  0
 11 14  1  0  0  0  0
 14 15  1  0  0  0  0
 14 20  2  0  0  0  0
 15 16  1  0  0  0  0
 15 17  1  0  0  0  0
 17 18  1  0  0  0  0
 17 19  2  0  0  0  0
 19 20  1  0  0  0  0
 20 21  1  0  0  0  0
 22 23  2  0  0  0  0
 22 24  1  0  0  0  0
 24 25  1  0  0  0  0
 24 26  1  0  0  0  0
 26 27  1  0  0  0  0
 26 28  1  0  0  0  0
 26 29  1  0  0  0  0
M  END
$$$$

  -OEChem-03222214043D

 29 29  0     1  0  0  0  0  0999 V2000
   -3.0767   -4.0033    0.6943 H   0  0  0  0  0  0  0  0  0  0  0  0
   -3.0137   -3.0864    0.1012 C   0  0  0  0  0  0  0  0  0  0  0  0
   -3.7651   -2.3813    0.4642 H   0  0  0  0  0  0  0  0  0  0  0  0
   -3.2242   -3.3290   -0.9429 H   0  0  0  0  0  0  0  0  0  0  0  0
   -1.6284   -2.4806    0.2256 C   0  0  0  0  0  0  0  0  0  0  0  0
   -0.7944   -3.0134    0.9333 O   0  0  0  0  0  0  0  0  0  0  0  0
   -1.3148   -1.3317   -0.4735 N   0  0  0  0  0  0  0  0  0  0  0  0
   -2.0266   -0.9607   -1.0963 H   0  0  0  0  0  0  0  0  0  0  0  0
    0.0090   -0.6755   -0.4528 C   0  0  1  0  0  0  0  0  0  0  0  0
    0.7706   -1.3846   -0.7968 H   0  0  0  0  0  0  0  0  0  0  0  0
   -0.0286    0.5395   -1.3986 C   0  0  0  0  0  0  0  0  0  0  0  0
   -1.0286    0.9844   -1.4032 H   0  0  0  0  0  0  0  0  0  0  0  0
    0.6659    1.3088   -1.0410 H   0  0  0  0  0  0  0  0  0  0  0  0
    0.3735    0.1649   -2.8033 C   0  0  0  0  0  0  0  0  0  0  0  0
    0.2115   -1.0420   -3.4508 N   0  0  0  0  0  0  0  0  0  0  0  0
   -0.1588   -1.8986   -3.0444 H   0  0  0  0  0  0  0  0  0  0  0  0
    0.7447   -0.9310   -4.7214 C   0  0  0  0  0  0  0  0  0  0  0  0
    0.7717   -1.7271   -5.4601 H   0  0  0  0  0  0  0  0  0  0  0  0
    1.2163    0.2776   -4.9078 N   0  0  0  0  0  0  0  0  0  0  0  0
    1.0030    0.9671   -3.7191 C   0  0  0  0  0  0  0  0  0  0  0  0
    1.2937    1.9987   -3.5432 H   0  0  0  0  0  0  0  0  0  0  0  0
    0.4531   -0.2178    0.9542 C   0  0  0  0  0  0  0  0  0  0  0  0
    1.6419   -0.2134    1.2430 O   0  0  0  0  0  0  0  0  0  0  0  0
   -0.4412    0.4351    1.7849 N   0  0  0  0  0  0  0  0  0  0  0  0
   -1.4242    0.3417    1.5532 H   0  0  0  0  0  0  0  0  0  0  0  0
   -0.0772    0.9182    3.1113 C   0  0  0  0  0  0  0  0  0  0  0  0
    0.7393    1.6450    3.0442 H   0  0  0  0  0  0  0  0  0  0  0  0
   -0.9339    1.4067    3.5851 H   0  0  0  0  0  0  0  0  0  0  0  0
    0.2442    0.0857    3.7462 H   0  0  0  0  0  0  0  0  0  0  0  0
  1  2  1  0  0  0  0
  2  3  1  0  0  0  0
  2  4  1  0  0  0  0
  2  5  1  0  0  0  0
  5  6  2  0  0  0  0
  5  7  1  0  0  0  0
  7  8  1  0  0  0  0
  7  9  1  0  0  0  0
  9 10  1  0  0  0  0
  9 11  1  0  0  0  0
  9 22  1  0  0  0  0
 11 12  1  0  0  0  0
 11 13  1  0  0  0  0
 11 14  1  0  0  0  0
 14 15  1  0  0  0  0
 14 20  2  0  0  0  0
 15 16  1  0  0  0  0
 15 17  1  0  0  0  0
 17 18  1  0  0  0  0
 17 19  2  0  0  0  0
 19 20  1  0  0  0  0
 20 21  1  0  0  0  0
 22 23  2  0  0  0  0
 22 24  1  0  0  0  0
 24 25  1  0  0  0  0
 24 26  1  0  0  0  0
 26 27  1  0  0  0  0
 26 28  1  0  0  0  0
 26 29  1  0  0  0  0
M  END
$$$$

  -OEChem-03222214043D

 29 29  0     1  0  0  0  0  0999 V2000
   -3.0694   -3.9963    0.6837 H   0  0  0  0  0  0  0  0  0  0  0  0
   -3.0087   -3.0766    0.0947 C   0  0  0  0  0  0  0  0  0  0  0  0
   -3.7490   -2.3679    0.4733 H   0  0  0  0  0  0  0  0  0  0  0  0
   -3.2370   -3.3119   -0.9474 H   0  0  0  0  0  0  0  0  0  0  0  0
   -1.6174   -2.4814    0.2013 C   0  0  0  0  0  0  0  0  0  0  0  0
   -0.7758   -3.0258    0.8907 O   0  0  0  0  0  0  0  0  0  0  0  0
   -1.3108   -1.3239   -0.4867 N   0  0  0  0  0  0  0  0  0  0  0  0
   -2.0424   -0.9198   -1.0637 H   0  0  0  0  0  0  0  0  0  0  0  0
    0.0100   -0.6617   -0.4607 C   0  0  1  0  0  0  0  0  0  0  0  0
    0.7720   -1.3666   -0.8137 H   0  0  0  0  0  0  0  0  0  0  0  0
   -0.0278    0.5584   -1.3983 C   0  0  0  0  0  0  0  0  0  0  0  0
   -1.0272    1.0041   -1.4052 H   0  0  0  0  0  0  0  0  0  0  0  0
    0.6656    1.3257   -1.0344 H   0  0  0  0  0  0  0  0  0  0  0  0
    0.3816    0.1812   -2.7995 C   0  0  0  0  0  0  0  0  0  0  0  0
   -0.0154   -0.9121   -3.5397 N   0  0  0  0  0  0  0  0  0  0  0  0
   -0.5985   -1.6801   -3.2157 H   0  0  0  0  0  0  0  0  0  0  0  0
    0.6114   -0.8560   -4.7707 C   0  0  0  0  0  0  0  0  0  0  0  0
    0.5011   -1.5911   -5.5627 H   0  0  0  0  0  0  0  0  0  0  0  0
    1.3632    0.2149   -4.8453 N   0  0  0  0  0  0  0  0  0  0  0  0
    1.2377    0.8658   -3.6227 C   0  0  0  0  0  0  0  0  0  0  0  0
    1.7442    1.7900   -3.3603 H   0  0  0  0  0  0  0  0  0  0  0  0
    0.4541   -0.2159    0.9501 C   0  0  0  0  0  0  0  0  0  0  0  0
    1.6436   -0.1989    1.2353 O   0  0  0  0  0  0  0  0  0  0  0  0
   -0.4438    0.4244    1.7868 N   0  0  0  0  0  0  0  0  0  0  0  0
   -1.4267    0.3211    1.5587 H   0  0  0  0  0  0  0  0  0  0  0  0
   -0.0805    0.9055    3.1142 C   0  0  0  0  0  0  0  0  0  0  0  0
    0.7295    1.6396    3.0480 H   0  0  0  0  0  0  0  0  0  0  0  0
   -0.9403    1.3847    3.5915 H   0  0  0  0  0  0  0  0  0  0  0  0
    0.2492    0.0735    3.7454 H   0  0  0  0  0  0  0  0  0  0  0  0
  1  2  1  0  0  0  0
  2  3  1  0  0  0  0
  2  4  1  0  0  0  0
  2  5  1  0  0  0  0
  5  6  2  0  0  0  0
  5  7  1  0  0  0  0
  7  8  1  0  0  0  0
  7  9  1  0  0  0  0
  9 10  1  0  0  0  0
  9 11  1  0  0  0  0
  9 22  1  0  0  0  0
 11 12  1  0  0  0  0
 11 13  1  0  0  0  0
 11 14  1  0  0  0  0
 14 15  1  0  0  0  0
 14 20  2  0  0  0  0
 15 16  1  0  0  0  0
 15 17  1  0  0  0  0
 17 18  1  0  0  0  0
 17 19  2  0  0  0  0
 19 20  1  0  0  0  0
 20 21  1  0  0  0  0
 22 23  2  0  0  0  0
 22 24  1  0  0  0  0
 24 25  1  0  0  0  0
 24 26  1  0  0  0  0
 26 27  1  0  0  0  0
 26 28  1  0  0  0  0
 26 29  1  0  0  0  0
M  END
$$$$

  -OEChem-03222214043D

 29 29  0     1  0  0  0  0  0999 V2000
   -3.0649   -3.9993    0.6733 H   0  0  0  0  0  0  0  0  0  0  0  0
   -3.0057   -3.0809    0.0820 C   0  0  0  0  0  0  0  0  0  0  0  0
   -3.7557   -2.3773    0.4506 H   0  0  0  0  0  0  0  0  0  0  0  0
   -3.2212   -3.3218   -0.9615 H   0  0  0  0  0  0  0  0  0  0  0  0
   -1.6201   -2.4747    0.2013 C   0  0  0  0  0  0  0  0  0  0  0  0
   -0.7855   -3.0071    0.9084 O   0  0  0  0  0  0  0  0  0  0  0  0
   -1.3157   -1.3155   -0.4856 N   0  0  0  0  0  0  0  0  0  0  0  0
   -2.0435   -0.9203   -1.0723 H   0  0  0  0  0  0  0  0  0  0  0  0
    0.0055   -0.6540   -0.4602 C   0  0  1  0  0  0  0  0  0  0  0  0
    0.7640   -1.3612   -0.8161 H   0  0  0  0  0  0  0  0  0  0  0  0
   -0.0233    0.5677   -1.3963 C   0  0  0  0  0  0  0  0  0  0  0  0
   -1.0173    1.0254   -1.4051 H   0  0  0  0  0  0  0  0  0  0  0  0
    0.6771    1.3268   -1.0284 H   0  0  0  0  0  0  0  0  0  0  0  0
    0.3900    0.1866   -2.7952 C   0  0  0  0  0  0  0  0  0  0  0  0
   -0.1986   -0.7264   -3.6441 N   0  0  0  0  0  0  0  0  0  0  0  0
   -0.9753   -1.3440   -3.4240 H   0  0  0  0  0  0  0  0  0  0  0  0
    0.5086   -0.7354   -4.8323 C   0  0  0  0  0  0  0  0  0  0  0  0
    0.2848   -1.3658   -5.6881 H   0  0  0  0  0  0  0  0  0  0  0  0
    1.4924    0.1281   -4.7786 N   0  0  0  0  0  0  0  0  0  0  0  0
    1.4346    0.7065   -3.5151 C   0  0  0  0  0  0  0  0  0  0  0  0
    2.1190    1.4677   -3.1524 H   0  0  0  0  0  0  0  0  0  0  0  0
    0.4536   -0.2110    0.9501 C   0  0  0  0  0  0  0  0  0  0  0  0
    1.6444   -0.1927    1.2301 O   0  0  0  0  0  0  0  0  0  0  0  0
   -0.4411    0.4284    1.7909 N   0  0  0  0  0  0  0  0  0  0  0  0
   -1.4247    0.3214    1.5679 H   0  0  0  0  0  0  0  0  0  0  0  0
   -0.0732    0.9028    3.1194 C   0  0  0  0  0  0  0  0  0  0  0  0
    0.7346    1.6395    3.0543 H   0  0  0  0  0  0  0  0  0  0  0  0
   -0.9322    1.3769    3.6036 H   0  0  0  0  0  0  0  0  0  0  0  0
    0.2616    0.0679    3.7440 H   0  0  0  0  0  0  0  0  0  0  0  0
  1  2  1  0  0  0  0
  2  3  1  0  0  0  0
  2  4  1  0  0  0  0
  2  5  1  0  0  0  0
  5  6  2  0  0  0  0
  5  7  1  0  0  0  0
  7  8  1  0  0  0  0
  7  9  1  0  0  0  0
  9 10  1  0  0  0  0
  9 11  1  0  0  0  0
  9 22  1  0  0  0  0
 11 12  1  0  0  0  0
 11 13  1  0  0  0  0
 11 14  1  0  0  0  0
 14 15  1  0  0  0  0
 14 20  2  0  0  0  0
 15 16  1  0  0  0  0
 15 17  1  0  0  0  0
 17 18  1  0  0  0  0
 17 19  2  0  0  0  0
 19 20  1  0  0  0  0
 20 21  1  0  0  0  0
 22 23  2  0  0  0  0
 22 24  1  0  0  0  0
 24 25  1  0  0  0  0
 24 26  1  0  0  0  0
 26 27  1  0  0  0  0
 26 28  1  0  0  0  0
 26 29  1  0  0  0  0
M  END
$$$$

  -OEChem-03222214043D

 29 29  0     1  0  0  0  0  0999 V2000
   -3.0585   -4.0159    0.6361 H   0  0  0  0  0  0  0  0  0  0  0  0
   -2.9961   -3.0986    0.0433 C   0  0  0  0  0  0  0  0  0  0  0  0
   -3.7789   -2.4125    0.3751 H   0  0  0  0  0  0  0  0  0  0  0  0
   -3.1585   -3.3489   -1.0077 H   0  0  0  0  0  0  0  0  0  0  0  0
   -1.6327   -2.4571    0.2203 C   0  0  0  0  0  0  0  0  0  0  0  0
   -0.8256   -2.9545    0.9830 O   0  0  0  0  0  0  0  0  0  0  0  0
   -1.3233   -1.3014   -0.4706 N   0  0  0  0  0  0  0  0  0  0  0  0
   -2.0133   -0.9654   -1.1336 H   0  0  0  0  0  0  0  0  0  0  0  0
    0.0021   -0.6491   -0.4505 C   0  0  1  0  0  0  0  0  0  0  0  0
    0.7537   -1.3631   -0.8076 H   0  0  0  0  0  0  0  0  0  0  0  0
   -0.0169    0.5738   -1.3863 C   0  0  0  0  0  0  0  0  0  0  0  0
   -1.0022    1.0498   -1.3896 H   0  0  0  0  0  0  0  0  0  0  0  0
    0.6985    1.3197   -1.0205 H   0  0  0  0  0  0  0  0  0  0  0  0
    0.3901    0.1895   -2.7861 C   0  0  0  0  0  0  0  0  0  0  0  0
   -0.3397   -0.4905   -3.7383 N   0  0  0  0  0  0  0  0  0  0  0  0
   -1.2753   -0.8715   -3.6298 H   0  0  0  0  0  0  0  0  0  0  0  0
    0.4267   -0.5908   -4.8849 C   0  0  0  0  0  0  0  0  0  0  0  0
    0.1171   -1.0822   -5.8029 H   0  0  0  0  0  0  0  0  0  0  0  0
    1.5844   -0.0043   -4.7066 N   0  0  0  0  0  0  0  0  0  0  0  0
    1.5771    0.4867   -3.4053 C   0  0  0  0  0  0  0  0  0  0  0  0
    2.3962    1.0331   -2.9466 H   0  0  0  0  0  0  0  0  0  0  0  0
    0.4579   -0.2058    0.9579 C   0  0  0  0  0  0  0  0  0  0  0  0
    1.6511   -0.1846    1.2287 O   0  0  0  0  0  0  0  0  0  0  0  0
   -0.4309    0.4413    1.7992 N   0  0  0  0  0  0  0  0  0  0  0  0
   -1.4155    0.3175    1.5888 H   0  0  0  0  0  0  0  0  0  0  0  0
   -0.0563    0.9125    3.1270 C   0  0  0  0  0  0  0  0  0  0  0  0
    0.7552    1.6449    3.0601 H   0  0  0  0  0  0  0  0  0  0  0  0
   -0.9115    1.3911    3.6134 H   0  0  0  0  0  0  0  0  0  0  0  0
    0.2752    0.0751    3.7502 H   0  0  0  0  0  0  0  0  0  0  0  0
  1  2  1  0  0  0  0
  2  3  1  0  0  0  0
  2  4  1  0  0  0  0
  2  5  1  0  0  0  0
  5  6  2  0  0  0  0
  5  7  1  0  0  0  0
  7  8  1  0  0  0  0
  7  9  1  0  0  0  0
  9 10  1  0  0  0  0
  9 11  1  0  0  0  0
  9 22  1  0  0  0  0
 11 12  1  0  0  0  0
 11 13  1  0  0  0  0
 11 14  1  0  0  0  0
 14 15  1  0  0  0  0
 14 20  2  0  0  0  0
 15 16  1  0  0  0  0
 15 17  1  0  0  0  0
 17 18  1  0  0  0  0
 17 19  2  0  0  0  0
 19 20  1  0  0  0  0
 20 21  1  0  0  0  0
 22 23  2  0  0  0  0
 22 24  1  0  0  0  0
 24 25  1  0  0  0  0
 24 26  1  0  0  0  0
 26 27  1  0  0  0  0
 26 28  1  0  0  0  0
 26 29  1  0  0  0  0
M  END
$$$$

  -OEChem-03222214043D

 29 29  0     1  0  0  0  0  0999 V2000
   -3.0403   -4.0398    0.5797 H   0  0  0  0  0  0  0  0  0  0  0  0
   -2.9768   -3.1237   -0.0147 C   0  0  0  0  0  0  0  0  0  0  0  0
   -3.8033   -2.4660    0.2640 H   0  0  0  0  0  0  0  0  0  0  0  0
   -3.0662   -3.3855   -1.0716 H   0  0  0  0  0  0  0  0  0  0  0  0
   -1.6517   -2.4301    0.2399 C   0  0  0  0  0  0  0  0  0  0  0  0
   -0.8830   -2.8839    1.0669 O   0  0  0  0  0  0  0  0  0  0  0  0
   -1.3347   -1.2805   -0.4579 N   0  0  0  0  0  0  0  0  0  0  0  0
   -1.9641   -1.0290   -1.2123 H   0  0  0  0  0  0  0  0  0  0  0  0
   -0.0017   -0.6448   -0.4380 C   0  0  1  0  0  0  0  0  0  0  0  0
    0.7410   -1.3677   -0.7952 H   0  0  0  0  0  0  0  0  0  0  0  0
   -0.0101    0.5816   -1.3698 C   0  0  0  0  0  0  0  0  0  0  0  0
   -0.9864    1.0760   -1.3650 H   0  0  0  0  0  0  0  0  0  0  0  0
    0.7216    1.3137   -1.0081 H   0  0  0  0  0  0  0  0  0  0  0  0
    0.3873    0.1935   -2.7701 C   0  0  0  0  0  0  0  0  0  0  0  0
   -0.4226   -0.2178   -3.8073 N   0  0  0  0  0  0  0  0  0  0  0  0
   -1.4343   -0.3143   -3.7878 H   0  0  0  0  0  0  0  0  0  0  0  0
    0.3717   -0.4361   -4.9182 C   0  0  0  0  0  0  0  0  0  0  0  0
    0.0122   -0.7678   -5.8882 H   0  0  0  0  0  0  0  0  0  0  0  0
    1.6248   -0.1801   -4.6346 N   0  0  0  0  0  0  0  0  0  0  0  0
    1.6511    0.2168   -3.3018 C   0  0  0  0  0  0  0  0  0  0  0  0
    2.5465    0.5073   -2.7598 H   0  0  0  0  0  0  0  0  0  0  0  0
    0.4616   -0.2008    0.9678 C   0  0  0  0  0  0  0  0  0  0  0  0
    1.6559   -0.1934    1.2351 O   0  0  0  0  0  0  0  0  0  0  0  0
   -0.4175    0.4617    1.8070 N   0  0  0  0  0  0  0  0  0  0  0  0
   -1.4035    0.3397    1.6013 H   0  0  0  0  0  0  0  0  0  0  0  0
   -0.0360    0.9299    3.1340 C   0  0  0  0  0  0  0  0  0  0  0  0
    0.7846    1.6519    3.0657 H   0  0  0  0  0  0  0  0  0  0  0  0
   -0.8845    1.4197    3.6210 H   0  0  0  0  0  0  0  0  0  0  0  0
    0.2856    0.0890    3.7576 H   0  0  0  0  0  0  0  0  0  0  0  0
  1  2  1  0  0  0  0
  2  3  1  0  0  0  0
  2  4  1  0  0  0  0
  2  5  1  0  0  0  0
  5  6  2  0  0  0  0
  5  7  1  0  0  0  0
  7  8  1  0  0  0  0
  7  9  1  0  0  0  0
  9 10  1  0  0  0  0
  9 11  1  0  0  0  0
  9 22  1  0  0  0  0
 11 12  1  0  0  0  0
 11 13  1  0  0  0  0
 11 14  1  0  0  0  0
 14 15  1  0  0  0  0
 14 20  2  0  0  0  0
 15 16  1  0  0  0  0
 15 17  1  0  0  0  0
 17 18  1  0  0  0  0
 17 19  2  0  0  0  0
 19 20  1  0  0  0  0
 20 21  1  0  0  0  0
 22 23  2  0  0  0  0
 22 24  1  0  0  0  0
 24 25  1  0  0  0  0
 24 26  1  0  0  0  0
 26 27  1  0  0  0  0
 26 28  1  0  0  0  0
 26 29  1  0  0  0  0
M  END
$$$$

  -OEChem-03222214043D

 29 29  0     1  0  0  0  0  0999 V2000
   -3.0433   -4.0345    0.5670 H   0  0  0  0  0  0  0  0  0  0  0  0
   -2.9606   -3.1352   -0.0501 C   0  0  0  0  0  0  0  0  0  0  0  0
   -3.8081   -2.4808    0.1667 H   0  0  0  0  0  0  0  0  0  0  0  0
   -2.9924   -3.4284   -1.1022 H   0  0  0  0  0  0  0  0  0  0  0  0
   -1.6588   -2.4162    0.2495 C   0  0  0  0  0  0  0  0  0  0  0  0
   -0.9188   -2.8451    1.1154 O   0  0  0  0  0  0  0  0  0  0  0  0
   -1.3331   -1.2718   -0.4529 N   0  0  0  0  0  0  0  0  0  0  0  0
   -1.9256   -1.0634   -1.2499 H   0  0  0  0  0  0  0  0  0  0  0  0
    0.0047   -0.6473   -0.4285 C   0  0  1  0  0  0  0  0  0  0  0  0
    0.7437   -1.3752   -0.7822 H   0  0  0  0  0  0  0  0  0  0  0  0
    0.0007    0.5824   -1.3569 C   0  0  0  0  0  0  0  0  0  0  0  0
   -0.9743    1.0795   -1.3458 H   0  0  0  0  0  0  0  0  0  0  0  0
    0.7363    1.3113   -0.9965 H   0  0  0  0  0  0  0  0  0  0  0  0
    0.3930    0.2004   -2.7599 C   0  0  0  0  0  0  0  0  0  0  0  0
   -0.4223    0.0736   -3.8644 N   0  0  0  0  0  0  0  0  0  0  0  0
   -1.4222    0.2549   -3.9051 H   0  0  0  0  0  0  0  0  0  0  0  0
    0.3654   -0.2683   -4.9484 C   0  0  0  0  0  0  0  0  0  0  0  0
    0.0019   -0.4319   -5.9591 H   0  0  0  0  0  0  0  0  0  0  0  0
    1.6198   -0.3632   -4.5824 N   0  0  0  0  0  0  0  0  0  0  0  0
    1.6555   -0.0678   -3.2235 C   0  0  0  0  0  0  0  0  0  0  0  0
    2.5564   -0.0504   -2.6168 H   0  0  0  0  0  0  0  0  0  0  0  0
    0.4658   -0.2012    0.9771 C   0  0  0  0  0  0  0  0  0  0  0  0
    1.6598   -0.1985    1.2462 O   0  0  0  0  0  0  0  0  0  0  0  0
   -0.4119    0.4719    1.8088 N   0  0  0  0  0  0  0  0  0  0  0  0
   -1.3978    0.3457    1.6040 H   0  0  0  0  0  0  0  0  0  0  0  0
   -0.0319    0.9404    3.1358 C   0  0  0  0  0  0  0  0  0  0  0  0
    0.7951    1.6552    3.0686 H   0  0  0  0  0  0  0  0  0  0  0  0
   -0.8783    1.4387    3.6178 H   0  0  0  0  0  0  0  0  0  0  0  0
    0.2797    0.0988    3.7635 H   0  0  0  0  0  0  0  0  0  0  0  0
  1  2  1  0  0  0  0
  2  3  1  0  0  0  0
  2  4  1  0  0  0  0
  2  5  1  0  0  0  0
  5  6  2  0  0  0  0
  5  7  1  0  0  0  0
  7  8  1  0  0  0  0
  7  9  1  0  0  0  0
  9 10  1  0  0  0  0
  9 11  1  0  0  0  0
  9 22  1  0  0  0  0
 11 12  1  0  0  0  0
 11 13  1  0  0  0  0
 11 14  1  0  0  0  0
 14 15  1  0  0  0  0
 14 20  2  0  0  0  0
 15 16  1  0  0  0  0
 15 17  1  0  0  0  0
 17 18  1  0  0  0  0
 17 19  2  0  0  0  0
 19 20  1  0  0  0  0
 20 21  1  0  0  0  0
 22 23  2  0  0  0  0
 22 24  1  0  0  0  0
 24 25  1  0  0  0  0
 24 26  1  0  0  0  0
 26 27  1  0  0  0  0
 26 28  1  0  0  0  0
 26 29  1  0  0  0  0
M  END
$$$$

  -OEChem-03222214043D

 29 29  0     1  0  0  0  0  0999 V2000
   -3.0097   -4.0694    0.5063 H   0  0  0  0  0  0  0  0  0  0  0  0
   -2.9528   -3.1386   -0.0654 C   0  0  0  0  0  0  0  0  0  0  0  0
   -3.8079   -2.5114    0.1969 H   0  0  0  0  0  0  0  0  0  0  0  0
   -2.9970   -3.3797   -1.1302 H   0  0  0  0  0  0  0  0  0  0  0  0
   -1.6596   -2.4112    0.2509 C   0  0  0  0  0  0  0  0  0  0  0  0
   -0.9309   -2.8315    1.1306 O   0  0  0  0  0  0  0  0  0  0  0  0
   -1.3282   -1.2691   -0.4525 N   0  0  0  0  0  0  0  0  0  0  0  0
   -1.9069   -1.0735   -1.2635 H   0  0  0  0  0  0  0  0  0  0  0  0
    0.0103   -0.6462   -0.4195 C   0  0  1  0  0  0  0  0  0  0  0  0
    0.7495   -1.3789   -0.7611 H   0  0  0  0  0  0  0  0  0  0  0  0
    0.0104    0.5802   -1.3541 C   0  0  0  0  0  0  0  0  0  0  0  0
   -0.9689    1.0685   -1.3477 H   0  0  0  0  0  0  0  0  0  0  0  0
    0.7379    1.3167   -0.9931 H   0  0  0  0  0  0  0  0  0  0  0  0
    0.4104    0.2050   -2.7578 C   0  0  0  0  0  0  0  0  0  0  0  0
   -0.3314    0.3533   -3.9101 N   0  0  0  0  0  0  0  0  0  0  0  0
   -1.2526    0.7784   -3.9876 H   0  0  0  0  0  0  0  0  0  0  0  0
    0.4198   -0.1111   -4.9742 C   0  0  0  0  0  0  0  0  0  0  0  0
    0.0988   -0.1161   -6.0120 H   0  0  0  0  0  0  0  0  0  0  0  0
    1.5813   -0.5447   -4.5508 N   0  0  0  0  0  0  0  0  0  0  0  0
    1.5949   -0.3485   -3.1737 C   0  0  0  0  0  0  0  0  0  0  0  0
    2.4257   -0.6000   -2.5204 H   0  0  0  0  0  0  0  0  0  0  0  0
    0.4658   -0.1950    0.9865 C   0  0  0  0  0  0  0  0  0  0  0  0
    1.6590   -0.1932    1.2595 O   0  0  0  0  0  0  0  0  0  0  0  0
   -0.4132    0.4832    1.8125 N   0  0  0  0  0  0  0  0  0  0  0  0
   -1.3985    0.3516    1.6081 H   0  0  0  0  0  0  0  0  0  0  0  0
   -0.0362    0.9477    3.1418 C   0  0  0  0  0  0  0  0  0  0  0  0
    0.7988    1.6536    3.0800 H   0  0  0  0  0  0  0  0  0  0  0  0
   -0.8801    1.4548    3.6188 H   0  0  0  0  0  0  0  0  0  0  0  0
    0.2634    0.1027    3.7709 H   0  0  0  0  0  0  0  0  0  0  0  0
  1  2  1  0  0  0  0
  2  3  1  0  0  0  0
  2  4  1  0  0  0  0
  2  5  1  0  0  0  0
  5  6  2  0  0  0  0
  5  7  1  0  0  0  0
  7  8  1  0  0  0  0
  7  9  1  0  0  0  0
  9 10  1  0  0  0  0
  9 11  1  0  0  0  0
  9 22  1  0  0  0  0
 11 12  1  0  0  0  0
 11 13  1  0  0  0  0
 11 14  1  0  0  0  0
 14 15  1  0  0  0  0
 14 20  2  0  0  0  0
 15 16  1  0  0  0  0
 15 17  1  0  0  0  0
 17 18  1  0  0  0  0
 17 19  2  0  0  0  0
 19 20  1  0  0  0  0
 20 21  1  0  0  0  0
 22 23  2  0  0  0  0
 22 24  1  0  0  0  0
 24 25  1  0  0  0  0
 24 26  1  0  0  0  0
 26 27  1  0  0  0  0
 26 28  1  0  0  0  0
 26 29  1  0  0  0  0
M  END
$$$$

  -OEChem-03222214043D

 29 29  0     1  0  0  0  0  0999 V2000
   -3.0135   -4.0667    0.5141 H   0  0  0  0  0  0  0  0  0  0  0  0
   -2.9496   -3.1366   -0.0580 C   0  0  0  0  0  0  0  0  0  0  0  0
   -3.8027   -2.5047    0.2001 H   0  0  0  0  0  0  0  0  0  0  0  0
   -2.9905   -3.3777   -1.1229 H   0  0  0  0  0  0  0  0  0  0  0  0
   -1.6537   -2.4161    0.2635 C   0  0  0  0  0  0  0  0  0  0  0  0
   -0.9359   -2.8333    1.1536 O   0  0  0  0  0  0  0  0  0  0  0  0
   -1.3062   -1.2844   -0.4489 N   0  0  0  0  0  0  0  0  0  0  0  0
   -1.8739   -1.0949   -1.2695 H   0  0  0  0  0  0  0  0  0  0  0  0
    0.0346   -0.6673   -0.4058 C   0  0  1  0  0  0  0  0  0  0  0  0
    0.7758   -1.4062   -0.7261 H   0  0  0  0  0  0  0  0  0  0  0  0
    0.0425    0.5542   -1.3489 C   0  0  0  0  0  0  0  0  0  0  0  0
   -0.9419    1.0323   -1.3474 H   0  0  0  0  0  0  0  0  0  0  0  0
    0.7599    1.2984   -0.9835 H   0  0  0  0  0  0  0  0  0  0  0  0
    0.4488    0.1966   -2.7578 C   0  0  0  0  0  0  0  0  0  0  0  0
   -0.1655    0.6175   -3.9177 N   0  0  0  0  0  0  0  0  0  0  0  0
   -0.9484    1.2639   -3.9870 H   0  0  0  0  0  0  0  0  0  0  0  0
    0.5005    0.0614   -4.9939 C   0  0  0  0  0  0  0  0  0  0  0  0
    0.2452    0.2202   -6.0378 H   0  0  0  0  0  0  0  0  0  0  0  0
    1.4880   -0.6891   -4.5724 N   0  0  0  0  0  0  0  0  0  0  0  0
    1.4743   -0.6108   -3.1838 C   0  0  0  0  0  0  0  0  0  0  0  0
    2.1778   -1.1210   -2.5323 H   0  0  0  0  0  0  0  0  0  0  0  0
    0.4693   -0.2026    1.0022 C   0  0  0  0  0  0  0  0  0  0  0  0
    1.6572   -0.2057    1.2970 O   0  0  0  0  0  0  0  0  0  0  0  0
   -0.4209    0.4882    1.8054 N   0  0  0  0  0  0  0  0  0  0  0  0
   -1.4029    0.3633    1.5818 H   0  0  0  0  0  0  0  0  0  0  0  0
   -0.0673    0.9636    3.1373 C   0  0  0  0  0  0  0  0  0  0  0  0
    0.7690    1.6687    3.0846 H   0  0  0  0  0  0  0  0  0  0  0  0
   -0.9196    1.4749    3.5946 H   0  0  0  0  0  0  0  0  0  0  0  0
    0.2204    0.1238    3.7787 H   0  0  0  0  0  0  0  0  0  0  0  0
  1  2  1  0  0  0  0
  2  3  1  0  0  0  0
  2  4  1  0  0  0  0
  2  5  1  0  0  0  0
  5  6  2  0  0  0  0
  5  7  1  0  0  0  0
  7  8  1  0  0  0  0
  7  9  1  0  0  0  0
  9 10  1  0  0  0  0
  9 11  1  0  0  0  0
  9 22  1  0  0  0  0
 11 12  1  0  0  0  0
 11 13  1  0  0  0  0
 11 14  1  0  0  0  0
 14 15  1  0  0  0  0
 14 20  2  0  0  0  0
 15 16  1  0  0  0  0
 15 17  1  0  0  0  0
 17 18  1  0  0  0  0
 17 19  2  0  0  0  0
 19 20  1  0  0  0  0
 20 21  1  0  0  0  0
 22 23  2  0  0  0  0
 22 24  1  0  0  0  0
 24 25  1  0  0  0  0
 24 26  1  0  0  0  0
 26 27  1  0  0  0  0
 26 28  1  0  0  0  0
 26 29  1  0  0  0  0
M  END
$$$$

  -OEChem-03222214043D

 29 29  0     1  0  0  0  0  0999 V2000
   -3.0539   -4.0386    0.5727 H   0  0  0  0  0  0  0  0  0  0  0  0
   -2.9538   -3.1425   -0.0465 C   0  0  0  0  0  0  0  0  0  0  0  0
   -3.8023   -2.4827    0.1496 H   0  0  0  0  0  0  0  0  0  0  0  0
   -2.9655   -3.4404   -1.0978 H   0  0  0  0  0  0  0  0  0  0  0  0
   -1.6548   -2.4286    0.2768 C   0  0  0  0  0  0  0  0  0  0  0  0
   -0.9443   -2.8434    1.1739 O   0  0  0  0  0  0  0  0  0  0  0  0
   -1.2945   -1.3057   -0.4429 N   0  0  0  0  0  0  0  0  0  0  0  0
   -1.8591   -1.1136   -1.2655 H   0  0  0  0  0  0  0  0  0  0  0  0
    0.0477   -0.6918   -0.3916 C   0  0  1  0  0  0  0  0  0  0  0  0
    0.7924   -1.4346   -0.6911 H   0  0  0  0  0  0  0  0  0  0  0  0
    0.0654    0.5217   -1.3463 C   0  0  0  0  0  0  0  0  0  0  0  0
   -0.9213    0.9955   -1.3532 H   0  0  0  0  0  0  0  0  0  0  0  0
    0.7761    1.2696   -0.9763 H   0  0  0  0  0  0  0  0  0  0  0  0
    0.4809    0.1770   -2.7583 C   0  0  0  0  0  0  0  0  0  0  0  0
    0.0587    0.8304   -3.8966 N   0  0  0  0  0  0  0  0  0  0  0  0
   -0.5404    1.6522   -3.9333 H   0  0  0  0  0  0  0  0  0  0  0  0
    0.6279    0.2162   -4.9961 C   0  0  0  0  0  0  0  0  0  0  0  0
    0.4819    0.5202   -6.0285 H   0  0  0  0  0  0  0  0  0  0  0  0
    1.3708   -0.7918   -4.6129 N   0  0  0  0  0  0  0  0  0  0  0  0
    1.2957   -0.8267   -3.2248 C   0  0  0  0  0  0  0  0  0  0  0  0
    1.8132   -1.5538   -2.6068 H   0  0  0  0  0  0  0  0  0  0  0  0
    0.4669   -0.2135    1.0169 C   0  0  0  0  0  0  0  0  0  0  0  0
    1.6516   -0.2150    1.3242 O   0  0  0  0  0  0  0  0  0  0  0  0
   -0.4294    0.4881    1.8043 N   0  0  0  0  0  0  0  0  0  0  0  0
   -1.4101    0.3619    1.5756 H   0  0  0  0  0  0  0  0  0  0  0  0
   -0.0833    0.9873    3.1295 C   0  0  0  0  0  0  0  0  0  0  0  0
    0.7602    1.6832    3.0692 H   0  0  0  0  0  0  0  0  0  0  0  0
   -0.9341    1.5163    3.5692 H   0  0  0  0  0  0  0  0  0  0  0  0
    0.1908    0.1581    3.7904 H   0  0  0  0  0  0  0  0  0  0  0  0
  1  2  1  0  0  0  0
  2  3  1  0  0  0  0
  2  4  1  0  0  0  0
  2  5  1  0  0  0  0
  5  6  2  0  0  0  0
  5  7  1  0  0  0  0
  7  8  1  0  0  0  0
  7  9  1  0  0  0  0
  9 10  1  0  0  0  0
  9 11  1  0  0  0  0
  9 22  1  0  0  0  0
 11 12  1  0  0  0  0
 11 13  1  0  0  0  0
 11 14  1  0  0  0  0
 14 15  1  0  0  0  0
 14 20  2  0  0  0  0
 15 16  1  0  0  0  0
 15 17  1  0  0  0  0
 17 18  1  0  0  0  0
 17 19  2  0  0  0  0
 19 20  1  0  0  0  0
 20 21  1  0  0  0  0
 22 23  2  0  0  0  0
 22 24  1  0  0  0  0
 24 25  1  0  0  0  0
 24 26  1  0  0  0  0
 26 27  1  0  0  0  0
 26 28  1  0  0  0  0
 26 29  1  0  0  0  0
M  END
$$$$

  -OEChem-03222214043D

 29 29  0     1  0  0  0  0  0999 V2000
   -3.0814   -4.0100    0.6327 H   0  0  0  0  0  0  0  0  0  0  0  0
   -2.9572   -3.1427   -0.0222 C   0  0  0  0  0  0  0  0  0  0  0  0
   -3.7990   -2.4633    0.1303 H   0  0  0  0  0  0  0  0  0  0  0  0
   -2.9549   -3.4853   -1.0598 H   0  0  0  0  0  0  0  0  0  0  0  0
   -1.6535   -2.4339    0.2931 C   0  0  0  0  0  0  0  0  0  0  0  0
   -0.9430   -2.8475    1.1907 O   0  0  0  0  0  0  0  0  0  0  0  0
   -1.2869   -1.3189   -0.4359 N   0  0  0  0  0  0  0  0  0  0  0  0
   -1.8554   -1.1238   -1.2553 H   0  0  0  0  0  0  0  0  0  0  0  0
    0.0568   -0.7077   -0.3866 C   0  0  1  0  0  0  0  0  0  0  0  0
    0.8056   -1.4514   -0.6736 H   0  0  0  0  0  0  0  0  0  0  0  0
    0.0827    0.4988   -1.3498 C   0  0  0  0  0  0  0  0  0  0  0  0
   -0.9004    0.9801   -1.3610 H   0  0  0  0  0  0  0  0  0  0  0  0
    0.7986    1.2414   -0.9790 H   0  0  0  0  0  0  0  0  0  0  0  0
    0.5000    0.1556   -2.7628 C   0  0  0  0  0  0  0  0  0  0  0  0
    0.3232    0.9747   -3.8577 N   0  0  0  0  0  0  0  0  0  0  0  0
   -0.0524    1.9207   -3.8480 H   0  0  0  0  0  0  0  0  0  0  0  0
    0.7883    0.3203   -4.9824 C   0  0  0  0  0  0  0  0  0  0  0  0
    0.7857    0.7274   -5.9895 H   0  0  0  0  0  0  0  0  0  0  0  0
    1.2312   -0.8686   -4.6578 N   0  0  0  0  0  0  0  0  0  0  0  0
    1.0638   -0.9858   -3.2823 C   0  0  0  0  0  0  0  0  0  0  0  0
    1.3361   -1.8693   -2.7137 H   0  0  0  0  0  0  0  0  0  0  0  0
    0.4669   -0.2186    1.0213 C   0  0  0  0  0  0  0  0  0  0  0  0
    1.6492   -0.2198    1.3379 O   0  0  0  0  0  0  0  0  0  0  0  0
   -0.4343    0.4907    1.7963 N   0  0  0  0  0  0  0  0  0  0  0  0
   -1.4132    0.3628    1.5611 H   0  0  0  0  0  0  0  0  0  0  0  0
   -0.0998    0.9945    3.1228 C   0  0  0  0  0  0  0  0  0  0  0  0
    0.7437    1.6907    3.0675 H   0  0  0  0  0  0  0  0  0  0  0  0
   -0.9546    1.5245    3.5536 H   0  0  0  0  0  0  0  0  0  0  0  0
    0.1686    0.1677    3.7889 H   0  0  0  0  0  0  0  0  0  0  0  0
  1  2  1  0  0  0  0
  2  3  1  0  0  0  0
  2  4  1  0  0  0  0
  2  5  1  0  0  0  0
  5  6  2  0  0  0  0
  5  7  1  0  0  0  0
  7  8  1  0  0  0  0
  7  9  1  0  0  0  0
  9 10  1  0  0  0  0
  9 11  1  0  0  0  0
  9 22  1  0  0  0  0
 11 12  1  0  0  0  0
 11 13  1  0  0  0  0
 11 14  1  0  0  0  0
 14 15  1  0  0  0  0
 14 20  2  0  0  0  0
 15 16  1  0  0  0  0
 15 17  1  0  0  0  0
 17 18  1  0  0  0  0
 17 19  2  0  0  0  0
 19 20  1  0  0  0  0
 20 21  1  0  0  0  0
 22 23  2  0  0  0  0
 22 24  1  0  0  0  0
 24 25  1  0  0  0  0
 24 26  1  0  0  0  0
 26 27  1  0  0  0  0
 26 28  1  0  0  0  0
 26 29  1  0  0  0  0
M  END
$$$$

  -OEChem-03222214043D

 29 29  0     1  0  0  0  0  0999 V2000
   -3.0455   -4.0648    0.5729 H   0  0  0  0  0  0  0  0  0  0  0  0
   -2.9707   -3.1418   -0.0090 C   0  0  0  0  0  0  0  0  0  0  0  0
   -3.8061   -2.4897    0.2562 H   0  0  0  0  0  0  0  0  0  0  0  0
   -3.0336   -3.3920   -1.0708 H   0  0  0  0  0  0  0  0  0  0  0  0
   -1.6546   -2.4465    0.2845 C   0  0  0  0  0  0  0  0  0  0  0  0
   -0.9261   -2.8745    1.1608 O   0  0  0  0  0  0  0  0  0  0  0  0
   -1.2944   -1.3268   -0.4397 N   0  0  0  0  0  0  0  0  0  0  0  0
   -1.8879   -1.0982   -1.2328 H   0  0  0  0  0  0  0  0  0  0  0  0
    0.0460   -0.7077   -0.3938 C   0  0  1  0  0  0  0  0  0  0  0  0
    0.7966   -1.4433   -0.7029 H   0  0  0  0  0  0  0  0  0  0  0  0
    0.0683    0.4929   -1.3561 C   0  0  0  0  0  0  0  0  0  0  0  0
   -0.8116    1.1214   -1.1846 H   0  0  0  0  0  0  0  0  0  0  0  0
    0.9531    1.1022   -1.1395 H   0  0  0  0  0  0  0  0  0  0  0  0
    0.1354    0.0934   -2.8123 C   0  0  0  0  0  0  0  0  0  0  0  0
    0.1672    0.9649   -3.8792 N   0  0  0  0  0  0  0  0  0  0  0  0
    0.1853    1.9816   -3.8269 H   0  0  0  0  0  0  0  0  0  0  0  0
    0.2101    0.2300   -5.0491 C   0  0  0  0  0  0  0  0  0  0  0  0
    0.2443    0.6498   -6.0505 H   0  0  0  0  0  0  0  0  0  0  0  0
    0.1989   -1.0515   -4.7748 N   0  0  0  0  0  0  0  0  0  0  0  0
    0.1655   -1.1531   -3.3890 C   0  0  0  0  0  0  0  0  0  0  0  0
    0.1524   -2.0939   -2.8468 H   0  0  0  0  0  0  0  0  0  0  0  0
    0.4680   -0.2189    1.0093 C   0  0  0  0  0  0  0  0  0  0  0  0
    1.6539   -0.2078    1.3121 O   0  0  0  0  0  0  0  0  0  0  0  0
   -0.4307    0.4846    1.7920 N   0  0  0  0  0  0  0  0  0  0  0  0
   -1.4109    0.3525    1.5639 H   0  0  0  0  0  0  0  0  0  0  0  0
   -0.0881    0.9920    3.1150 C   0  0  0  0  0  0  0  0  0  0  0  0
    0.7495    1.6947    3.0523 H   0  0  0  0  0  0  0  0  0  0  0  0
   -0.9433    1.5155    3.5525 H   0  0  0  0  0  0  0  0  0  0  0  0
    0.1925    0.1677    3.7790 H   0  0  0  0  0  0  0  0  0  0  0  0
  1  2  1  0  0  0  0
  2  3  1  0  0  0  0
  2  4  1  0  0  0  0
  2  5  1  0  0  0  0
  5  6  2  0  0  0  0
  5  7  1  0  0  0  0
  7  8  1  0  0  0  0
  7  9  1  0  0  0  0
  9 10  1  0  0  0  0
  9 11  1  0  0  0  0
  9 22  1  0  0  0  0
 11 12  1  0  0  0  0
 11 13  1  0  0  0  0
 11 14  1  0  0  0  0
 14 15  1  0  0  0  0
 14 20  2  0  0  0  0
 15 16  1  0  0  0  0
 15 17  1  0  0  0  0
 17 18  1  0  0  0  0
 17 19  2  0  0  0  0
 19 20  1  0  0  0  0
 20 21  1  0  0  0  0
 22 23  2  0  0  0  0
 22 24  1  0  0  0  0
 24 25  1  0  0  0  0
 24 26  1  0  0  0  0
 26 27  1  0  0  0  0
 26 28  1  0  0  0  0
 26 29  1  0  0  0  0
M  END
$$$$

  -OEChem-03222214043D

 29 29  0     1  0  0  0  0  0999 V2000
   -3.0638   -4.0581    0.6048 H   0  0  0  0  0  0  0  0  0  0  0  0
   -2.9904   -3.1361    0.0208 C   0  0  0  0  0  0  0  0  0  0  0  0
   -3.8133   -2.4747    0.3022 H   0  0  0  0  0  0  0  0  0  0  0  0
   -3.0769   -3.3860   -1.0395 H   0  0  0  0  0  0  0  0  0  0  0  0
   -1.6614   -2.4550    0.2877 C   0  0  0  0  0  0  0  0  0  0  0  0
   -0.9141   -2.8974    1.1406 O   0  0  0  0  0  0  0  0  0  0  0  0
   -1.3101   -1.3314   -0.4348 N   0  0  0  0  0  0  0  0  0  0  0  0
   -1.9260   -1.0814   -1.2037 H   0  0  0  0  0  0  0  0  0  0  0  0
    0.0288   -0.7077   -0.3999 C   0  0  1  0  0  0  0  0  0  0  0  0
    0.7756   -1.4436   -0.7191 H   0  0  0  0  0  0  0  0  0  0  0  0
    0.0499    0.4904   -1.3651 C   0  0  0  0  0  0  0  0  0  0  0  0
   -0.8241    1.1265   -1.1927 H   0  0  0  0  0  0  0  0  0  0  0  0
    0.9402    1.0925   -1.1502 H   0  0  0  0  0  0  0  0  0  0  0  0
    0.1141    0.0887   -2.8213 C   0  0  0  0  0  0  0  0  0  0  0  0
    0.4337    0.9249   -3.8690 N   0  0  0  0  0  0  0  0  0  0  0  0
    0.6761    1.9114   -3.8005 H   0  0  0  0  0  0  0  0  0  0  0  0
    0.4129    0.1932   -5.0416 C   0  0  0  0  0  0  0  0  0  0  0  0
    0.6235    0.5899   -6.0308 H   0  0  0  0  0  0  0  0  0  0  0  0
    0.0986   -1.0534   -4.7870 N   0  0  0  0  0  0  0  0  0  0  0  0
   -0.0707   -1.1383   -3.4104 C   0  0  0  0  0  0  0  0  0  0  0  0
   -0.3180   -2.0545   -2.8830 H   0  0  0  0  0  0  0  0  0  0  0  0
    0.4626   -0.2229    1.0010 C   0  0  0  0  0  0  0  0  0  0  0  0
    1.6513   -0.2068    1.2926 O   0  0  0  0  0  0  0  0  0  0  0  0
   -0.4312    0.4744    1.7948 N   0  0  0  0  0  0  0  0  0  0  0  0
   -1.4132    0.3437    1.5739 H   0  0  0  0  0  0  0  0  0  0  0  0
   -0.0775    0.9841    3.1138 C   0  0  0  0  0  0  0  0  0  0  0  0
    0.7579    1.6885    3.0420 H   0  0  0  0  0  0  0  0  0  0  0  0
   -0.9299    1.5063    3.5584 H   0  0  0  0  0  0  0  0  0  0  0  0
    0.2113    0.1613    3.7762 H   0  0  0  0  0  0  0  0  0  0  0  0
  1  2  1  0  0  0  0
  2  3  1  0  0  0  0
  2  4  1  0  0  0  0
  2  5  1  0  0  0  0
  5  6  2  0  0  0  0
  5  7  1  0  0  0  0
  7  8  1  0  0  0  0
  7  9  1  0  0  0  0
  9 10  1  0  0  0  0
  9 11  1  0  0  0  0
  9 22  1  0  0  0  0
 11 12  1  0  0  0  0
 11 13  1  0  0  0  0
 11 14  1  0  0  0  0
 14 15  1  0  0  0  0
 14 20  2  0  0  0  0
 15 16  1  0  0  0  0
 15 17  1  0  0  0  0
 17 18  1  0  0  0  0
 17 19  2  0  0  0  0
 19 20  1  0  0  0  0
 20 21  1  0  0  0  0
 22 23  2  0  0  0  0
 22 24  1  0  0  0  0
 24 25  1  0  0  0  0
 24 26  1  0  0  0  0
 26 27  1  0  0  0  0
 26 28  1  0  0  0  0
 26 29  1  0  0  0  0
M  END
$$$$

  -OEChem-03222214043D

 29 29  0     1  0  0  0  0  0999 V2000
   -3.0804   -4.0441    0.6402 H   0  0  0  0  0  0  0  0  0  0  0  0
   -3.0037   -3.1311    0.0430 C   0  0  0  0  0  0  0  0  0  0  0  0
   -3.8172   -2.4578    0.3234 H   0  0  0  0  0  0  0  0  0  0  0  0
   -3.1026   -3.3942   -1.0129 H   0  0  0  0  0  0  0  0  0  0  0  0
   -1.6654   -2.4600    0.2877 C   0  0  0  0  0  0  0  0  0  0  0  0
   -0.9040   -2.9122    1.1228 O   0  0  0  0  0  0  0  0  0  0  0  0
   -1.3228   -1.3327   -0.4329 N   0  0  0  0  0  0  0  0  0  0  0  0
   -1.9594   -1.0621   -1.1773 H   0  0  0  0  0  0  0  0  0  0  0  0
    0.0147   -0.7053   -0.4071 C   0  0  1  0  0  0  0  0  0  0  0  0
    0.7575   -1.4414   -0.7354 H   0  0  0  0  0  0  0  0  0  0  0  0
    0.0360    0.4925   -1.3728 C   0  0  0  0  0  0  0  0  0  0  0  0
   -0.8332    1.1350   -1.2002 H   0  0  0  0  0  0  0  0  0  0  0  0
    0.9296    1.0892   -1.1572 H   0  0  0  0  0  0  0  0  0  0  0  0
    0.0978    0.0905   -2.8293 C   0  0  0  0  0  0  0  0  0  0  0  0
    0.6873    0.8232   -3.8368 N   0  0  0  0  0  0  0  0  0  0  0  0
    1.1441    1.7276   -3.7355 H   0  0  0  0  0  0  0  0  0  0  0  0
    0.5901    0.1119   -5.0178 C   0  0  0  0  0  0  0  0  0  0  0  0
    0.9615    0.4470   -5.9823 H   0  0  0  0  0  0  0  0  0  0  0  0
   -0.0188   -1.0292   -4.8055 N   0  0  0  0  0  0  0  0  0  0  0  0
   -0.3093   -1.0664   -3.4475 C   0  0  0  0  0  0  0  0  0  0  0  0
   -0.7896   -1.9048   -2.9534 H   0  0  0  0  0  0  0  0  0  0  0  0
    0.4585   -0.2253    0.9922 C   0  0  0  0  0  0  0  0  0  0  0  0
    1.6492   -0.2086    1.2750 O   0  0  0  0  0  0  0  0  0  0  0  0
   -0.4305    0.4662    1.7965 N   0  0  0  0  0  0  0  0  0  0  0  0
   -1.4139    0.3414    1.5791 H   0  0  0  0  0  0  0  0  0  0  0  0
   -0.0682    0.9741    3.1140 C   0  0  0  0  0  0  0  0  0  0  0  0
    0.7613    1.6850    3.0371 H   0  0  0  0  0  0  0  0  0  0  0  0
   -0.9202    1.4885    3.5686 H   0  0  0  0  0  0  0  0  0  0  0  0
    0.2327    0.1514    3.7715 H   0  0  0  0  0  0  0  0  0  0  0  0
  1  2  1  0  0  0  0
  2  3  1  0  0  0  0
  2  4  1  0  0  0  0
  2  5  1  0  0  0  0
  5  6  2  0  0  0  0
  5  7  1  0  0  0  0
  7  8  1  0  0  0  0
  7  9  1  0  0  0  0
  9 10  1  0  0  0  0
  9 11  1  0  0  0  0
  9 22  1  0  0  0  0
 11 12  1  0  0  0  0
 11 13  1  0  0  0  0
 11 14  1  0  0  0  0
 14 15  1  0  0  0  0
 14 20  2  0  0  0  0
 15 16  1  0  0  0  0
 15 17  1  0  0  0  0
 17 18  1  0  0  0  0
 17 19  2  0  0  0  0
 19 20  1  0  0  0  0
 20 21  1  0  0  0  0
 22 23  2  0  0  0  0
 22 24  1  0  0  0  0
 24 25  1  0  0  0  0
 24 26  1  0  0  0  0
 26 27  1  0  0  0  0
 26 28  1  0  0  0  0
 26 29  1  0  0  0  0
M  END
$$$$

  -OEChem-03222214043D

 29 29  0     1  0  0  0  0  0999 V2000
   -3.0694   -4.0575    0.6360 H   0  0  0  0  0  0  0  0  0  0  0  0
   -3.0022   -3.1382    0.0471 C   0  0  0  0  0  0  0  0  0  0  0  0
   -3.8139   -2.4698    0.3434 H   0  0  0  0  0  0  0  0  0  0  0  0
   -3.1133   -3.3911   -1.0102 H   0  0  0  0  0  0  0  0  0  0  0  0
   -1.6630   -2.4659    0.2829 C   0  0  0  0  0  0  0  0  0  0  0  0
   -0.8922   -2.9218    1.1074 O   0  0  0  0  0  0  0  0  0  0  0  0
   -1.3300   -1.3330   -0.4333 N   0  0  0  0  0  0  0  0  0  0  0  0
   -1.9788   -1.0518   -1.1623 H   0  0  0  0  0  0  0  0  0  0  0  0
    0.0036   -0.6985   -0.4113 C   0  0  1  0  0  0  0  0  0  0  0  0
    0.7460   -1.4330   -0.7443 H   0  0  0  0  0  0  0  0  0  0  0  0
    0.0319    0.5007   -1.3750 C   0  0  0  0  0  0  0  0  0  0  0  0
   -0.8387    1.1429   -1.2088 H   0  0  0  0  0  0  0  0  0  0  0  0
    0.9231    1.0995   -1.1550 H   0  0  0  0  0  0  0  0  0  0  0  0
    0.0997    0.0906   -2.8280 C   0  0  0  0  0  0  0  0  0  0  0  0
    0.9269    0.6439   -3.7810 N   0  0  0  0  0  0  0  0  0  0  0  0
    1.5957    1.3977   -3.6339 H   0  0  0  0  0  0  0  0  0  0  0  0
    0.7291   -0.0190   -4.9774 C   0  0  0  0  0  0  0  0  0  0  0  0
    1.2445    0.2028   -5.9075 H   0  0  0  0  0  0  0  0  0  0  0  0
   -0.1740   -0.9573   -4.8271 N   0  0  0  0  0  0  0  0  0  0  0  0
   -0.5616   -0.9109   -3.4941 C   0  0  0  0  0  0  0  0  0  0  0  0
   -1.2906   -1.5818   -3.0516 H   0  0  0  0  0  0  0  0  0  0  0  0
    0.4538   -0.2225    0.9875 C   0  0  0  0  0  0  0  0  0  0  0  0
    1.6472   -0.1933    1.2586 O   0  0  0  0  0  0  0  0  0  0  0  0
   -0.4337    0.4605    1.8009 N   0  0  0  0  0  0  0  0  0  0  0  0
   -1.4182    0.3236    1.5954 H   0  0  0  0  0  0  0  0  0  0  0  0
   -0.0617    0.9721    3.1145 C   0  0  0  0  0  0  0  0  0  0  0  0
    0.7655    1.6846    3.0295 H   0  0  0  0  0  0  0  0  0  0  0  0
   -0.9109    1.4857    3.5749 H   0  0  0  0  0  0  0  0  0  0  0  0
    0.2465    0.1511    3.7705 H   0  0  0  0  0  0  0  0  0  0  0  0
  1  2  1  0  0  0  0
  2  3  1  0  0  0  0
  2  4  1  0  0  0  0
  2  5  1  0  0  0  0
  5  6  2  0  0  0  0
  5  7  1  0  0  0  0
  7  8  1  0  0  0  0
  7  9  1  0  0  0  0
  9 10  1  0  0  0  0
  9 11  1  0  0  0  0
  9 22  1  0  0  0  0
 11 12  1  0  0  0  0
 11 13  1  0  0  0  0
 11 14  1  0  0  0  0
 14 15  1  0  0  0  0
 14 20  2  0  0  0  0
 15 16  1  0  0  0  0
 15 17  1  0  0  0  0
 17 18  1  0  0  0  0
 17 19  2  0  0  0  0
 19 20  1  0  0  0  0
 20 21  1  0  0  0  0
 22 23  2  0  0  0  0
 22 24  1  0  0  0  0
 24 25  1  0  0  0  0
 24 26  1  0  0  0  0
 26 27  1  0  0  0  0
 26 28  1  0  0  0  0
 26 29  1  0  0  0  0
M  END
$$$$

  -OEChem-03222214043D

 29 29  0     1  0  0  0  0  0999 V2000
   -3.0441   -4.0743    0.6156 H   0  0  0  0  0  0  0  0  0  0  0  0
   -2.9845   -3.1493    0.0348 C   0  0  0  0  0  0  0  0  0  0  0  0
   -3.8043   -2.4922    0.3341 H   0  0  0  0  0  0  0  0  0  0  0  0
   -3.0893   -3.3944   -1.0249 H   0  0  0  0  0  0  0  0  0  0  0  0
   -1.6535   -2.4644    0.2810 C   0  0  0  0  0  0  0  0  0  0  0  0
   -0.8884   -2.9097    1.1167 O   0  0  0  0  0  0  0  0  0  0  0  0
   -1.3247   -1.3297   -0.4348 N   0  0  0  0  0  0  0  0  0  0  0  0
   -1.9642   -1.0656   -1.1776 H   0  0  0  0  0  0  0  0  0  0  0  0
    0.0073   -0.6919   -0.4102 C   0  0  1  0  0  0  0  0  0  0  0  0
    0.7501   -1.4264   -0.7415 H   0  0  0  0  0  0  0  0  0  0  0  0
    0.0397    0.5084   -1.3719 C   0  0  0  0  0  0  0  0  0  0  0  0
   -0.8411    1.1390   -1.2141 H   0  0  0  0  0  0  0  0  0  0  0  0
    0.9213    1.1215   -1.1528 H   0  0  0  0  0  0  0  0  0  0  0  0
    0.1124    0.0762   -2.8164 C   0  0  0  0  0  0  0  0  0  0  0  0
    1.1134    0.3826   -3.7122 N   0  0  0  0  0  0  0  0  0  0  0  0
    1.9598    0.9128   -3.5121 H   0  0  0  0  0  0  0  0  0  0  0  0
    0.8019   -0.1878   -4.9323 C   0  0  0  0  0  0  0  0  0  0  0  0
    1.4130   -0.1215   -5.8280 H   0  0  0  0  0  0  0  0  0  0  0  0
   -0.3426   -0.8231   -4.8525 N   0  0  0  0  0  0  0  0  0  0  0  0
   -0.7814   -0.6665   -3.5440 C   0  0  0  0  0  0  0  0  0  0  0  0
   -1.7107   -1.0745   -3.1595 H   0  0  0  0  0  0  0  0  0  0  0  0
    0.4543   -0.2162    0.9894 C   0  0  0  0  0  0  0  0  0  0  0  0
    1.6474   -0.1871    1.2626 O   0  0  0  0  0  0  0  0  0  0  0  0
   -0.4356    0.4638    1.8024 N   0  0  0  0  0  0  0  0  0  0  0  0
   -1.4193    0.3294    1.5918 H   0  0  0  0  0  0  0  0  0  0  0  0
   -0.0687    0.9698    3.1193 C   0  0  0  0  0  0  0  0  0  0  0  0
    0.7547    1.6873    3.0397 H   0  0  0  0  0  0  0  0  0  0  0  0
   -0.9217    1.4759    3.5812 H   0  0  0  0  0  0  0  0  0  0  0  0
    0.2431    0.1471    3.7714 H   0  0  0  0  0  0  0  0  0  0  0  0
  1  2  1  0  0  0  0
  2  3  1  0  0  0  0
  2  4  1  0  0  0  0
  2  5  1  0  0  0  0
  5  6  2  0  0  0  0
  5  7  1  0  0  0  0
  7  8  1  0  0  0  0
  7  9  1  0  0  0  0
  9 10  1  0  0  0  0
  9 11  1  0  0  0  0
  9 22  1  0  0  0  0
 11 12  1  0  0  0  0
 11 13  1  0  0  0  0
 11 14  1  0  0  0  0
 14 15  1  0  0  0  0
 14 20  2  0  0  0  0
 15 16  1  0  0  0  0
 15 17  1  0  0  0  0
 17 18  1  0  0  0  0
 17 19  2  0  0  0  0
 19 20  1  0  0  0  0
 20 21  1  0  0  0  0
 22 23  2  0  0  0  0
 22 24  1  0  0  0  0
 24 25  1  0  0  0  0
 24 26  1  0  0  0  0
 26 27  1  0  0  0  0
 26 28  1  0  0  0  0
 26 29  1  0  0  0  0
M  END
$$$$

  -OEChem-03222214043D

 29 29  0     1  0  0  0  0  0999 V2000
   -3.0354   -4.0818    0.5960 H   0  0  0  0  0  0  0  0  0  0  0  0
   -2.9698   -3.1661    0.0013 C   0  0  0  0  0  0  0  0  0  0  0  0
   -3.8106   -2.5176    0.2591 H   0  0  0  0  0  0  0  0  0  0  0  0
   -3.0318   -3.4307   -1.0572 H   0  0  0  0  0  0  0  0  0  0  0  0
   -1.6602   -2.4544    0.2837 C   0  0  0  0  0  0  0  0  0  0  0  0
   -0.9136   -2.8799    1.1460 O   0  0  0  0  0  0  0  0  0  0  0  0
   -1.3290   -1.3216   -0.4338 N   0  0  0  0  0  0  0  0  0  0  0  0
   -1.9343   -1.1025   -1.2187 H   0  0  0  0  0  0  0  0  0  0  0  0
    0.0057   -0.6900   -0.4044 C   0  0  1  0  0  0  0  0  0  0  0  0
    0.7473   -1.4252   -0.7377 H   0  0  0  0  0  0  0  0  0  0  0  0
    0.0353    0.5119   -1.3623 C   0  0  0  0  0  0  0  0  0  0  0  0
   -0.8521    1.1336   -1.2053 H   0  0  0  0  0  0  0  0  0  0  0  0
    0.9111    1.1355   -1.1512 H   0  0  0  0  0  0  0  0  0  0  0  0
    0.1030    0.0574   -2.7974 C   0  0  0  0  0  0  0  0  0  0  0  0
    1.2033    0.0881   -3.6250 N   0  0  0  0  0  0  0  0  0  0  0  0
    2.1461    0.3738   -3.3654 H   0  0  0  0  0  0  0  0  0  0  0  0
    0.8241   -0.3692   -4.8733 C   0  0  0  0  0  0  0  0  0  0  0  0
    1.4860   -0.4716   -5.7286 H   0  0  0  0  0  0  0  0  0  0  0  0
   -0.4547   -0.6625   -4.8761 N   0  0  0  0  0  0  0  0  0  0  0  0
   -0.9172   -0.3884   -3.5955 C   0  0  0  0  0  0  0  0  0  0  0  0
   -1.9481   -0.5067   -3.2765 H   0  0  0  0  0  0  0  0  0  0  0  0
    0.4555   -0.2136    0.9938 C   0  0  0  0  0  0  0  0  0  0  0  0
    1.6492   -0.1932    1.2652 O   0  0  0  0  0  0  0  0  0  0  0  0
   -0.4294    0.4732    1.8065 N   0  0  0  0  0  0  0  0  0  0  0  0
   -1.4143    0.3409    1.5995 H   0  0  0  0  0  0  0  0  0  0  0  0
   -0.0570    0.9794    3.1217 C   0  0  0  0  0  0  0  0  0  0  0  0
    0.7685    1.6941    3.0385 H   0  0  0  0  0  0  0  0  0  0  0  0
   -0.9067    1.4891    3.5856 H   0  0  0  0  0  0  0  0  0  0  0  0
    0.2539    0.1564    3.7739 H   0  0  0  0  0  0  0  0  0  0  0  0
  1  2  1  0  0  0  0
  2  3  1  0  0  0  0
  2  4  1  0  0  0  0
  2  5  1  0  0  0  0
  5  6  2  0  0  0  0
  5  7  1  0  0  0  0
  7  8  1  0  0  0  0
  7  9  1  0  0  0  0
  9 10  1  0  0  0  0
  9 11  1  0  0  0  0
  9 22  1  0  0  0  0
 11 12  1  0  0  0  0
 11 13  1  0  0  0  0
 11 14  1  0  0  0  0
 14 15  1  0  0  0  0
 14 20  2  0  0  0  0
 15 16  1  0  0  0  0
 15 17  1  0  0  0  0
 17 18  1  0  0  0  0
 17 19  2  0  0  0  0
 19 20  1  0  0  0  0
 20 21  1  0  0  0  0
 22 23  2  0  0  0  0
 22 24  1  0  0  0  0
 24 25  1  0  0  0  0
 24 26  1  0  0  0  0
 26 27  1  0  0  0  0
 26 28  1  0  0  0  0
 26 29  1  0  0  0  0
M  END
$$$$

  -OEChem-03222214043D

 29 29  0     1  0  0  0  0  0999 V2000
   -3.0275   -4.0927    0.5719 H   0  0  0  0  0  0  0  0  0  0  0  0
   -2.9712   -3.1674   -0.0083 C   0  0  0  0  0  0  0  0  0  0  0  0
   -3.8177   -2.5313    0.2602 H   0  0  0  0  0  0  0  0  0  0  0  0
   -3.0318   -3.4164   -1.0705 H   0  0  0  0  0  0  0  0  0  0  0  0
   -1.6682   -2.4477    0.2838 C   0  0  0  0  0  0  0  0  0  0  0  0
   -0.9284   -2.8656    1.1558 O   0  0  0  0  0  0  0  0  0  0  0  0
   -1.3368   -1.3153   -0.4341 N   0  0  0  0  0  0  0  0  0  0  0  0
   -1.9270   -1.1155   -1.2361 H   0  0  0  0  0  0  0  0  0  0  0  0
   -0.0005   -0.6873   -0.4053 C   0  0  1  0  0  0  0  0  0  0  0  0
    0.7389   -1.4230   -0.7421 H   0  0  0  0  0  0  0  0  0  0  0  0
    0.0202    0.5157   -1.3607 C   0  0  0  0  0  0  0  0  0  0  0  0
   -0.8681    1.1348   -1.1980 H   0  0  0  0  0  0  0  0  0  0  0  0
    0.8963    1.1420   -1.1595 H   0  0  0  0  0  0  0  0  0  0  0  0
    0.0798    0.0509   -2.7911 C   0  0  0  0  0  0  0  0  0  0  0  0
    1.2112   -0.1930   -3.5367 N   0  0  0  0  0  0  0  0  0  0  0  0
    2.1743   -0.1371   -3.2087 H   0  0  0  0  0  0  0  0  0  0  0  0
    0.8222   -0.5459   -4.8153 C   0  0  0  0  0  0  0  0  0  0  0  0
    1.4990   -0.8091   -5.6233 H   0  0  0  0  0  0  0  0  0  0  0  0
   -0.4862   -0.5172   -4.9122 N   0  0  0  0  0  0  0  0  0  0  0  0
   -0.9592   -0.1296   -3.6648 C   0  0  0  0  0  0  0  0  0  0  0  0
   -2.0072    0.0128   -3.4200 H   0  0  0  0  0  0  0  0  0  0  0  0
    0.4565   -0.2111    0.9903 C   0  0  0  0  0  0  0  0  0  0  0  0
    1.6518   -0.1965    1.2559 O   0  0  0  0  0  0  0  0  0  0  0  0
   -0.4224    0.4792    1.8060 N   0  0  0  0  0  0  0  0  0  0  0  0
   -1.4084    0.3481    1.6033 H   0  0  0  0  0  0  0  0  0  0  0  0
   -0.0443    0.9793    3.1219 C   0  0  0  0  0  0  0  0  0  0  0  0
    0.7857    1.6890    3.0396 H   0  0  0  0  0  0  0  0  0  0  0  0
   -0.8900    1.4928    3.5886 H   0  0  0  0  0  0  0  0  0  0  0  0
    0.2620    0.1522    3.7711 H   0  0  0  0  0  0  0  0  0  0  0  0
  1  2  1  0  0  0  0
  2  3  1  0  0  0  0
  2  4  1  0  0  0  0
  2  5  1  0  0  0  0
  5  6  2  0  0  0  0
  5  7  1  0  0  0  0
  7  8  1  0  0  0  0
  7  9  1  0  0  0  0
  9 10  1  0  0  0  0
  9 11  1  0  0  0  0
  9 22  1  0  0  0  0
 11 12  1  0  0  0  0
 11 13  1  0  0  0  0
 11 14  1  0  0  0  0
 14 15  1  0  0  0  0
 14 20  2  0  0  0  0
 15 16  1  0  0  0  0
 15 17  1  0  0  0  0
 17 18  1  0  0  0  0
 17 19  2  0  0  0  0
 19 20  1  0  0  0  0
 20 21  1  0  0  0  0
 22 23  2  0  0  0  0
 22 24  1  0  0  0  0
 24 25  1  0  0  0  0
 24 26  1  0  0  0  0
 26 27  1  0  0  0  0
 26 28  1  0  0  0  0
 26 29  1  0  0  0  0
M  END
$$$$

  -OEChem-03222214043D

 29 29  0     1  0  0  0  0  0999 V2000
   -3.0436   -4.0753    0.5696 H   0  0  0  0  0  0  0  0  0  0  0  0
   -2.9745   -3.1596   -0.0246 C   0  0  0  0  0  0  0  0  0  0  0  0
   -3.8209   -2.5146    0.2224 H   0  0  0  0  0  0  0  0  0  0  0  0
   -3.0223   -3.4248   -1.0836 H   0  0  0  0  0  0  0  0  0  0  0  0
   -1.6716   -2.4422    0.2731 C   0  0  0  0  0  0  0  0  0  0  0  0
   -0.9293   -2.8686    1.1390 O   0  0  0  0  0  0  0  0  0  0  0  0
   -1.3397   -1.3059   -0.4380 N   0  0  0  0  0  0  0  0  0  0  0  0
   -1.9267   -1.1044   -1.2423 H   0  0  0  0  0  0  0  0  0  0  0  0
   -0.0031   -0.6801   -0.4071 C   0  0  1  0  0  0  0  0  0  0  0  0
    0.7347   -1.4144   -0.7492 H   0  0  0  0  0  0  0  0  0  0  0  0
    0.0074    0.5266   -1.3574 C   0  0  0  0  0  0  0  0  0  0  0  0
   -0.8784    1.1470   -1.1857 H   0  0  0  0  0  0  0  0  0  0  0  0
    0.8869    1.1501   -1.1612 H   0  0  0  0  0  0  0  0  0  0  0  0
    0.0603    0.0622   -2.7885 C   0  0  0  0  0  0  0  0  0  0  0  0
    1.1498   -0.4485   -3.4588 N   0  0  0  0  0  0  0  0  0  0  0  0
    2.0793   -0.6043   -3.0712 H   0  0  0  0  0  0  0  0  0  0  0  0
    0.7715   -0.7208   -4.7602 C   0  0  0  0  0  0  0  0  0  0  0  0
    1.4189   -1.1419   -5.5244 H   0  0  0  0  0  0  0  0  0  0  0  0
   -0.4877   -0.3976   -4.9397 N   0  0  0  0  0  0  0  0  0  0  0  0
   -0.9372    0.1075   -3.7257 C   0  0  0  0  0  0  0  0  0  0  0  0
   -1.9408    0.4815   -3.5467 H   0  0  0  0  0  0  0  0  0  0  0  0
    0.4582   -0.2126    0.9899 C   0  0  0  0  0  0  0  0  0  0  0  0
    1.6539   -0.2067    1.2534 O   0  0  0  0  0  0  0  0  0  0  0  0
   -0.4167    0.4746    1.8127 N   0  0  0  0  0  0  0  0  0  0  0  0
   -1.4038    0.3538    1.6091 H   0  0  0  0  0  0  0  0  0  0  0  0
   -0.0330    0.9741    3.1273 C   0  0  0  0  0  0  0  0  0  0  0  0
    0.7990    1.6809    3.0416 H   0  0  0  0  0  0  0  0  0  0  0  0
   -0.8756    1.4910    3.5962 H   0  0  0  0  0  0  0  0  0  0  0  0
    0.2728    0.1468    3.7763 H   0  0  0  0  0  0  0  0  0  0  0  0
  1  2  1  0  0  0  0
  2  3  1  0  0  0  0
  2  4  1  0  0  0  0
  2  5  1  0  0  0  0
  5  6  2  0  0  0  0
  5  7  1  0  0  0  0
  7  8  1  0  0  0  0
  7  9  1  0  0  0  0
  9 10  1  0  0  0  0
  9 11  1  0  0  0  0
  9 22  1  0  0  0  0
 11 12  1  0  0  0  0
 11 13  1  0  0  0  0
 11 14  1  0  0  0  0
 14 15  1  0  0  0  0
 14 20  2  0  0  0  0
 15 16  1  0  0  0  0
 15 17  1  0  0  0  0
 17 18  1  0  0  0  0
 17 19  2  0  0  0  0
 19 20  1  0  0  0  0
 20 21  1  0  0  0  0
 22 23  2  0  0  0  0
 22 24  1  0  0  0  0
 24 25  1  0  0  0  0
 24 26  1  0  0  0  0
 26 27  1  0  0  0  0
 26 28  1  0  0  0  0
 26 29  1  0  0  0  0
M  END
$$$$

  -OEChem-03222214043D

 29 29  0     1  0  0  0  0  0999 V2000
   -3.0526   -4.0684    0.5633 H   0  0  0  0  0  0  0  0  0  0  0  0
   -2.9822   -3.1501   -0.0268 C   0  0  0  0  0  0  0  0  0  0  0  0
   -3.8251   -2.5030    0.2265 H   0  0  0  0  0  0  0  0  0  0  0  0
   -3.0355   -3.4098   -1.0868 H   0  0  0  0  0  0  0  0  0  0  0  0
   -1.6750   -2.4394    0.2685 C   0  0  0  0  0  0  0  0  0  0  0  0
   -0.9302   -2.8732    1.1286 O   0  0  0  0  0  0  0  0  0  0  0  0
   -1.3389   -1.3031   -0.4407 N   0  0  0  0  0  0  0  0  0  0  0  0
   -1.9261   -1.0952   -1.2438 H   0  0  0  0  0  0  0  0  0  0  0  0
   -0.0018   -0.6792   -0.4069 C   0  0  1  0  0  0  0  0  0  0  0  0
    0.7361   -1.4139   -0.7463 H   0  0  0  0  0  0  0  0  0  0  0  0
    0.0025    0.5282   -1.3573 C   0  0  0  0  0  0  0  0  0  0  0  0
   -0.8787    1.1538   -1.1801 H   0  0  0  0  0  0  0  0  0  0  0  0
    0.8872    1.1449   -1.1626 H   0  0  0  0  0  0  0  0  0  0  0  0
    0.0534    0.0732   -2.7926 C   0  0  0  0  0  0  0  0  0  0  0  0
    1.0327   -0.6825   -3.3993 N   0  0  0  0  0  0  0  0  0  0  0  0
    1.8814   -1.0368   -2.9603 H   0  0  0  0  0  0  0  0  0  0  0  0
    0.6833   -0.8664   -4.7238 C   0  0  0  0  0  0  0  0  0  0  0  0
    1.2642   -1.4261   -5.4515 H   0  0  0  0  0  0  0  0  0  0  0  0
   -0.4564   -0.2673   -4.9755 N   0  0  0  0  0  0  0  0  0  0  0  0
   -0.8528    0.3330   -3.7863 C   0  0  0  0  0  0  0  0  0  0  0  0
   -1.7589    0.9187   -3.6624 H   0  0  0  0  0  0  0  0  0  0  0  0
    0.4586   -0.2126    0.9906 C   0  0  0  0  0  0  0  0  0  0  0  0
    1.6535   -0.2164    1.2577 O   0  0  0  0  0  0  0  0  0  0  0  0
   -0.4147    0.4759    1.8139 N   0  0  0  0  0  0  0  0  0  0  0  0
   -1.4020    0.3615    1.6079 H   0  0  0  0  0  0  0  0  0  0  0  0
   -0.0308    0.9697    3.1307 C   0  0  0  0  0  0  0  0  0  0  0  0
    0.8047    1.6729    3.0486 H   0  0  0  0  0  0  0  0  0  0  0  0
   -0.8719    1.4890    3.6000 H   0  0  0  0  0  0  0  0  0  0  0  0
    0.2706    0.1387    3.7773 H   0  0  0  0  0  0  0  0  0  0  0  0
  1  2  1  0  0  0  0
  2  3  1  0  0  0  0
  2  4  1  0  0  0  0
  2  5  1  0  0  0  0
  5  6  2  0  0  0  0
  5  7  1  0  0  0  0
  7  8  1  0  0  0  0
  7  9  1  0  0  0  0
  9 10  1  0  0  0  0
  9 11  1  0  0  0  0
  9 22  1  0  0  0  0
 11 12  1  0  0  0  0
 11 13  1  0  0  0  0
 11 14  1  0  0  0  0
 14 15  1  0  0  0  0
 14 20  2  0  0  0  0
 15 16  1  0  0  0  0
 15 17  1  0  0  0  0
 17 18  1  0  0  0  0
 17 19  2  0  0  0  0
 19 20  1  0  0  0  0
 20 21  1  0  0  0  0
 22 23  2  0  0  0  0
 22 24  1  0  0  0  0
 24 25  1  0  0  0  0
 24 26  1  0  0  0  0
 26 27  1  0  0  0  0
 26 28  1  0  0  0  0
 26 29  1  0  0  0  0
M  END
$$$$

  -OEChem-03222214043D

 29 29  0     1  0  0  0  0  0999 V2000
   -3.0646   -4.0533    0.5735 H   0  0  0  0  0  0  0  0  0  0  0  0
   -2.9904   -3.1329   -0.0127 C   0  0  0  0  0  0  0  0  0  0  0  0
   -3.8192   -2.4749    0.2584 H   0  0  0  0  0  0  0  0  0  0  0  0
   -3.0652   -3.3855   -1.0730 H   0  0  0  0  0  0  0  0  0  0  0  0
   -1.6687   -2.4427    0.2657 C   0  0  0  0  0  0  0  0  0  0  0  0
   -0.9154   -2.8922    1.1101 O   0  0  0  0  0  0  0  0  0  0  0  0
   -1.3266   -1.3086   -0.4435 N   0  0  0  0  0  0  0  0  0  0  0  0
   -1.9217   -1.0837   -1.2362 H   0  0  0  0  0  0  0  0  0  0  0  0
    0.0096   -0.6842   -0.4061 C   0  0  1  0  0  0  0  0  0  0  0  0
    0.7521   -1.4171   -0.7377 H   0  0  0  0  0  0  0  0  0  0  0  0
    0.0087    0.5217   -1.3593 C   0  0  0  0  0  0  0  0  0  0  0  0
   -0.8678    1.1526   -1.1783 H   0  0  0  0  0  0  0  0  0  0  0  0
    0.8973    1.1326   -1.1635 H   0  0  0  0  0  0  0  0  0  0  0  0
    0.0609    0.0797   -2.8001 C   0  0  0  0  0  0  0  0  0  0  0  0
    0.8677   -0.8837   -3.3673 N   0  0  0  0  0  0  0  0  0  0  0  0
    1.5897   -1.4235   -2.8923 H   0  0  0  0  0  0  0  0  0  0  0  0
    0.5593   -0.9759   -4.7113 C   0  0  0  0  0  0  0  0  0  0  0  0
    1.0371   -1.6489   -5.4177 H   0  0  0  0  0  0  0  0  0  0  0  0
   -0.3996   -0.1325   -5.0108 N   0  0  0  0  0  0  0  0  0  0  0  0
   -0.7130    0.5368   -3.8337 C   0  0  0  0  0  0  0  0  0  0  0  0
   -1.4739    1.3065   -3.7454 H   0  0  0  0  0  0  0  0  0  0  0  0
    0.4595   -0.2152    0.9939 C   0  0  0  0  0  0  0  0  0  0  0  0
    1.6515   -0.2227    1.2727 O   0  0  0  0  0  0  0  0  0  0  0  0
   -0.4202    0.4736    1.8103 N   0  0  0  0  0  0  0  0  0  0  0  0
   -1.4059    0.3646    1.5937 H   0  0  0  0  0  0  0  0  0  0  0  0
   -0.0466    0.9650    3.1309 C   0  0  0  0  0  0  0  0  0  0  0  0
    0.7910    1.6666    3.0571 H   0  0  0  0  0  0  0  0  0  0  0  0
   -0.8906    1.4854    3.5935 H   0  0  0  0  0  0  0  0  0  0  0  0
    0.2474    0.1327    3.7791 H   0  0  0  0  0  0  0  0  0  0  0  0
  1  2  1  0  0  0  0
  2  3  1  0  0  0  0
  2  4  1  0  0  0  0
  2  5  1  0  0  0  0
  5  6  2  0  0  0  0
  5  7  1  0  0  0  0
  7  8  1  0  0  0  0
  7  9  1  0  0  0  0
  9 10  1  0  0  0  0
  9 11  1  0  0  0  0
  9 22  1  0  0  0  0
 11 12  1  0  0  0  0
 11 13  1  0  0  0  0
 11 14  1  0  0  0  0
 14 15  1  0  0  0  0
 14 20  2  0  0  0  0
 15 16  1  0  0  0  0
 15 17  1  0  0  0  0
 17 18  1  0  0  0  0
 17 19  2  0  0  0  0
 19 20  1  0  0  0  0
 20 21  1  0  0  0  0
 22 23  2  0  0  0  0
 22 24  1  0  0  0  0
 24 25  1  0  0  0  0
 24 26  1  0  0  0  0
 26 27  1  0  0  0  0
 26 28  1  0  0  0  0
 26 29  1  0  0  0  0
M  END
$$$$

  -OEChem-03222214043D

 29 29  0     1  0  0  0  0  0999 V2000
   -3.0798   -4.0408    0.5932 H   0  0  0  0  0  0  0  0  0  0  0  0
   -2.9989   -3.1229    0.0038 C   0  0  0  0  0  0  0  0  0  0  0  0
   -3.8164   -2.4532    0.2812 H   0  0  0  0  0  0  0  0  0  0  0  0
   -3.0879   -3.3771   -1.0551 H   0  0  0  0  0  0  0  0  0  0  0  0
   -1.6650   -2.4500    0.2671 C   0  0  0  0  0  0  0  0  0  0  0  0
   -0.9033   -2.9148    1.0953 O   0  0  0  0  0  0  0  0  0  0  0  0
   -1.3172   -1.3183   -0.4432 N   0  0  0  0  0  0  0  0  0  0  0  0
   -1.9233   -1.0741   -1.2220 H   0  0  0  0  0  0  0  0  0  0  0  0
    0.0188   -0.6929   -0.4038 C   0  0  1  0  0  0  0  0  0  0  0  0
    0.7659   -1.4237   -0.7291 H   0  0  0  0  0  0  0  0  0  0  0  0
    0.0141    0.5107   -1.3600 C   0  0  0  0  0  0  0  0  0  0  0  0
   -0.8604    1.1437   -1.1770 H   0  0  0  0  0  0  0  0  0  0  0  0
    0.9040    1.1194   -1.1630 H   0  0  0  0  0  0  0  0  0  0  0  0
    0.0671    0.0802   -2.8060 C   0  0  0  0  0  0  0  0  0  0  0  0
    0.6522   -1.0436   -3.3516 N   0  0  0  0  0  0  0  0  0  0  0  0
    1.2014   -1.7414   -2.8521 H   0  0  0  0  0  0  0  0  0  0  0  0
    0.4121   -1.0464   -4.7126 C   0  0  0  0  0  0  0  0  0  0  0  0
    0.7596   -1.8054   -5.4079 H   0  0  0  0  0  0  0  0  0  0  0  0
   -0.3029    0.0015   -5.0441 N   0  0  0  0  0  0  0  0  0  0  0  0
   -0.5199    0.7136   -3.8699 C   0  0  0  0  0  0  0  0  0  0  0  0
   -1.0877    1.6369   -3.8052 H   0  0  0  0  0  0  0  0  0  0  0  0
    0.4608   -0.2200    0.9979 C   0  0  0  0  0  0  0  0  0  0  0  0
    1.6501   -0.2305    1.2868 O   0  0  0  0  0  0  0  0  0  0  0  0
   -0.4240    0.4701    1.8077 N   0  0  0  0  0  0  0  0  0  0  0  0
   -1.4082    0.3692    1.5809 H   0  0  0  0  0  0  0  0  0  0  0  0
   -0.0591    0.9679    3.1284 C   0  0  0  0  0  0  0  0  0  0  0  0
    0.7788    1.6694    3.0564 H   0  0  0  0  0  0  0  0  0  0  0  0
   -0.9060    1.4904    3.5831 H   0  0  0  0  0  0  0  0  0  0  0  0
    0.2309    0.1390    3.7828 H   0  0  0  0  0  0  0  0  0  0  0  0
  1  2  1  0  0  0  0
  2  3  1  0  0  0  0
  2  4  1  0  0  0  0
  2  5  1  0  0  0  0
  5  6  2  0  0  0  0
  5  7  1  0  0  0  0
  7  8  1  0  0  0  0
  7  9  1  0  0  0  0
  9 10  1  0  0  0  0
  9 11  1  0  0  0  0
  9 22  1  0  0  0  0
 11 12  1  0  0  0  0
 11 13  1  0  0  0  0
 11 14  1  0  0  0  0
 14 15  1  0  0  0  0
 14 20  2  0  0  0  0
 15 16  1  0  0  0  0
 15 17  1  0  0  0  0
 17 18  1  0  0  0  0
 17 19  2  0  0  0  0
 19 20  1  0  0  0  0
 20 21  1  0  0  0  0
 22 23  2  0  0  0  0
 22 24  1  0  0  0  0
 24 25  1  0  0  0  0
 24 26  1  0  0  0  0
 26 27  1  0  0  0  0
 26 28  1  0  0  0  0
 26 29  1  0  0  0  0
M  END
$$$$

  -OEChem-03222214043D

 29 29  0     1  0  0  0  0  0999 V2000
   -3.0897   -4.0264    0.6325 H   0  0  0  0  0  0  0  0  0  0  0  0
   -3.0080   -3.1115    0.0384 C   0  0  0  0  0  0  0  0  0  0  0  0
   -3.8068   -2.4275    0.3349 H   0  0  0  0  0  0  0  0  0  0  0  0
   -3.1275   -3.3669   -1.0173 H   0  0  0  0  0  0  0  0  0  0  0  0
   -1.6568   -2.4606    0.2660 C   0  0  0  0  0  0  0  0  0  0  0  0
   -0.8766   -2.9447    1.0649 O   0  0  0  0  0  0  0  0  0  0  0  0
   -1.3117   -1.3288   -0.4454 N   0  0  0  0  0  0  0  0  0  0  0  0
   -1.9417   -1.0540   -1.1949 H   0  0  0  0  0  0  0  0  0  0  0  0
    0.0219   -0.6977   -0.4086 C   0  0  1  0  0  0  0  0  0  0  0  0
    0.7746   -1.4233   -0.7336 H   0  0  0  0  0  0  0  0  0  0  0  0
    0.0105    0.5042   -1.3670 C   0  0  0  0  0  0  0  0  0  0  0  0
   -0.8678    1.1322   -1.1848 H   0  0  0  0  0  0  0  0  0  0  0  0
    0.8972    1.1174   -1.1695 H   0  0  0  0  0  0  0  0  0  0  0  0
    0.0635    0.0798   -2.8152 C   0  0  0  0  0  0  0  0  0  0  0  0
    0.3955   -1.1480   -3.3502 N   0  0  0  0  0  0  0  0  0  0  0  0
    0.7274   -1.9613   -2.8342 H   0  0  0  0  0  0  0  0  0  0  0  0
    0.2634   -1.0785   -4.7241 C   0  0  0  0  0  0  0  0  0  0  0  0
    0.4691   -1.8920   -5.4142 H   0  0  0  0  0  0  0  0  0  0  0  0
   -0.1511    0.1147   -5.0750 N   0  0  0  0  0  0  0  0  0  0  0  0
   -0.2757    0.8463   -3.8993 C   0  0  0  0  0  0  0  0  0  0  0  0
   -0.6070    1.8793   -3.8481 H   0  0  0  0  0  0  0  0  0  0  0  0
    0.4596   -0.2218    0.9936 C   0  0  0  0  0  0  0  0  0  0  0  0
    1.6468   -0.2357    1.2903 O   0  0  0  0  0  0  0  0  0  0  0  0
   -0.4294    0.4649    1.8020 N   0  0  0  0  0  0  0  0  0  0  0  0
   -1.4123    0.3728    1.5672 H   0  0  0  0  0  0  0  0  0  0  0  0
   -0.0706    0.9617    3.1247 C   0  0  0  0  0  0  0  0  0  0  0  0
    0.7633    1.6683    3.0560 H   0  0  0  0  0  0  0  0  0  0  0  0
   -0.9220    1.4779    3.5788 H   0  0  0  0  0  0  0  0  0  0  0  0
    0.2230    0.1330    3.7778 H   0  0  0  0  0  0  0  0  0  0  0  0
  1  2  1  0  0  0  0
  2  3  1  0  0  0  0
  2  4  1  0  0  0  0
  2  5  1  0  0  0  0
  5  6  2  0  0  0  0
  5  7  1  0  0  0  0
  7  8  1  0  0  0  0
  7  9  1  0  0  0  0
  9 10  1  0  0  0  0
  9 11  1  0  0  0  0
  9 22  1  0  0  0  0
 11 12  1  0  0  0  0
 11 13  1  0  0  0  0
 11 14  1  0  0  0  0
 14 15  1  0  0  0  0
 14 20  2  0  0  0  0
 15 16  1  0  0  0  0
 15 17  1  0  0  0  0
 17 18  1  0  0  0  0
 17 19  2  0  0  0  0
 19 20  1  0  0  0  0
 20 21  1  0  0  0  0
 22 23  2  0  0  0  0
 22 24  1  0  0  0  0
 24 25  1  0  0  0  0
 24 26  1  0  0  0  0
 26 27  1  0  0  0  0
 26 28  1  0  0  0  0
 26 29  1  0  0  0  0
M  END
$$$$

  -OEChem-03222214043D

 29 29  0     1  0  0  0  0  0999 V2000
   -3.0944   -4.0163    0.6642 H   0  0  0  0  0  0  0  0  0  0  0  0
   -3.0167   -3.1004    0.0716 C   0  0  0  0  0  0  0  0  0  0  0  0
   -3.7933   -2.4042    0.3975 H   0  0  0  0  0  0  0  0  0  0  0  0
   -3.1764   -3.3488   -0.9803 H   0  0  0  0  0  0  0  0  0  0  0  0
   -1.6474   -2.4747    0.2571 C   0  0  0  0  0  0  0  0  0  0  0  0
   -0.8451   -2.9822    1.0186 O   0  0  0  0  0  0  0  0  0  0  0  0
   -1.3106   -1.3378   -0.4499 N   0  0  0  0  0  0  0  0  0  0  0  0
   -1.9744   -1.0191   -1.1510 H   0  0  0  0  0  0  0  0  0  0  0  0
    0.0188   -0.6962   -0.4188 C   0  0  1  0  0  0  0  0  0  0  0  0
    0.7760   -1.4137   -0.7528 H   0  0  0  0  0  0  0  0  0  0  0  0
   -0.0043    0.5079   -1.3743 C   0  0  0  0  0  0  0  0  0  0  0  0
   -0.8931    1.1203   -1.1904 H   0  0  0  0  0  0  0  0  0  0  0  0
    0.8723    1.1357   -1.1766 H   0  0  0  0  0  0  0  0  0  0  0  0
    0.0461    0.0876   -2.8239 C   0  0  0  0  0  0  0  0  0  0  0  0
    0.1080   -1.1827   -3.3592 N   0  0  0  0  0  0  0  0  0  0  0  0
    0.1976   -2.0525   -2.8368 H   0  0  0  0  0  0  0  0  0  0  0  0
    0.1170   -1.0782   -4.7373 C   0  0  0  0  0  0  0  0  0  0  0  0
    0.1738   -1.9148   -5.4281 H   0  0  0  0  0  0  0  0  0  0  0  0
    0.0444    0.1817   -5.0921 N   0  0  0  0  0  0  0  0  0  0  0  0
    0.0069    0.9182   -3.9131 C   0  0  0  0  0  0  0  0  0  0  0  0
   -0.0533    2.0014   -3.8641 H   0  0  0  0  0  0  0  0  0  0  0  0
    0.4580   -0.2239    0.9839 C   0  0  0  0  0  0  0  0  0  0  0  0
    1.6458   -0.2277    1.2774 O   0  0  0  0  0  0  0  0  0  0  0  0
   -0.4341    0.4513    1.7986 N   0  0  0  0  0  0  0  0  0  0  0  0
   -1.4170    0.3574    1.5648 H   0  0  0  0  0  0  0  0  0  0  0  0
   -0.0743    0.9508    3.1200 C   0  0  0  0  0  0  0  0  0  0  0  0
    0.7521    1.6657    3.0478 H   0  0  0  0  0  0  0  0  0  0  0  0
   -0.9284    1.4579    3.5787 H   0  0  0  0  0  0  0  0  0  0  0  0
    0.2303    0.1245    3.7710 H   0  0  0  0  0  0  0  0  0  0  0  0
  1  2  1  0  0  0  0
  2  3  1  0  0  0  0
  2  4  1  0  0  0  0
  2  5  1  0  0  0  0
  5  6  2  0  0  0  0
  5  7  1  0  0  0  0
  7  8  1  0  0  0  0
  7  9  1  0  0  0  0
  9 10  1  0  0  0  0
  9 11  1  0  0  0  0
  9 22  1  0  0  0  0
 11 12  1  0  0  0  0
 11 13  1  0  0  0  0
 11 14  1  0  0  0  0
 14 15  1  0  0  0  0
 14 20  2  0  0  0  0
 15 16  1  0  0  0  0
 15 17  1  0  0  0  0
 17 18  1  0  0  0  0
 17 19  2  0  0  0  0
 19 20  1  0  0  0  0
 20 21  1  0  0  0  0
 22 23  2  0  0  0  0
 22 24  1  0  0  0  0
 24 25  1  0  0  0  0
 24 26  1  0  0  0  0
 26 27  1  0  0  0  0
 26 28  1  0  0  0  0
 26 29  1  0  0  0  0
M  END
$$$$

  -OEChem-03222214043D

 29 29  0     1  0  0  0  0  0999 V2000
   -3.0894   -4.0055    0.7022 H   0  0  0  0  0  0  0  0  0  0  0  0
   -3.0222   -3.0877    0.1109 C   0  0  0  0  0  0  0  0  0  0  0  0
   -3.7709   -2.3802    0.4751 H   0  0  0  0  0  0  0  0  0  0  0  0
   -3.2336   -3.3273   -0.9338 H   0  0  0  0  0  0  0  0  0  0  0  0
   -1.6347   -2.4875    0.2374 C   0  0  0  0  0  0  0  0  0  0  0  0
   -0.8037   -3.0220    0.9473 O   0  0  0  0  0  0  0  0  0  0  0  0
   -1.3146   -1.3411   -0.4621 N   0  0  0  0  0  0  0  0  0  0  0  0
   -2.0213   -0.9667   -1.0895 H   0  0  0  0  0  0  0  0  0  0  0  0
    0.0093   -0.6857   -0.4357 C   0  0  1  0  0  0  0  0  0  0  0  0
    0.7695   -1.3950   -0.7820 H   0  0  0  0  0  0  0  0  0  0  0  0
   -0.0215    0.5231   -1.3854 C   0  0  0  0  0  0  0  0  0  0  0  0
   -0.9218    1.1182   -1.2012 H   0  0  0  0  0  0  0  0  0  0  0  0
    0.8427    1.1664   -1.1820 H   0  0  0  0  0  0  0  0  0  0  0  0
    0.0310    0.1073   -2.8362 C   0  0  0  0  0  0  0  0  0  0  0  0
   -0.1786   -1.1394   -3.3888 N   0  0  0  0  0  0  0  0  0  0  0  0
   -0.3339   -2.0051   -2.8755 H   0  0  0  0  0  0  0  0  0  0  0  0
   -0.0189   -1.0446   -4.7586 C   0  0  0  0  0  0  0  0  0  0  0  0
   -0.1094   -1.8707   -5.4583 H   0  0  0  0  0  0  0  0  0  0  0  0
    0.2597    0.1915   -5.0933 N   0  0  0  0  0  0  0  0  0  0  0  0
    0.3036    0.9171   -3.9077 C   0  0  0  0  0  0  0  0  0  0  0  0
    0.5211    1.9791   -3.8424 H   0  0  0  0  0  0  0  0  0  0  0  0
    0.4522   -0.2218    0.9686 C   0  0  0  0  0  0  0  0  0  0  0  0
    1.6412   -0.2161    1.2568 O   0  0  0  0  0  0  0  0  0  0  0  0
   -0.4421    0.4363    1.7950 N   0  0  0  0  0  0  0  0  0  0  0  0
   -1.4253    0.3430    1.5629 H   0  0  0  0  0  0  0  0  0  0  0  0
   -0.0789    0.9289    3.1182 C   0  0  0  0  0  0  0  0  0  0  0  0
    0.7397    1.6527    3.0464 H   0  0  0  0  0  0  0  0  0  0  0  0
   -0.9350    1.4238    3.5864 H   0  0  0  0  0  0  0  0  0  0  0  0
    0.2382    0.1007    3.7608 H   0  0  0  0  0  0  0  0  0  0  0  0
  1  2  1  0  0  0  0
  2  3  1  0  0  0  0
  2  4  1  0  0  0  0
  2  5  1  0  0  0  0
  5  6  2  0  0  0  0
  5  7  1  0  0  0  0
  7  8  1  0  0  0  0
  7  9  1  0  0  0  0
  9 10  1  0  0  0  0
  9 11  1  0  0  0  0
  9 22  1  0  0  0  0
 11 12  1  0  0  0  0
 11 13  1  0  0  0  0
 11 14  1  0  0  0  0
 14 15  1  0  0  0  0
 14 20  2  0  0  0  0
 15 16  1  0  0  0  0
 15 17  1  0  0  0  0
 17 18  1  0  0  0  0
 17 19  2  0  0  0  0
 19 20  1  0  0  0  0
 20 21  1  0  0  0  0
 22 23  2  0  0  0  0
 22 24  1  0  0  0  0
 24 25  1  0  0  0  0
 24 26  1  0  0  0  0
 26 27  1  0  0  0  0
 26 28  1  0  0  0  0
 26 29  1  0  0  0  0
M  END
$$$$

  -OEChem-03222214043D

 29 29  0     1  0  0  0  0  0999 V2000
   -3.0846   -3.9934    0.7303 H   0  0  0  0  0  0  0  0  0  0  0  0
   -3.0252   -3.0761    0.1370 C   0  0  0  0  0  0  0  0  0  0  0  0
   -3.7499   -2.3580    0.5281 H   0  0  0  0  0  0  0  0  0  0  0  0
   -3.2778   -3.3120   -0.8995 H   0  0  0  0  0  0  0  0  0  0  0  0
   -1.6249   -2.4971    0.2140 C   0  0  0  0  0  0  0  0  0  0  0  0
   -0.7740   -3.0529    0.8825 O   0  0  0  0  0  0  0  0  0  0  0  0
   -1.3181   -1.3417   -0.4772 N   0  0  0  0  0  0  0  0  0  0  0  0
   -2.0600   -0.9142   -1.0242 H   0  0  0  0  0  0  0  0  0  0  0  0
    0.0014   -0.6763   -0.4496 C   0  0  1  0  0  0  0  0  0  0  0  0
    0.7626   -1.3806   -0.8045 H   0  0  0  0  0  0  0  0  0  0  0  0
   -0.0290    0.5371   -1.3930 C   0  0  0  0  0  0  0  0  0  0  0  0
   -0.9349    1.1239   -1.2114 H   0  0  0  0  0  0  0  0  0  0  0  0
    0.8286    1.1862   -1.1809 H   0  0  0  0  0  0  0  0  0  0  0  0
    0.0306    0.1268   -2.8450 C   0  0  0  0  0  0  0  0  0  0  0  0
   -0.4355   -1.0276   -3.4390 N   0  0  0  0  0  0  0  0  0  0  0  0
   -0.8193   -1.8371   -2.9562 H   0  0  0  0  0  0  0  0  0  0  0  0
   -0.1497   -0.9714   -4.7902 C   0  0  0  0  0  0  0  0  0  0  0  0
   -0.3841   -1.7483   -5.5124 H   0  0  0  0  0  0  0  0  0  0  0  0
    0.4510    0.1576   -5.0759 N   0  0  0  0  0  0  0  0  0  0  0  0
    0.5793    0.8464   -3.8746 C   0  0  0  0  0  0  0  0  0  0  0  0
    1.0478    1.8204   -3.7689 H   0  0  0  0  0  0  0  0  0  0  0  0
    0.4467   -0.2216    0.9571 C   0  0  0  0  0  0  0  0  0  0  0  0
    1.6367   -0.2047    1.2398 O   0  0  0  0  0  0  0  0  0  0  0  0
   -0.4492    0.4225    1.7930 N   0  0  0  0  0  0  0  0  0  0  0  0
   -1.4325    0.3252    1.5645 H   0  0  0  0  0  0  0  0  0  0  0  0
   -0.0828    0.9126    3.1163 C   0  0  0  0  0  0  0  0  0  0  0  0
    0.7284    1.6447    3.0438 H   0  0  0  0  0  0  0  0  0  0  0  0
   -0.9409    1.3971    3.5915 H   0  0  0  0  0  0  0  0  0  0  0  0
    0.2465    0.0846    3.7529 H   0  0  0  0  0  0  0  0  0  0  0  0
  1  2  1  0  0  0  0
  2  3  1  0  0  0  0
  2  4  1  0  0  0  0
  2  5  1  0  0  0  0
  5  6  2  0  0  0  0
  5  7  1  0  0  0  0
  7  8  1  0  0  0  0
  7  9  1  0  0  0  0
  9 10  1  0  0  0  0
  9 11  1  0  0  0  0
  9 22  1  0  0  0  0
 11 12  1  0  0  0  0
 11 13  1  0  0  0  0
 11 14  1  0  0  0  0
 14 15  1  0  0  0  0
 14 20  2  0  0  0  0
 15 16  1  0  0  0  0
 15 17  1  0  0  0  0
 17 18  1  0  0  0  0
 17 19  2  0  0  0  0
 19 20  1  0  0  0  0
 20 21  1  0  0  0  0
 22 23  2  0  0  0  0
 22 24  1  0  0  0  0
 24 25  1  0  0  0  0
 24 26  1  0  0  0  0
 26 27  1  0  0  0  0
 26 28  1  0  0  0  0
 26 29  1  0  0  0  0
M  END
$$$$

  -OEChem-03222214043D

 29 29  0     1  0  0  0  0  0999 V2000
   -3.0757   -3.9802    0.7533 H   0  0  0  0  0  0  0  0  0  0  0  0
   -3.0215   -3.0652    0.1561 C   0  0  0  0  0  0  0  0  0  0  0  0
   -3.7304   -2.3395    0.5615 H   0  0  0  0  0  0  0  0  0  0  0  0
   -3.2990   -3.3018   -0.8737 H   0  0  0  0  0  0  0  0  0  0  0  0
   -1.6147   -2.4989    0.1988 C   0  0  0  0  0  0  0  0  0  0  0  0
   -0.7515   -3.0663    0.8413 O   0  0  0  0  0  0  0  0  0  0  0  0
   -1.3203   -1.3374   -0.4882 N   0  0  0  0  0  0  0  0  0  0  0  0
   -2.0842   -0.8781   -0.9744 H   0  0  0  0  0  0  0  0  0  0  0  0
   -0.0036   -0.6662   -0.4601 C   0  0  1  0  0  0  0  0  0  0  0  0
    0.7571   -1.3699   -0.8177 H   0  0  0  0  0  0  0  0  0  0  0  0
   -0.0261    0.5496   -1.4007 C   0  0  0  0  0  0  0  0  0  0  0  0
   -0.9302    1.1405   -1.2240 H   0  0  0  0  0  0  0  0  0  0  0  0
    0.8328    1.1944   -1.1806 H   0  0  0  0  0  0  0  0  0  0  0  0
    0.0417    0.1400   -2.8524 C   0  0  0  0  0  0  0  0  0  0  0  0
   -0.6497   -0.8588   -3.5050 N   0  0  0  0  0  0  0  0  0  0  0  0
   -1.2509   -1.5549   -3.0716 H   0  0  0  0  0  0  0  0  0  0  0  0
   -0.2646   -0.8624   -4.8327 C   0  0  0  0  0  0  0  0  0  0  0  0
   -0.6301   -1.5523   -5.5880 H   0  0  0  0  0  0  0  0  0  0  0  0
    0.6117    0.0870   -5.0499 N   0  0  0  0  0  0  0  0  0  0  0  0
    0.8182    0.7139   -3.8259 C   0  0  0  0  0  0  0  0  0  0  0  0
    1.4984    1.5454   -3.6662 H   0  0  0  0  0  0  0  0  0  0  0  0
    0.4418   -0.2187    0.9488 C   0  0  0  0  0  0  0  0  0  0  0  0
    1.6319   -0.1960    1.2301 O   0  0  0  0  0  0  0  0  0  0  0  0
   -0.4562    0.4156    1.7903 N   0  0  0  0  0  0  0  0  0  0  0  0
   -1.4395    0.3156    1.5631 H   0  0  0  0  0  0  0  0  0  0  0  0
   -0.0901    0.8939    3.1181 C   0  0  0  0  0  0  0  0  0  0  0  0
    0.7225    1.6253    3.0526 H   0  0  0  0  0  0  0  0  0  0  0  0
   -0.9478    1.3757    3.5972 H   0  0  0  0  0  0  0  0  0  0  0  0
    0.2372    0.0593    3.7472 H   0  0  0  0  0  0  0  0  0  0  0  0
  1  2  1  0  0  0  0
  2  3  1  0  0  0  0
  2  4  1  0  0  0  0
  2  5  1  0  0  0  0
  5  6  2  0  0  0  0
  5  7  1  0  0  0  0
  7  8  1  0  0  0  0
  7  9  1  0  0  0  0
  9 10  1  0  0  0  0
  9 11  1  0  0  0  0
  9 22  1  0  0  0  0
 11 12  1  0  0  0  0
 11 13  1  0  0  0  0
 11 14  1  0  0  0  0
 14 15  1  0  0  0  0
 14 20  2  0  0  0  0
 15 16  1  0  0  0  0
 15 17  1  0  0  0  0
 17 18  1  0  0  0  0
 17 19  2  0  0  0  0
 19 20  1  0  0  0  0
 20 21  1  0  0  0  0
 22 23  2  0  0  0  0
 22 24  1  0  0  0  0
 24 25  1  0  0  0  0
 24 26  1  0  0  0  0
 26 27  1  0  0  0  0
 26 28  1  0  0  0  0
 26 29  1  0  0  0  0
M  END
$$$$

  -OEChem-03222214043D

 29 29  0     1  0  0  0  0  0999 V2000
   -3.0749   -3.9946    0.7243 H   0  0  0  0  0  0  0  0  0  0  0  0
   -3.0199   -3.0797    0.1269 C   0  0  0  0  0  0  0  0  0  0  0  0
   -3.7498   -2.3644    0.5129 H   0  0  0  0  0  0  0  0  0  0  0  0
   -3.2673   -3.3225   -0.9092 H   0  0  0  0  0  0  0  0  0  0  0  0
   -1.6235   -2.4919    0.2040 C   0  0  0  0  0  0  0  0  0  0  0  0
   -0.7723   -3.0403    0.8785 O   0  0  0  0  0  0  0  0  0  0  0  0
   -1.3285   -1.3290   -0.4803 N   0  0  0  0  0  0  0  0  0  0  0  0
   -2.0818   -0.8885   -0.9970 H   0  0  0  0  0  0  0  0  0  0  0  0
   -0.0108   -0.6618   -0.4550 C   0  0  1  0  0  0  0  0  0  0  0  0
    0.7443   -1.3698   -0.8163 H   0  0  0  0  0  0  0  0  0  0  0  0
   -0.0244    0.5553   -1.3939 C   0  0  0  0  0  0  0  0  0  0  0  0
   -0.9207    1.1578   -1.2169 H   0  0  0  0  0  0  0  0  0  0  0  0
    0.8423    1.1890   -1.1719 H   0  0  0  0  0  0  0  0  0  0  0  0
    0.0423    0.1453   -2.8455 C   0  0  0  0  0  0  0  0  0  0  0  0
   -0.8261   -0.6408   -3.5741 N   0  0  0  0  0  0  0  0  0  0  0  0
   -1.6380   -1.1370   -3.2190 H   0  0  0  0  0  0  0  0  0  0  0  0
   -0.3571   -0.7233   -4.8720 C   0  0  0  0  0  0  0  0  0  0  0  0
   -0.8286   -1.2860   -5.6727 H   0  0  0  0  0  0  0  0  0  0  0  0
    0.7431   -0.0241   -4.9996 N   0  0  0  0  0  0  0  0  0  0  0  0
    1.0056    0.5192   -3.7470 C   0  0  0  0  0  0  0  0  0  0  0  0
    1.8553    1.1554   -3.5169 H   0  0  0  0  0  0  0  0  0  0  0  0
    0.4441   -0.2187    0.9524 C   0  0  0  0  0  0  0  0  0  0  0  0
    1.6372   -0.1887    1.2214 O   0  0  0  0  0  0  0  0  0  0  0  0
   -0.4477    0.4162    1.7998 N   0  0  0  0  0  0  0  0  0  0  0  0
   -1.4327    0.3035    1.5865 H   0  0  0  0  0  0  0  0  0  0  0  0
   -0.0695    0.9035    3.1207 C   0  0  0  0  0  0  0  0  0  0  0  0
    0.7333    1.6444    3.0413 H   0  0  0  0  0  0  0  0  0  0  0  0
   -0.9264    1.3769    3.6093 H   0  0  0  0  0  0  0  0  0  0  0  0
    0.2763    0.0758    3.7491 H   0  0  0  0  0  0  0  0  0  0  0  0
  1  2  1  0  0  0  0
  2  3  1  0  0  0  0
  2  4  1  0  0  0  0
  2  5  1  0  0  0  0
  5  6  2  0  0  0  0
  5  7  1  0  0  0  0
  7  8  1  0  0  0  0
  7  9  1  0  0  0  0
  9 10  1  0  0  0  0
  9 11  1  0  0  0  0
  9 22  1  0  0  0  0
 11 12  1  0  0  0  0
 11 13  1  0  0  0  0
 11 14  1  0  0  0  0
 14 15  1  0  0  0  0
 14 20  2  0  0  0  0
 15 16  1  0  0  0  0
 15 17  1  0  0  0  0
 17 18  1  0  0  0  0
 17 19  2  0  0  0  0
 19 20  1  0  0  0  0
 20 21  1  0  0  0  0
 22 23  2  0  0  0  0
 22 24  1  0  0  0  0
 24 25  1  0  0  0  0
 24 26  1  0  0  0  0
 26 27  1  0  0  0  0
 26 28  1  0  0  0  0
 26 29  1  0  0  0  0
M  END
$$$$

  -OEChem-03222214043D

 29 29  0     1  0  0  0  0  0999 V2000
   -3.0566   -4.0446    0.6203 H   0  0  0  0  0  0  0  0  0  0  0  0
   -2.9913   -3.1349    0.0164 C   0  0  0  0  0  0  0  0  0  0  0  0
   -3.8133   -2.4702    0.2925 H   0  0  0  0  0  0  0  0  0  0  0  0
   -3.0871   -3.4075   -1.0373 H   0  0  0  0  0  0  0  0  0  0  0  0
   -1.6617   -2.4449    0.2572 C   0  0  0  0  0  0  0  0  0  0  0  0
   -0.8851   -2.9004    1.0758 O   0  0  0  0  0  0  0  0  0  0  0  0
   -1.3494   -1.2963   -0.4441 N   0  0  0  0  0  0  0  0  0  0  0  0
   -1.9904   -1.0317   -1.1824 H   0  0  0  0  0  0  0  0  0  0  0  0
   -0.0188   -0.6568   -0.4315 C   0  0  1  0  0  0  0  0  0  0  0  0
    0.7204   -1.3811   -0.7931 H   0  0  0  0  0  0  0  0  0  0  0  0
   -0.0129    0.5640   -1.3679 C   0  0  0  0  0  0  0  0  0  0  0  0
   -0.8863    1.1957   -1.1781 H   0  0  0  0  0  0  0  0  0  0  0  0
    0.8767    1.1687   -1.1559 H   0  0  0  0  0  0  0  0  0  0  0  0
    0.0295    0.1556   -2.8203 C   0  0  0  0  0  0  0  0  0  0  0  0
   -0.9753   -0.3610   -3.6130 N   0  0  0  0  0  0  0  0  0  0  0  0
   -1.9449   -0.5087   -3.3491 H   0  0  0  0  0  0  0  0  0  0  0  0
   -0.4649   -0.5703   -4.8813 C   0  0  0  0  0  0  0  0  0  0  0  0
   -1.0257   -0.9666   -5.7229 H   0  0  0  0  0  0  0  0  0  0  0  0
    0.7946   -0.2148   -4.9258 N   0  0  0  0  0  0  0  0  0  0  0  0
    1.1167    0.2402   -3.6520 C   0  0  0  0  0  0  0  0  0  0  0  0
    2.0945    0.6109   -3.3583 H   0  0  0  0  0  0  0  0  0  0  0  0
    0.4535   -0.2059    0.9683 C   0  0  0  0  0  0  0  0  0  0  0  0
    1.6499   -0.1928    1.2254 O   0  0  0  0  0  0  0  0  0  0  0  0
   -0.4200    0.4578    1.8120 N   0  0  0  0  0  0  0  0  0  0  0  0
   -1.4077    0.3338    1.6158 H   0  0  0  0  0  0  0  0  0  0  0  0
   -0.0262    0.9362    3.1315 C   0  0  0  0  0  0  0  0  0  0  0  0
    0.7866    1.6656    3.0485 H   0  0  0  0  0  0  0  0  0  0  0  0
   -0.8731    1.4201    3.6272 H   0  0  0  0  0  0  0  0  0  0  0  0
    0.3118    0.1017    3.7551 H   0  0  0  0  0  0  0  0  0  0  0  0
  1  2  1  0  0  0  0
  2  3  1  0  0  0  0
  2  4  1  0  0  0  0
  2  5  1  0  0  0  0
  5  6  2  0  0  0  0
  5  7  1  0  0  0  0
  7  8  1  0  0  0  0
  7  9  1  0  0  0  0
  9 10  1  0  0  0  0
  9 11  1  0  0  0  0
  9 22  1  0  0  0  0
 11 12  1  0  0  0  0
 11 13  1  0  0  0  0
 11 14  1  0  0  0  0
 14 15  1  0  0  0  0
 14 20  2  0  0  0  0
 15 16  1  0  0  0  0
 15 17  1  0  0  0  0
 17 18  1  0  0  0  0
 17 19  2  0  0  0  0
 19 20  1  0  0  0  0
 20 21  1  0  0  0  0
 22 23  2  0  0  0  0
 22 24  1  0  0  0  0
 24 25  1  0  0  0  0
 24 26  1  0  0  0  0
 26 27  1  0  0  0  0
 26 28  1  0  0  0  0
 26 29  1  0  0  0  0
M  END
$$$$

  -OEChem-03222214043D

 29 29  0     1  0  0  0  0  0999 V2000
   -3.0469   -4.0470    0.5553 H   0  0  0  0  0  0  0  0  0  0  0  0
   -2.9668   -3.1439   -0.0566 C   0  0  0  0  0  0  0  0  0  0  0  0
   -3.8215   -2.4977    0.1568 H   0  0  0  0  0  0  0  0  0  0  0  0
   -2.9878   -3.4324   -1.1103 H   0  0  0  0  0  0  0  0  0  0  0  0
   -1.6736   -2.4156    0.2577 C   0  0  0  0  0  0  0  0  0  0  0  0
   -0.9440   -2.8348    1.1369 O   0  0  0  0  0  0  0  0  0  0  0  0
   -1.3450   -1.2735   -0.4468 N   0  0  0  0  0  0  0  0  0  0  0  0
   -1.9167   -1.0871   -1.2633 H   0  0  0  0  0  0  0  0  0  0  0  0
   -0.0058   -0.6536   -0.4219 C   0  0  1  0  0  0  0  0  0  0  0  0
    0.7286   -1.3830   -0.7817 H   0  0  0  0  0  0  0  0  0  0  0  0
    0.0041    0.5728   -1.3496 C   0  0  0  0  0  0  0  0  0  0  0  0
   -0.8597    1.2156   -1.1536 H   0  0  0  0  0  0  0  0  0  0  0  0
    0.9033    1.1654   -1.1439 H   0  0  0  0  0  0  0  0  0  0  0  0
    0.0384    0.1574   -2.7982 C   0  0  0  0  0  0  0  0  0  0  0  0
   -1.0250   -0.0859   -3.6425 N   0  0  0  0  0  0  0  0  0  0  0  0
   -2.0105    0.0513   -3.4329 H   0  0  0  0  0  0  0  0  0  0  0  0
   -0.5221   -0.4223   -4.8861 C   0  0  0  0  0  0  0  0  0  0  0  0
   -1.1223   -0.6598   -5.7598 H   0  0  0  0  0  0  0  0  0  0  0  0
    0.7875   -0.4070   -4.8628 N   0  0  0  0  0  0  0  0  0  0  0  0
    1.1527   -0.0422   -3.5714 C   0  0  0  0  0  0  0  0  0  0  0  0
    2.1763    0.0681   -3.2253 H   0  0  0  0  0  0  0  0  0  0  0  0
    0.4620   -0.2042    0.9800 C   0  0  0  0  0  0  0  0  0  0  0  0
    1.6575   -0.2012    1.2425 O   0  0  0  0  0  0  0  0  0  0  0  0
   -0.4101    0.4754    1.8124 N   0  0  0  0  0  0  0  0  0  0  0  0
   -1.3971    0.3439    1.6166 H   0  0  0  0  0  0  0  0  0  0  0  0
   -0.0222    0.9478    3.1357 C   0  0  0  0  0  0  0  0  0  0  0  0
    0.8090    1.6569    3.0617 H   0  0  0  0  0  0  0  0  0  0  0  0
   -0.8636    1.4539    3.6185 H   0  0  0  0  0  0  0  0  0  0  0  0
    0.2869    0.1075    3.7663 H   0  0  0  0  0  0  0  0  0  0  0  0
  1  2  1  0  0  0  0
  2  3  1  0  0  0  0
  2  4  1  0  0  0  0
  2  5  1  0  0  0  0
  5  6  2  0  0  0  0
  5  7  1  0  0  0  0
  7  8  1  0  0  0  0
  7  9  1  0  0  0  0
  9 10  1  0  0  0  0
  9 11  1  0  0  0  0
  9 22  1  0  0  0  0
 11 12  1  0  0  0  0
 11 13  1  0  0  0  0
 11 14  1  0  0  0  0
 14 15  1  0  0  0  0
 14 20  2  0  0  0  0
 15 16  1  0  0  0  0
 15 17  1  0  0  0  0
 17 18  1  0  0  0  0
 17 19  2  0  0  0  0
 19 20  1  0  0  0  0
 20 21  1  0  0  0  0
 22 23  2  0  0  0  0
 22 24  1  0  0  0  0
 24 25  1  0  0  0  0
 24 26  1  0  0  0  0
 26 27  1  0  0  0  0
 26 28  1  0  0  0  0
 26 29  1  0  0  0  0
M  END
$$$$

  -OEChem-03222214043D

 29 29  0     1  0  0  0  0  0999 V2000
   -3.0493   -4.0391    0.5361 H   0  0  0  0  0  0  0  0  0  0  0  0
   -2.9556   -3.1469   -0.0898 C   0  0  0  0  0  0  0  0  0  0  0  0
   -3.8201   -2.5023    0.0851 H   0  0  0  0  0  0  0  0  0  0  0  0
   -2.9429   -3.4545   -1.1382 H   0  0  0  0  0  0  0  0  0  0  0  0
   -1.6763   -2.4054    0.2498 C   0  0  0  0  0  0  0  0  0  0  0  0
   -0.9625   -2.8141    1.1470 O   0  0  0  0  0  0  0  0  0  0  0  0
   -1.3404   -1.2643   -0.4529 N   0  0  0  0  0  0  0  0  0  0  0  0
   -1.8950   -1.0904   -1.2852 H   0  0  0  0  0  0  0  0  0  0  0  0
    0.0016   -0.6508   -0.4174 C   0  0  1  0  0  0  0  0  0  0  0  0
    0.7358   -1.3823   -0.7734 H   0  0  0  0  0  0  0  0  0  0  0  0
    0.0119    0.5774   -1.3418 C   0  0  0  0  0  0  0  0  0  0  0  0
   -0.8533    1.2181   -1.1444 H   0  0  0  0  0  0  0  0  0  0  0  0
    0.9104    1.1715   -1.1375 H   0  0  0  0  0  0  0  0  0  0  0  0
    0.0482    0.1620   -2.7893 C   0  0  0  0  0  0  0  0  0  0  0  0
   -0.9835    0.1913   -3.7033 N   0  0  0  0  0  0  0  0  0  0  0  0
   -1.9173    0.5659   -3.5521 H   0  0  0  0  0  0  0  0  0  0  0  0
   -0.5008   -0.2670   -4.9156 C   0  0  0  0  0  0  0  0  0  0  0  0
   -1.0812   -0.3464   -5.8303 H   0  0  0  0  0  0  0  0  0  0  0  0
    0.7641   -0.5894   -4.8047 N   0  0  0  0  0  0  0  0  0  0  0  0
    1.1241   -0.3208   -3.4883 C   0  0  0  0  0  0  0  0  0  0  0  0
    2.1160   -0.4744   -3.0728 H   0  0  0  0  0  0  0  0  0  0  0  0
    0.4651   -0.2030    0.9863 C   0  0  0  0  0  0  0  0  0  0  0  0
    1.6599   -0.2047    1.2524 O   0  0  0  0  0  0  0  0  0  0  0  0
   -0.4062    0.4818    1.8150 N   0  0  0  0  0  0  0  0  0  0  0  0
   -1.3933    0.3524    1.6175 H   0  0  0  0  0  0  0  0  0  0  0  0
   -0.0194    0.9522    3.1393 C   0  0  0  0  0  0  0  0  0  0  0  0
    0.8180    1.6542    3.0680 H   0  0  0  0  0  0  0  0  0  0  0  0
   -0.8582    1.4659    3.6185 H   0  0  0  0  0  0  0  0  0  0  0  0
    0.2805    0.1096    3.7714 H   0  0  0  0  0  0  0  0  0  0  0  0
  1  2  1  0  0  0  0
  2  3  1  0  0  0  0
  2  4  1  0  0  0  0
  2  5  1  0  0  0  0
  5  6  2  0  0  0  0
  5  7  1  0  0  0  0
  7  8  1  0  0  0  0
  7  9  1  0  0  0  0
  9 10  1  0  0  0  0
  9 11  1  0  0  0  0
  9 22  1  0  0  0  0
 11 12  1  0  0  0  0
 11 13  1  0  0  0  0
 11 14  1  0  0  0  0
 14 15  1  0  0  0  0
 14 20  2  0  0  0  0
 15 16  1  0  0  0  0
 15 17  1  0  0  0  0
 17 18  1  0  0  0  0
 17 19  2  0  0  0  0
 19 20  1  0  0  0  0
 20 21  1  0  0  0  0
 22 23  2  0  0  0  0
 22 24  1  0  0  0  0
 24 25  1  0  0  0  0
 24 26  1  0  0  0  0
 26 27  1  0  0  0  0
 26 28  1  0  0  0  0
 26 29  1  0  0  0  0
M  END
$$$$

  -OEChem-03222214043D

 29 29  0     1  0  0  0  0  0999 V2000
   -3.0576   -4.0256    0.5356 H   0  0  0  0  0  0  0  0  0  0  0  0
   -2.9492   -3.1407   -0.0983 C   0  0  0  0  0  0  0  0  0  0  0  0
   -3.8076   -2.4847    0.0635 H   0  0  0  0  0  0  0  0  0  0  0  0
   -2.9322   -3.4582   -1.1438 H   0  0  0  0  0  0  0  0  0  0  0  0
   -1.6646   -2.4096    0.2431 C   0  0  0  0  0  0  0  0  0  0  0  0
   -0.9533   -2.8240    1.1399 O   0  0  0  0  0  0  0  0  0  0  0  0
   -1.3205   -1.2704   -0.4580 N   0  0  0  0  0  0  0  0  0  0  0  0
   -1.8748   -1.0885   -1.2897 H   0  0  0  0  0  0  0  0  0  0  0  0
    0.0205   -0.6559   -0.4122 C   0  0  1  0  0  0  0  0  0  0  0  0
    0.7594   -1.3872   -0.7576 H   0  0  0  0  0  0  0  0  0  0  0  0
    0.0284    0.5718   -1.3386 C   0  0  0  0  0  0  0  0  0  0  0  0
   -0.8465    1.1997   -1.1427 H   0  0  0  0  0  0  0  0  0  0  0  0
    0.9176    1.1782   -1.1305 H   0  0  0  0  0  0  0  0  0  0  0  0
    0.0726    0.1649   -2.7892 C   0  0  0  0  0  0  0  0  0  0  0  0
   -0.8564    0.4559   -3.7649 N   0  0  0  0  0  0  0  0  0  0  0  0
   -1.6804    1.0440   -3.6604 H   0  0  0  0  0  0  0  0  0  0  0  0
   -0.4343   -0.1145   -4.9515 C   0  0  0  0  0  0  0  0  0  0  0  0
   -0.9580   -0.0443   -5.9006 H   0  0  0  0  0  0  0  0  0  0  0  0
    0.6938   -0.7549   -4.7668 N   0  0  0  0  0  0  0  0  0  0  0  0
    1.0275   -0.5850   -3.4273 C   0  0  0  0  0  0  0  0  0  0  0  0
    1.9157   -0.9935   -2.9539 H   0  0  0  0  0  0  0  0  0  0  0  0
    0.4703   -0.2045    0.9948 C   0  0  0  0  0  0  0  0  0  0  0  0
    1.6624   -0.2059    1.2724 O   0  0  0  0  0  0  0  0  0  0  0  0
   -0.4097    0.4814    1.8136 N   0  0  0  0  0  0  0  0  0  0  0  0
   -1.3948    0.3482    1.6085 H   0  0  0  0  0  0  0  0  0  0  0  0
   -0.0357    0.9574    3.1397 C   0  0  0  0  0  0  0  0  0  0  0  0
    0.8035    1.6580    3.0739 H   0  0  0  0  0  0  0  0  0  0  0  0
   -0.8785    1.4747    3.6076 H   0  0  0  0  0  0  0  0  0  0  0  0
    0.2559    0.1172    3.7786 H   0  0  0  0  0  0  0  0  0  0  0  0
  1  2  1  0  0  0  0
  2  3  1  0  0  0  0
  2  4  1  0  0  0  0
  2  5  1  0  0  0  0
  5  6  2  0  0  0  0
  5  7  1  0  0  0  0
  7  8  1  0  0  0  0
  7  9  1  0  0  0  0
  9 10  1  0  0  0  0
  9 11  1  0  0  0  0
  9 22  1  0  0  0  0
 11 12  1  0  0  0  0
 11 13  1  0  0  0  0
 11 14  1  0  0  0  0
 14 15  1  0  0  0  0
 14 20  2  0  0  0  0
 15 16  1  0  0  0  0
 15 17  1  0  0  0  0
 17 18  1  0  0  0  0
 17 19  2  0  0  0  0
 19 20  1  0  0  0  0
 20 21  1  0  0  0  0
 22 23  2  0  0  0  0
 22 24  1  0  0  0  0
 24 25  1  0  0  0  0
 24 26  1  0  0  0  0
 26 27  1  0  0  0  0
 26 28  1  0  0  0  0
 26 29  1  0  0  0  0
M  END
$$$$

  -OEChem-03222214043D

 29 29  0     1  0  0  0  0  0999 V2000
   -3.0610   -4.0234    0.5476 H   0  0  0  0  0  0  0  0  0  0  0  0
   -2.9442   -3.1441   -0.0926 C   0  0  0  0  0  0  0  0  0  0  0  0
   -3.8004   -2.4825    0.0585 H   0  0  0  0  0  0  0  0  0  0  0  0
   -2.9222   -3.4704   -1.1352 H   0  0  0  0  0  0  0  0  0  0  0  0
   -1.6579   -2.4171    0.2512 C   0  0  0  0  0  0  0  0  0  0  0  0
   -0.9517   -2.8312    1.1522 O   0  0  0  0  0  0  0  0  0  0  0  0
   -1.3035   -1.2847   -0.4556 N   0  0  0  0  0  0  0  0  0  0  0  0
   -1.8577   -1.0975   -1.2868 H   0  0  0  0  0  0  0  0  0  0  0  0
    0.0375   -0.6706   -0.4016 C   0  0  1  0  0  0  0  0  0  0  0  0
    0.7806   -1.4054   -0.7278 H   0  0  0  0  0  0  0  0  0  0  0  0
    0.0505    0.5499   -1.3389 C   0  0  0  0  0  0  0  0  0  0  0  0
   -0.8341    1.1663   -1.1501 H   0  0  0  0  0  0  0  0  0  0  0  0
    0.9301    1.1680   -1.1248 H   0  0  0  0  0  0  0  0  0  0  0  0
    0.1062    0.1540   -2.7942 C   0  0  0  0  0  0  0  0  0  0  0  0
   -0.6522    0.6857   -3.8150 N   0  0  0  0  0  0  0  0  0  0  0  0
   -1.3063    1.4621   -3.7409 H   0  0  0  0  0  0  0  0  0  0  0  0
   -0.3252    0.0344   -4.9896 C   0  0  0  0  0  0  0  0  0  0  0  0
   -0.7541    0.2491   -5.9644 H   0  0  0  0  0  0  0  0  0  0  0  0
    0.5789   -0.8846   -4.7565 N   0  0  0  0  0  0  0  0  0  0  0  0
    0.8632   -0.8198   -3.3966 C   0  0  0  0  0  0  0  0  0  0  0  0
    1.5800   -1.4573   -2.8874 H   0  0  0  0  0  0  0  0  0  0  0  0
    0.4722   -0.2069    1.0063 C   0  0  0  0  0  0  0  0  0  0  0  0
    1.6613   -0.2061    1.2968 O   0  0  0  0  0  0  0  0  0  0  0  0
   -0.4161    0.4868    1.8093 N   0  0  0  0  0  0  0  0  0  0  0  0
   -1.3988    0.3509    1.5948 H   0  0  0  0  0  0  0  0  0  0  0  0
   -0.0566    0.9723    3.1361 C   0  0  0  0  0  0  0  0  0  0  0  0
    0.7846    1.6709    3.0750 H   0  0  0  0  0  0  0  0  0  0  0  0
   -0.9037    1.4946    3.5904 H   0  0  0  0  0  0  0  0  0  0  0  0
    0.2262    0.1368    3.7852 H   0  0  0  0  0  0  0  0  0  0  0  0
  1  2  1  0  0  0  0
  2  3  1  0  0  0  0
  2  4  1  0  0  0  0
  2  5  1  0  0  0  0
  5  6  2  0  0  0  0
  5  7  1  0  0  0  0
  7  8  1  0  0  0  0
  7  9  1  0  0  0  0
  9 10  1  0  0  0  0
  9 11  1  0  0  0  0
  9 22  1  0  0  0  0
 11 12  1  0  0  0  0
 11 13  1  0  0  0  0
 11 14  1  0  0  0  0
 14 15  1  0  0  0  0
 14 20  2  0  0  0  0
 15 16  1  0  0  0  0
 15 17  1  0  0  0  0
 17 18  1  0  0  0  0
 17 19  2  0  0  0  0
 19 20  1  0  0  0  0
 20 21  1  0  0  0  0
 22 23  2  0  0  0  0
 22 24  1  0  0  0  0
 24 25  1  0  0  0  0
 24 26  1  0  0  0  0
 26 27  1  0  0  0  0
 26 28  1  0  0  0  0
 26 29  1  0  0  0  0
M  END
$$$$

  -OEChem-03222214043D

 29 29  0     1  0  0  0  0  0999 V2000
   -3.0751   -4.0091    0.5963 H   0  0  0  0  0  0  0  0  0  0  0  0
   -2.9446   -3.1473   -0.0644 C   0  0  0  0  0  0  0  0  0  0  0  0
   -3.7926   -2.4715    0.0682 H   0  0  0  0  0  0  0  0  0  0  0  0
   -2.9237   -3.4988   -1.0989 H   0  0  0  0  0  0  0  0  0  0  0  0
   -1.6497   -2.4293    0.2653 C   0  0  0  0  0  0  0  0  0  0  0  0
   -0.9406   -2.8436    1.1638 O   0  0  0  0  0  0  0  0  0  0  0  0
   -1.2888   -1.3048   -0.4510 N   0  0  0  0  0  0  0  0  0  0  0  0
   -1.8505   -1.1097   -1.2755 H   0  0  0  0  0  0  0  0  0  0  0  0
    0.0517   -0.6891   -0.3948 C   0  0  1  0  0  0  0  0  0  0  0  0
    0.8012   -1.4244   -0.7045 H   0  0  0  0  0  0  0  0  0  0  0  0
    0.0705    0.5231   -1.3435 C   0  0  0  0  0  0  0  0  0  0  0  0
   -0.8181    1.1364   -1.1624 H   0  0  0  0  0  0  0  0  0  0  0  0
    0.9461    1.1448   -1.1243 H   0  0  0  0  0  0  0  0  0  0  0  0
    0.1353    0.1336   -2.8024 C   0  0  0  0  0  0  0  0  0  0  0  0
   -0.3939    0.8559   -3.8505 N   0  0  0  0  0  0  0  0  0  0  0  0
   -0.8354    1.7712   -3.7901 H   0  0  0  0  0  0  0  0  0  0  0  0
   -0.1750    0.1576   -5.0230 C   0  0  0  0  0  0  0  0  0  0  0  0
   -0.4725    0.4891   -6.0138 H   0  0  0  0  0  0  0  0  0  0  0  0
    0.4423   -0.9686   -4.7654 N   0  0  0  0  0  0  0  0  0  0  0  0
    0.6476   -0.9972   -3.3906 C   0  0  0  0  0  0  0  0  0  0  0  0
    1.1366   -1.8111   -2.8641 H   0  0  0  0  0  0  0  0  0  0  0  0
    0.4714   -0.2110    1.0129 C   0  0  0  0  0  0  0  0  0  0  0  0
    1.6566   -0.2093    1.3181 O   0  0  0  0  0  0  0  0  0  0  0  0
   -0.4252    0.4894    1.8006 N   0  0  0  0  0  0  0  0  0  0  0  0
   -1.4057    0.3581    1.5736 H   0  0  0  0  0  0  0  0  0  0  0  0
   -0.0804    0.9841    3.1279 C   0  0  0  0  0  0  0  0  0  0  0  0
    0.7601    1.6838    3.0705 H   0  0  0  0  0  0  0  0  0  0  0  0
   -0.9331    1.5075    3.5706 H   0  0  0  0  0  0  0  0  0  0  0  0
    0.1978    0.1530    3.7846 H   0  0  0  0  0  0  0  0  0  0  0  0
  1  2  1  0  0  0  0
  2  3  1  0  0  0  0
  2  4  1  0  0  0  0
  2  5  1  0  0  0  0
  5  6  2  0  0  0  0
  5  7  1  0  0  0  0
  7  8  1  0  0  0  0
  7  9  1  0  0  0  0
  9 10  1  0  0  0  0
  9 11  1  0  0  0  0
  9 22  1  0  0  0  0
 11 12  1  0  0  0  0
 11 13  1  0  0  0  0
 11 14  1  0  0  0  0
 14 15  1  0  0  0  0
 14 20  2  0  0  0  0
 15 16  1  0  0  0  0
 15 17  1  0  0  0  0
 17 18  1  0  0  0  0
 17 19  2  0  0  0  0
 19 20  1  0  0  0  0
 20 21  1  0  0  0  0
 22 23  2  0  0  0  0
 22 24  1  0  0  0  0
 24 25  1  0  0  0  0
 24 26  1  0  0  0  0
 26 27  1  0  0  0  0
 26 28  1  0  0  0  0
 26 29  1  0  0  0  0
M  END
$$$$

  -OEChem-03222214043D

 29 29  0     1  0  0  0  0  0999 V2000
   -3.0585   -4.0369    0.5844 H   0  0  0  0  0  0  0  0  0  0  0  0
   -2.9545   -3.1448   -0.0399 C   0  0  0  0  0  0  0  0  0  0  0  0
   -3.7957   -2.4767    0.1584 H   0  0  0  0  0  0  0  0  0  0  0  0
   -2.9760   -3.4474   -1.0896 H   0  0  0  0  0  0  0  0  0  0  0  0
   -1.6472   -2.4413    0.2717 C   0  0  0  0  0  0  0  0  0  0  0  0
   -0.9277   -2.8654    1.1572 O   0  0  0  0  0  0  0  0  0  0  0  0
   -1.2852   -1.3188   -0.4470 N   0  0  0  0  0  0  0  0  0  0  0  0
   -1.8615   -1.1065   -1.2570 H   0  0  0  0  0  0  0  0  0  0  0  0
    0.0539   -0.6992   -0.3917 C   0  0  1  0  0  0  0  0  0  0  0  0
    0.8076   -1.4326   -0.6965 H   0  0  0  0  0  0  0  0  0  0  0  0
    0.0741    0.5058   -1.3488 C   0  0  0  0  0  0  0  0  0  0  0  0
   -0.8137    1.1225   -1.1761 H   0  0  0  0  0  0  0  0  0  0  0  0
    0.9506    1.1261   -1.1290 H   0  0  0  0  0  0  0  0  0  0  0  0
    0.1448    0.1106   -2.8063 C   0  0  0  0  0  0  0  0  0  0  0  0
   -0.1136    0.9443   -3.8728 N   0  0  0  0  0  0  0  0  0  0  0  0
   -0.3267    1.9386   -3.8230 H   0  0  0  0  0  0  0  0  0  0  0  0
    0.0098    0.2178   -5.0419 C   0  0  0  0  0  0  0  0  0  0  0  0
   -0.1266    0.6160   -6.0433 H   0  0  0  0  0  0  0  0  0  0  0  0
    0.3126   -1.0269   -4.7668 N   0  0  0  0  0  0  0  0  0  0  0  0
    0.4073   -1.1090   -3.3824 C   0  0  0  0  0  0  0  0  0  0  0  0
    0.6414   -2.0209   -2.8416 H   0  0  0  0  0  0  0  0  0  0  0  0
    0.4697   -0.2147    1.0151 C   0  0  0  0  0  0  0  0  0  0  0  0
    1.6547   -0.2057    1.3217 O   0  0  0  0  0  0  0  0  0  0  0  0
   -0.4307    0.4862    1.7985 N   0  0  0  0  0  0  0  0  0  0  0  0
   -1.4106    0.3556    1.5689 H   0  0  0  0  0  0  0  0  0  0  0  0
   -0.0887    0.9922    3.1221 C   0  0  0  0  0  0  0  0  0  0  0  0
    0.7505    1.6928    3.0595 H   0  0  0  0  0  0  0  0  0  0  0  0
   -0.9428    1.5176    3.5593 H   0  0  0  0  0  0  0  0  0  0  0  0
    0.1900    0.1672    3.7862 H   0  0  0  0  0  0  0  0  0  0  0  0
  1  2  1  0  0  0  0
  2  3  1  0  0  0  0
  2  4  1  0  0  0  0
  2  5  1  0  0  0  0
  5  6  2  0  0  0  0
  5  7  1  0  0  0  0
  7  8  1  0  0  0  0
  7  9  1  0  0  0  0
  9 10  1  0  0  0  0
  9 11  1  0  0  0  0
  9 22  1  0  0  0  0
 11 12  1  0  0  0  0
 11 13  1  0  0  0  0
 11 14  1  0  0  0  0
 14 15  1  0  0  0  0
 14 20  2  0  0  0  0
 15 16  1  0  0  0  0
 15 17  1  0  0  0  0
 17 18  1  0  0  0  0
 17 19  2  0  0  0  0
 19 20  1  0  0  0  0
 20 21  1  0  0  0  0
 22 23  2  0  0  0  0
 22 24  1  0  0  0  0
 24 25  1  0  0  0  0
 24 26  1  0  0  0  0
 26 27  1  0  0  0  0
 26 28  1  0  0  0  0
 26 29  1  0  0  0  0
M  END
$$$$

  -OEChem-03222214043D

 29 29  0     1  0  0  0  0  0999 V2000
   -3.0638   -4.0711    0.6307 H   0  0  0  0  0  0  0  0  0  0  0  0
   -2.9946   -3.1509    0.0437 C   0  0  0  0  0  0  0  0  0  0  0  0
   -3.8144   -2.4879    0.3302 H   0  0  0  0  0  0  0  0  0  0  0  0
   -3.0906   -3.4030   -1.0152 H   0  0  0  0  0  0  0  0  0  0  0  0
   -1.6629   -2.4702    0.2967 C   0  0  0  0  0  0  0  0  0  0  0  0
   -0.9041   -2.9135    1.1391 O   0  0  0  0  0  0  0  0  0  0  0  0
   -1.3227   -1.3429   -0.4242 N   0  0  0  0  0  0  0  0  0  0  0  0
   -1.9534   -1.0799   -1.1772 H   0  0  0  0  0  0  0  0  0  0  0  0
    0.0102   -0.7068   -0.3948 C   0  0  1  0  0  0  0  0  0  0  0  0
    0.7520   -1.4454   -0.7189 H   0  0  0  0  0  0  0  0  0  0  0  0
    0.0401    0.4799   -1.3733 C   0  0  0  0  0  0  0  0  0  0  0  0
   -0.6949    1.2259   -1.0541 H   0  0  0  0  0  0  0  0  0  0  0  0
    1.0288    0.9499   -1.3238 H   0  0  0  0  0  0  0  0  0  0  0  0
   -0.2363    0.1042   -2.8132 C   0  0  0  0  0  0  0  0  0  0  0  0
   -0.2666    0.9843   -3.8732 N   0  0  0  0  0  0  0  0  0  0  0  0
   -0.1089    1.9891   -3.8266 H   0  0  0  0  0  0  0  0  0  0  0  0
   -0.5205    0.2749   -5.0318 C   0  0  0  0  0  0  0  0  0  0  0  0
   -0.6065    0.7076   -6.0244 H   0  0  0  0  0  0  0  0  0  0  0  0
   -0.6459   -1.0004   -4.7583 N   0  0  0  0  0  0  0  0  0  0  0  0
   -0.4470   -1.1254   -3.3890 C   0  0  0  0  0  0  0  0  0  0  0  0
   -0.4588   -2.0718   -2.8572 H   0  0  0  0  0  0  0  0  0  0  0  0
    0.4552   -0.2170    0.9997 C   0  0  0  0  0  0  0  0  0  0  0  0
    1.6472   -0.1897    1.2761 O   0  0  0  0  0  0  0  0  0  0  0  0
   -0.4356    0.4740    1.8023 N   0  0  0  0  0  0  0  0  0  0  0  0
   -1.4190    0.3333    1.5934 H   0  0  0  0  0  0  0  0  0  0  0  0
   -0.0715    0.9884    3.1167 C   0  0  0  0  0  0  0  0  0  0  0  0
    0.7570    1.6997    3.0350 H   0  0  0  0  0  0  0  0  0  0  0  0
   -0.9231    1.5039    3.5703 H   0  0  0  0  0  0  0  0  0  0  0  0
    0.2315    0.1688    3.7769 H   0  0  0  0  0  0  0  0  0  0  0  0
  1  2  1  0  0  0  0
  2  3  1  0  0  0  0
  2  4  1  0  0  0  0
  2  5  1  0  0  0  0
  5  6  2  0  0  0  0
  5  7  1  0  0  0  0
  7  8  1  0  0  0  0
  7  9  1  0  0  0  0
  9 10  1  0  0  0  0
  9 11  1  0  0  0  0
  9 22  1  0  0  0  0
 11 12  1  0  0  0  0
 11 13  1  0  0  0  0
 11 14  1  0  0  0  0
 14 15  1  0  0  0  0
 14 20  2  0  0  0  0
 15 16  1  0  0  0  0
 15 17  1  0  0  0  0
 17 18  1  0  0  0  0
 17 19  2  0  0  0  0
 19 20  1  0  0  0  0
 20 21  1  0  0  0  0
 22 23  2  0  0  0  0
 22 24  1  0  0  0  0
 24 25  1  0  0  0  0
 24 26  1  0  0  0  0
 26 27  1  0  0  0  0
 26 28  1  0  0  0  0
 26 29  1  0  0  0  0
M  END
$$$$

  -OEChem-03222214043D

 29 29  0     1  0  0  0  0  0999 V2000
   -3.0762   -4.0799    0.6979 H   0  0  0  0  0  0  0  0  0  0  0  0
   -3.0153   -3.1670    0.0985 C   0  0  0  0  0  0  0  0  0  0  0  0
   -3.8291   -2.4993    0.3904 H   0  0  0  0  0  0  0  0  0  0  0  0
   -3.1290   -3.4324   -0.9553 H   0  0  0  0  0  0  0  0  0  0  0  0
   -1.6780   -2.4864    0.3213 C   0  0  0  0  0  0  0  0  0  0  0  0
   -0.8999   -2.9319    1.1445 O   0  0  0  0  0  0  0  0  0  0  0  0
   -1.3508   -1.3599   -0.4074 N   0  0  0  0  0  0  0  0  0  0  0  0
   -2.0062   -1.0799   -1.1321 H   0  0  0  0  0  0  0  0  0  0  0  0
   -0.0193   -0.7199   -0.3967 C   0  0  1  0  0  0  0  0  0  0  0  0
    0.7160   -1.4634   -0.7240 H   0  0  0  0  0  0  0  0  0  0  0  0
    0.0184    0.4608   -1.3834 C   0  0  0  0  0  0  0  0  0  0  0  0
   -0.7042    1.2196   -1.0661 H   0  0  0  0  0  0  0  0  0  0  0  0
    1.0141    0.9154   -1.3326 H   0  0  0  0  0  0  0  0  0  0  0  0
   -0.2574    0.0988   -2.8281 C   0  0  0  0  0  0  0  0  0  0  0  0
    0.0083    0.9190   -3.9037 N   0  0  0  0  0  0  0  0  0  0  0  0
    0.3918    1.8613   -3.8612 H   0  0  0  0  0  0  0  0  0  0  0  0
   -0.3084    0.2451   -5.0676 C   0  0  0  0  0  0  0  0  0  0  0  0
   -0.2129    0.6501   -6.0711 H   0  0  0  0  0  0  0  0  0  0  0  0
   -0.7439   -0.9576   -4.7842 N   0  0  0  0  0  0  0  0  0  0  0  0
   -0.6894   -1.0735   -3.4011 C   0  0  0  0  0  0  0  0  0  0  0  0
   -0.9468   -1.9797   -2.8627 H   0  0  0  0  0  0  0  0  0  0  0  0
    0.4432   -0.2242    0.9901 C   0  0  0  0  0  0  0  0  0  0  0  0
    1.6391   -0.1879    1.2479 O   0  0  0  0  0  0  0  0  0  0  0  0
   -0.4381    0.4672    1.8028 N   0  0  0  0  0  0  0  0  0  0  0  0
   -1.4242    0.3259    1.6088 H   0  0  0  0  0  0  0  0  0  0  0  0
   -0.0541    1.0017    3.1035 C   0  0  0  0  0  0  0  0  0  0  0  0
    0.7711    1.7139    2.9977 H   0  0  0  0  0  0  0  0  0  0  0  0
   -0.8996    1.5220    3.5634 H   0  0  0  0  0  0  0  0  0  0  0  0
    0.2623    0.1928    3.7706 H   0  0  0  0  0  0  0  0  0  0  0  0
  1  2  1  0  0  0  0
  2  3  1  0  0  0  0
  2  4  1  0  0  0  0
  2  5  1  0  0  0  0
  5  6  2  0  0  0  0
  5  7  1  0  0  0  0
  7  8  1  0  0  0  0
  7  9  1  0  0  0  0
  9 10  1  0  0  0  0
  9 11  1  0  0  0  0
  9 22  1  0  0  0  0
 11 12  1  0  0  0  0
 11 13  1  0  0  0  0
 11 14  1  0  0  0  0
 14 15  1  0  0  0  0
 14 20  2  0  0  0  0
 15 16  1  0  0  0  0
 15 17  1  0  0  0  0
 17 18  1  0  0  0  0
 17 19  2  0  0  0  0
 19 20  1  0  0  0  0
 20 21  1  0  0  0  0
 22 23  2  0  0  0  0
 22 24  1  0  0  0  0
 24 25  1  0  0  0  0
 24 26  1  0  0  0  0
 26 27  1  0  0  0  0
 26 28  1  0  0  0  0
 26 29  1  0  0  0  0
M  END
$$$$

  -OEChem-03222214043D

 29 29  0     1  0  0  0  0  0999 V2000
   -3.0765   -4.0749    0.7572 H   0  0  0  0  0  0  0  0  0  0  0  0
   -3.0227   -3.1651    0.1524 C   0  0  0  0  0  0  0  0  0  0  0  0
   -3.8204   -2.4872    0.4650 H   0  0  0  0  0  0  0  0  0  0  0  0
   -3.1695   -3.4330   -0.8967 H   0  0  0  0  0  0  0  0  0  0  0  0
   -1.6720   -2.4989    0.3334 C   0  0  0  0  0  0  0  0  0  0  0  0
   -0.8724   -2.9542    1.1304 O   0  0  0  0  0  0  0  0  0  0  0  0
   -1.3597   -1.3710   -0.3996 N   0  0  0  0  0  0  0  0  0  0  0  0
   -2.0425   -1.0692   -1.0886 H   0  0  0  0  0  0  0  0  0  0  0  0
   -0.0334   -0.7222   -0.4049 C   0  0  1  0  0  0  0  0  0  0  0  0
    0.7007   -1.4661   -0.7348 H   0  0  0  0  0  0  0  0  0  0  0  0
    0.0079    0.4550   -1.3969 C   0  0  0  0  0  0  0  0  0  0  0  0
   -0.7060    1.2229   -1.0819 H   0  0  0  0  0  0  0  0  0  0  0  0
    1.0080    0.8996   -1.3432 H   0  0  0  0  0  0  0  0  0  0  0  0
   -0.2664    0.0999   -2.8446 C   0  0  0  0  0  0  0  0  0  0  0  0
    0.2649    0.7794   -3.9202 N   0  0  0  0  0  0  0  0  0  0  0  0
    0.8651    1.6007   -3.8746 H   0  0  0  0  0  0  0  0  0  0  0  0
   -0.1334    0.1552   -5.0865 C   0  0  0  0  0  0  0  0  0  0  0  0
    0.1262    0.4796   -6.0902 H   0  0  0  0  0  0  0  0  0  0  0  0
   -0.8736   -0.8882   -4.8047 N   0  0  0  0  0  0  0  0  0  0  0  0
   -0.9420   -0.9506   -3.4189 C   0  0  0  0  0  0  0  0  0  0  0  0
   -1.4589   -1.7387   -2.8827 H   0  0  0  0  0  0  0  0  0  0  0  0
    0.4371   -0.2235    0.9781 C   0  0  0  0  0  0  0  0  0  0  0  0
    1.6346   -0.1820    1.2284 O   0  0  0  0  0  0  0  0  0  0  0  0
   -0.4427    0.4611    1.7980 N   0  0  0  0  0  0  0  0  0  0  0  0
   -1.4294    0.3186    1.6079 H   0  0  0  0  0  0  0  0  0  0  0  0
   -0.0535    0.9908    3.0989 C   0  0  0  0  0  0  0  0  0  0  0  0
    0.7666    1.7087    2.9917 H   0  0  0  0  0  0  0  0  0  0  0  0
   -0.8991    1.5033    3.5674 H   0  0  0  0  0  0  0  0  0  0  0  0
    0.2722    0.1799    3.7591 H   0  0  0  0  0  0  0  0  0  0  0  0
  1  2  1  0  0  0  0
  2  3  1  0  0  0  0
  2  4  1  0  0  0  0
  2  5  1  0  0  0  0
  5  6  2  0  0  0  0
  5  7  1  0  0  0  0
  7  8  1  0  0  0  0
  7  9  1  0  0  0  0
  9 10  1  0  0  0  0
  9 11  1  0  0  0  0
  9 22  1  0  0  0  0
 11 12  1  0  0  0  0
 11 13  1  0  0  0  0
 11 14  1  0  0  0  0
 14 15  1  0  0  0  0
 14 20  2  0  0  0  0
 15 16  1  0  0  0  0
 15 17  1  0  0  0  0
 17 18  1  0  0  0  0
 17 19  2  0  0  0  0
 19 20  1  0  0  0  0
 20 21  1  0  0  0  0
 22 23  2  0  0  0  0
 22 24  1  0  0  0  0
 24 25  1  0  0  0  0
 24 26  1  0  0  0  0
 26 27  1  0  0  0  0
 26 28  1  0  0  0  0
 26 29  1  0  0  0  0
M  END
$$$$

  -OEChem-03222214043D

 29 29  0     1  0  0  0  0  0999 V2000
   -3.0634   -4.0844    0.7582 H   0  0  0  0  0  0  0  0  0  0  0  0
   -3.0123   -3.1750    0.1525 C   0  0  0  0  0  0  0  0  0  0  0  0
   -3.8102   -2.4977    0.4660 H   0  0  0  0  0  0  0  0  0  0  0  0
   -3.1607   -3.4442   -0.8961 H   0  0  0  0  0  0  0  0  0  0  0  0
   -1.6628   -2.5056    0.3301 C   0  0  0  0  0  0  0  0  0  0  0  0
   -0.8595   -2.9592    1.1244 O   0  0  0  0  0  0  0  0  0  0  0  0
   -1.3589   -1.3734   -0.3997 N   0  0  0  0  0  0  0  0  0  0  0  0
   -2.0479   -1.0710   -1.0809 H   0  0  0  0  0  0  0  0  0  0  0  0
   -0.0363   -0.7177   -0.4072 C   0  0  1  0  0  0  0  0  0  0  0  0
    0.6978   -1.4611   -0.7381 H   0  0  0  0  0  0  0  0  0  0  0  0
    0.0129    0.4611   -1.3983 C   0  0  0  0  0  0  0  0  0  0  0  0
   -0.7046    1.2280   -1.0890 H   0  0  0  0  0  0  0  0  0  0  0  0
    1.0110    0.9098   -1.3395 H   0  0  0  0  0  0  0  0  0  0  0  0
   -0.2559    0.0962   -2.8439 C   0  0  0  0  0  0  0  0  0  0  0  0
    0.4858    0.5496   -3.9140 N   0  0  0  0  0  0  0  0  0  0  0  0
    1.2934    1.1682   -3.8664 H   0  0  0  0  0  0  0  0  0  0  0  0
   -0.0255    0.0039   -5.0759 C   0  0  0  0  0  0  0  0  0  0  0  0
    0.3597    0.1865   -6.0752 H   0  0  0  0  0  0  0  0  0  0  0  0
   -1.0473   -0.7674   -4.7958 N   0  0  0  0  0  0  0  0  0  0  0  0
   -1.1944   -0.7276   -3.4155 C   0  0  0  0  0  0  0  0  0  0  0  0
   -1.9602   -1.2771   -2.8797 H   0  0  0  0  0  0  0  0  0  0  0  0
    0.4363   -0.2217    0.9762 C   0  0  0  0  0  0  0  0  0  0  0  0
    1.6347   -0.1729    1.2209 O   0  0  0  0  0  0  0  0  0  0  0  0
   -0.4434    0.4552    1.8027 N   0  0  0  0  0  0  0  0  0  0  0  0
   -1.4302    0.3102    1.6151 H   0  0  0  0  0  0  0  0  0  0  0  0
   -0.0526    0.9836    3.1040 C   0  0  0  0  0  0  0  0  0  0  0  0
    0.7609    1.7088    2.9961 H   0  0  0  0  0  0  0  0  0  0  0  0
   -0.9006    1.4873    3.5776 H   0  0  0  0  0  0  0  0  0  0  0  0
    0.2826    0.1737    3.7606 H   0  0  0  0  0  0  0  0  0  0  0  0
  1  2  1  0  0  0  0
  2  3  1  0  0  0  0
  2  4  1  0  0  0  0
  2  5  1  0  0  0  0
  5  6  2  0  0  0  0
  5  7  1  0  0  0  0
  7  8  1  0  0  0  0
  7  9  1  0  0  0  0
  9 10  1  0  0  0  0
  9 11  1  0  0  0  0
  9 22  1  0  0  0  0
 11 12  1  0  0  0  0
 11 13  1  0  0  0  0
 11 14  1  0  0  0  0
 14 15  1  0  0  0  0
 14 20  2  0  0  0  0
 15 16  1  0  0  0  0
 15 17  1  0  0  0  0
 17 18  1  0  0  0  0
 17 19  2  0  0  0  0
 19 20  1  0  0  0  0
 20 21  1  0  0  0  0
 22 23  2  0  0  0  0
 22 24  1  0  0  0  0
 24 25  1  0  0  0  0
 24 26  1  0  0  0  0
 26 27  1  0  0  0  0
 26 28  1  0  0  0  0
 26 29  1  0  0  0  0
M  END
$$$$

  -OEChem-03222214043D

 29 29  0     1  0  0  0  0  0999 V2000
   -3.0331   -4.1156    0.6795 H   0  0  0  0  0  0  0  0  0  0  0  0
   -2.9859   -3.1961    0.0890 C   0  0  0  0  0  0  0  0  0  0  0  0
   -3.8133   -2.5460    0.3832 H   0  0  0  0  0  0  0  0  0  0  0  0
   -3.0894   -3.4532   -0.9680 H   0  0  0  0  0  0  0  0  0  0  0  0
   -1.6630   -2.4924    0.3253 C   0  0  0  0  0  0  0  0  0  0  0  0
   -0.8897   -2.9188    1.1633 O   0  0  0  0  0  0  0  0  0  0  0  0
   -1.3510   -1.3617   -0.4036 N   0  0  0  0  0  0  0  0  0  0  0  0
   -1.9893   -1.1263   -1.1560 H   0  0  0  0  0  0  0  0  0  0  0  0
   -0.0240   -0.7139   -0.3986 C   0  0  1  0  0  0  0  0  0  0  0  0
    0.7097   -1.4582   -0.7275 H   0  0  0  0  0  0  0  0  0  0  0  0
    0.0311    0.4701   -1.3814 C   0  0  0  0  0  0  0  0  0  0  0  0
   -0.6988    1.2273   -1.0771 H   0  0  0  0  0  0  0  0  0  0  0  0
    1.0223    0.9336   -1.3249 H   0  0  0  0  0  0  0  0  0  0  0  0
   -0.2415    0.0734   -2.8139 C   0  0  0  0  0  0  0  0  0  0  0  0
    0.6232    0.2331   -3.8745 N   0  0  0  0  0  0  0  0  0  0  0  0
    1.5764    0.5888   -3.8260 H   0  0  0  0  0  0  0  0  0  0  0  0
   -0.0077   -0.1949   -5.0274 C   0  0  0  0  0  0  0  0  0  0  0  0
    0.4376   -0.2011   -6.0182 H   0  0  0  0  0  0  0  0  0  0  0  0
   -1.2267   -0.5920   -4.7513 N   0  0  0  0  0  0  0  0  0  0  0  0
   -1.3889   -0.4158   -3.3840 C   0  0  0  0  0  0  0  0  0  0  0  0
   -2.3101   -0.6253   -2.8500 H   0  0  0  0  0  0  0  0  0  0  0  0
    0.4425   -0.2198    0.9875 C   0  0  0  0  0  0  0  0  0  0  0  0
    1.6401   -0.1783    1.2392 O   0  0  0  0  0  0  0  0  0  0  0  0
   -0.4390    0.4634    1.8068 N   0  0  0  0  0  0  0  0  0  0  0  0
   -1.4252    0.3170    1.6160 H   0  0  0  0  0  0  0  0  0  0  0  0
   -0.0534    0.9921    3.1092 C   0  0  0  0  0  0  0  0  0  0  0  0
    0.7629    1.7145    3.0039 H   0  0  0  0  0  0  0  0  0  0  0  0
   -0.9023    1.4989    3.5778 H   0  0  0  0  0  0  0  0  0  0  0  0
    0.2757    0.1817    3.7683 H   0  0  0  0  0  0  0  0  0  0  0  0
  1  2  1  0  0  0  0
  2  3  1  0  0  0  0
  2  4  1  0  0  0  0
  2  5  1  0  0  0  0
  5  6  2  0  0  0  0
  5  7  1  0  0  0  0
  7  8  1  0  0  0  0
  7  9  1  0  0  0  0
  9 10  1  0  0  0  0
  9 11  1  0  0  0  0
  9 22  1  0  0  0  0
 11 12  1  0  0  0  0
 11 13  1  0  0  0  0
 11 14  1  0  0  0  0
 14 15  1  0  0  0  0
 14 20  2  0  0  0  0
 15 16  1  0  0  0  0
 15 17  1  0  0  0  0
 17 18  1  0  0  0  0
 17 19  2  0  0  0  0
 19 20  1  0  0  0  0
 20 21  1  0  0  0  0
 22 23  2  0  0  0  0
 22 24  1  0  0  0  0
 24 25  1  0  0  0  0
 24 26  1  0  0  0  0
 26 27  1  0  0  0  0
 26 28  1  0  0  0  0
 26 29  1  0  0  0  0
M  END
$$$$

  -OEChem-03222214043D

 29 29  0     1  0  0  0  0  0999 V2000
   -3.0211   -4.1232    0.6202 H   0  0  0  0  0  0  0  0  0  0  0  0
   -2.9718   -3.2045    0.0286 C   0  0  0  0  0  0  0  0  0  0  0  0
   -3.8250   -2.5729    0.2866 H   0  0  0  0  0  0  0  0  0  0  0  0
   -3.0272   -3.4671   -1.0307 H   0  0  0  0  0  0  0  0  0  0  0  0
   -1.6760   -2.4697    0.3159 C   0  0  0  0  0  0  0  0  0  0  0  0
   -0.9305   -2.8755    1.1890 O   0  0  0  0  0  0  0  0  0  0  0  0
   -1.3548   -1.3396   -0.4103 N   0  0  0  0  0  0  0  0  0  0  0  0
   -1.9471   -1.1529   -1.2134 H   0  0  0  0  0  0  0  0  0  0  0  0
   -0.0211   -0.7048   -0.3929 C   0  0  1  0  0  0  0  0  0  0  0  0
    0.7096   -1.4503   -0.7259 H   0  0  0  0  0  0  0  0  0  0  0  0
    0.0299    0.4855   -1.3659 C   0  0  0  0  0  0  0  0  0  0  0  0
   -0.7056    1.2357   -1.0570 H   0  0  0  0  0  0  0  0  0  0  0  0
    1.0171    0.9584   -1.3211 H   0  0  0  0  0  0  0  0  0  0  0  0
   -0.2547    0.0631   -2.7854 C   0  0  0  0  0  0  0  0  0  0  0  0
    0.6598   -0.0742   -3.8058 N   0  0  0  0  0  0  0  0  0  0  0  0
    1.6706    0.0266   -3.7277 H   0  0  0  0  0  0  0  0  0  0  0  0
   -0.0216   -0.3989   -4.9641 C   0  0  0  0  0  0  0  0  0  0  0  0
    0.4401   -0.5894   -5.9289 H   0  0  0  0  0  0  0  0  0  0  0  0
   -1.3115   -0.4448   -4.7288 N   0  0  0  0  0  0  0  0  0  0  0  0
   -1.4708   -0.1335   -3.3851 C   0  0  0  0  0  0  0  0  0  0  0  0
   -2.4299   -0.0512   -2.8830 H   0  0  0  0  0  0  0  0  0  0  0  0
    0.4457   -0.2175    0.9950 C   0  0  0  0  0  0  0  0  0  0  0  0
    1.6434   -0.1894    1.2479 O   0  0  0  0  0  0  0  0  0  0  0  0
   -0.4303    0.4740    1.8126 N   0  0  0  0  0  0  0  0  0  0  0  0
   -1.4172    0.3335    1.6207 H   0  0  0  0  0  0  0  0  0  0  0  0
   -0.0424    0.9952    3.1173 C   0  0  0  0  0  0  0  0  0  0  0  0
    0.7812    1.7099    3.0158 H   0  0  0  0  0  0  0  0  0  0  0  0
   -0.8873    1.5092    3.5855 H   0  0  0  0  0  0  0  0  0  0  0  0
    0.2775    0.1799    3.7747 H   0  0  0  0  0  0  0  0  0  0  0  0
  1  2  1  0  0  0  0
  2  3  1  0  0  0  0
  2  4  1  0  0  0  0
  2  5  1  0  0  0  0
  5  6  2  0  0  0  0
  5  7  1  0  0  0  0
  7  8  1  0  0  0  0
  7  9  1  0  0  0  0
  9 10  1  0  0  0  0
  9 11  1  0  0  0  0
  9 22  1  0  0  0  0
 11 12  1  0  0  0  0
 11 13  1  0  0  0  0
 11 14  1  0  0  0  0
 14 15  1  0  0  0  0
 14 20  2  0  0  0  0
 15 16  1  0  0  0  0
 15 17  1  0  0  0  0
 17 18  1  0  0  0  0
 17 19  2  0  0  0  0
 19 20  1  0  0  0  0
 20 21  1  0  0  0  0
 22 23  2  0  0  0  0
 22 24  1  0  0  0  0
 24 25  1  0  0  0  0
 24 26  1  0  0  0  0
 26 27  1  0  0  0  0
 26 28  1  0  0  0  0
 26 29  1  0  0  0  0
M  END
$$$$

  -OEChem-03222214043D

 29 29  0     1  0  0  0  0  0999 V2000
   -3.0283   -4.1101    0.5846 H   0  0  0  0  0  0  0  0  0  0  0  0
   -2.9741   -3.1879   -0.0010 C   0  0  0  0  0  0  0  0  0  0  0  0
   -3.8276   -2.5562    0.2557 H   0  0  0  0  0  0  0  0  0  0  0  0
   -3.0242   -3.4433   -1.0622 H   0  0  0  0  0  0  0  0  0  0  0  0
   -1.6790   -2.4567    0.2977 C   0  0  0  0  0  0  0  0  0  0  0  0
   -0.9371   -2.8703    1.1701 O   0  0  0  0  0  0  0  0  0  0  0  0
   -1.3531   -1.3225   -0.4193 N   0  0  0  0  0  0  0  0  0  0  0  0
   -1.9380   -1.1326   -1.2279 H   0  0  0  0  0  0  0  0  0  0  0  0
   -0.0182   -0.6914   -0.3945 C   0  0  1  0  0  0  0  0  0  0  0  0
    0.7129   -1.4330   -0.7351 H   0  0  0  0  0  0  0  0  0  0  0  0
    0.0168    0.5038   -1.3597 C   0  0  0  0  0  0  0  0  0  0  0  0
   -0.7211    1.2483   -1.0425 H   0  0  0  0  0  0  0  0  0  0  0  0
    1.0016    0.9830   -1.3259 H   0  0  0  0  0  0  0  0  0  0  0  0
   -0.2775    0.0680   -2.7719 C   0  0  0  0  0  0  0  0  0  0  0  0
    0.6306   -0.3441   -3.7214 N   0  0  0  0  0  0  0  0  0  0  0  0
    1.6345   -0.4563   -3.5884 H   0  0  0  0  0  0  0  0  0  0  0  0
   -0.0519   -0.5945   -4.8973 C   0  0  0  0  0  0  0  0  0  0  0  0
    0.4002   -0.9482   -5.8197 H   0  0  0  0  0  0  0  0  0  0  0  0
   -1.3300   -0.3436   -4.7377 N   0  0  0  0  0  0  0  0  0  0  0  0
   -1.4794    0.0946   -3.4284 C   0  0  0  0  0  0  0  0  0  0  0  0
   -2.4198    0.4126   -2.9882 H   0  0  0  0  0  0  0  0  0  0  0  0
    0.4510   -0.2135    0.9958 C   0  0  0  0  0  0  0  0  0  0  0  0
    1.6486   -0.1970    1.2502 O   0  0  0  0  0  0  0  0  0  0  0  0
   -0.4219    0.4762    1.8183 N   0  0  0  0  0  0  0  0  0  0  0  0
   -1.4094    0.3445    1.6233 H   0  0  0  0  0  0  0  0  0  0  0  0
   -0.0332    0.9848    3.1277 C   0  0  0  0  0  0  0  0  0  0  0  0
    0.7954    1.6944    3.0335 H   0  0  0  0  0  0  0  0  0  0  0  0
   -0.8755    1.5010    3.5979 H   0  0  0  0  0  0  0  0  0  0  0  0
    0.2796    0.1623    3.7796 H   0  0  0  0  0  0  0  0  0  0  0  0
  1  2  1  0  0  0  0
  2  3  1  0  0  0  0
  2  4  1  0  0  0  0
  2  5  1  0  0  0  0
  5  6  2  0  0  0  0
  5  7  1  0  0  0  0
  7  8  1  0  0  0  0
  7  9  1  0  0  0  0
  9 10  1  0  0  0  0
  9 11  1  0  0  0  0
  9 22  1  0  0  0  0
 11 12  1  0  0  0  0
 11 13  1  0  0  0  0
 11 14  1  0  0  0  0
 14 15  1  0  0  0  0
 14 20  2  0  0  0  0
 15 16  1  0  0  0  0
 15 17  1  0  0  0  0
 17 18  1  0  0  0  0
 17 19  2  0  0  0  0
 19 20  1  0  0  0  0
 20 21  1  0  0  0  0
 22 23  2  0  0  0  0
 22 24  1  0  0  0  0
 24 25  1  0  0  0  0
 24 26  1  0  0  0  0
 26 27  1  0  0  0  0
 26 28  1  0  0  0  0
 26 29  1  0  0  0  0
M  END
$$$$

  -OEChem-03222214043D

 29 29  0     1  0  0  0  0  0999 V2000
   -3.0482   -4.0894    0.5642 H   0  0  0  0  0  0  0  0  0  0  0  0
   -2.9801   -3.1724   -0.0277 C   0  0  0  0  0  0  0  0  0  0  0  0
   -3.8329   -2.5330    0.2128 H   0  0  0  0  0  0  0  0  0  0  0  0
   -3.0175   -3.4358   -1.0876 H   0  0  0  0  0  0  0  0  0  0  0  0
   -1.6844   -2.4470    0.2817 C   0  0  0  0  0  0  0  0  0  0  0  0
   -0.9438   -2.8711    1.1503 O   0  0  0  0  0  0  0  0  0  0  0  0
   -1.3536   -1.3093   -0.4267 N   0  0  0  0  0  0  0  0  0  0  0  0
   -1.9340   -1.1140   -1.2380 H   0  0  0  0  0  0  0  0  0  0  0  0
   -0.0179   -0.6813   -0.3956 C   0  0  1  0  0  0  0  0  0  0  0  0
    0.7133   -1.4199   -0.7416 H   0  0  0  0  0  0  0  0  0  0  0  0
    0.0054    0.5188   -1.3537 C   0  0  0  0  0  0  0  0  0  0  0  0
   -0.7301    1.2625   -1.0290 H   0  0  0  0  0  0  0  0  0  0  0  0
    0.9912    0.9963   -1.3269 H   0  0  0  0  0  0  0  0  0  0  0  0
   -0.2953    0.0808   -2.7636 C   0  0  0  0  0  0  0  0  0  0  0  0
    0.5440   -0.5877   -3.6265 N   0  0  0  0  0  0  0  0  0  0  0  0
    1.4940   -0.8970   -3.4270 H   0  0  0  0  0  0  0  0  0  0  0  0
   -0.1196   -0.7695   -4.8255 C   0  0  0  0  0  0  0  0  0  0  0  0
    0.2879   -1.2767   -5.6956 H   0  0  0  0  0  0  0  0  0  0  0  0
   -1.3194   -0.2425   -4.7590 N   0  0  0  0  0  0  0  0  0  0  0  0
   -1.4334    0.3107   -3.4898 C   0  0  0  0  0  0  0  0  0  0  0  0
   -2.3065    0.8425   -3.1237 H   0  0  0  0  0  0  0  0  0  0  0  0
    0.4532   -0.2121    0.9969 C   0  0  0  0  0  0  0  0  0  0  0  0
    1.6507   -0.2053    1.2511 O   0  0  0  0  0  0  0  0  0  0  0  0
   -0.4155    0.4757    1.8256 N   0  0  0  0  0  0  0  0  0  0  0  0
   -1.4043    0.3512    1.6320 H   0  0  0  0  0  0  0  0  0  0  0  0
   -0.0199    0.9790    3.1351 C   0  0  0  0  0  0  0  0  0  0  0  0
    0.8110    1.6861    3.0399 H   0  0  0  0  0  0  0  0  0  0  0  0
   -0.8582    1.4968    3.6107 H   0  0  0  0  0  0  0  0  0  0  0  0
    0.2927    0.1535    3.7833 H   0  0  0  0  0  0  0  0  0  0  0  0
  1  2  1  0  0  0  0
  2  3  1  0  0  0  0
  2  4  1  0  0  0  0
  2  5  1  0  0  0  0
  5  6  2  0  0  0  0
  5  7  1  0  0  0  0
  7  8  1  0  0  0  0
  7  9  1  0  0  0  0
  9 10  1  0  0  0  0
  9 11  1  0  0  0  0
  9 22  1  0  0  0  0
 11 12  1  0  0  0  0
 11 13  1  0  0  0  0
 11 14  1  0  0  0  0
 14 15  1  0  0  0  0
 14 20  2  0  0  0  0
 15 16  1  0  0  0  0
 15 17  1  0  0  0  0
 17 18  1  0  0  0  0
 17 19  2  0  0  0  0
 19 20  1  0  0  0  0
 20 21  1  0  0  0  0
 22 23  2  0  0  0  0
 22 24  1  0  0  0  0
 24 25  1  0  0  0  0
 24 26  1  0  0  0  0
 26 27  1  0  0  0  0
 26 28  1  0  0  0  0
 26 29  1  0  0  0  0
M  END
$$$$

  -OEChem-03222214043D

 29 29  0     1  0  0  0  0  0999 V2000
   -3.0552   -4.0732    0.5602 H   0  0  0  0  0  0  0  0  0  0  0  0
   -2.9907   -3.1481   -0.0198 C   0  0  0  0  0  0  0  0  0  0  0  0
   -3.8284   -2.5019    0.2527 H   0  0  0  0  0  0  0  0  0  0  0  0
   -3.0591   -3.3946   -1.0822 H   0  0  0  0  0  0  0  0  0  0  0  0
   -1.6782   -2.4439    0.2676 C   0  0  0  0  0  0  0  0  0  0  0  0
   -0.9250   -2.8867    1.1158 O   0  0  0  0  0  0  0  0  0  0  0  0
   -1.3453   -1.3032   -0.4350 N   0  0  0  0  0  0  0  0  0  0  0  0
   -1.9363   -1.0866   -1.2336 H   0  0  0  0  0  0  0  0  0  0  0  0
   -0.0105   -0.6735   -0.4005 C   0  0  1  0  0  0  0  0  0  0  0  0
    0.7236   -1.4086   -0.7470 H   0  0  0  0  0  0  0  0  0  0  0  0
    0.0028    0.5281   -1.3568 C   0  0  0  0  0  0  0  0  0  0  0  0
   -0.7292    1.2735   -1.0286 H   0  0  0  0  0  0  0  0  0  0  0  0
    0.9899    1.0030   -1.3334 H   0  0  0  0  0  0  0  0  0  0  0  0
   -0.2990    0.0933   -2.7685 C   0  0  0  0  0  0  0  0  0  0  0  0
    0.4101   -0.8006   -3.5407 N   0  0  0  0  0  0  0  0  0  0  0  0
    1.2611   -1.2910   -3.2697 H   0  0  0  0  0  0  0  0  0  0  0  0
   -0.2164   -0.9087   -4.7680 C   0  0  0  0  0  0  0  0  0  0  0  0
    0.1148   -1.5424   -5.5859 H   0  0  0  0  0  0  0  0  0  0  0  0
   -1.2758   -0.1353   -4.8008 N   0  0  0  0  0  0  0  0  0  0  0  0
   -1.3297    0.5076   -3.5699 C   0  0  0  0  0  0  0  0  0  0  0  0
   -2.0898    1.2276   -3.2814 H   0  0  0  0  0  0  0  0  0  0  0  0
    0.4571   -0.2095    0.9950 C   0  0  0  0  0  0  0  0  0  0  0  0
    1.6535   -0.2067    1.2545 O   0  0  0  0  0  0  0  0  0  0  0  0
   -0.4146    0.4732    1.8246 N   0  0  0  0  0  0  0  0  0  0  0  0
   -1.4023    0.3554    1.6221 H   0  0  0  0  0  0  0  0  0  0  0  0
   -0.0273    0.9621    3.1421 C   0  0  0  0  0  0  0  0  0  0  0  0
    0.8053    1.6685    3.0599 H   0  0  0  0  0  0  0  0  0  0  0  0
   -0.8684    1.4764    3.6167 H   0  0  0  0  0  0  0  0  0  0  0  0
    0.2789    0.1295    3.7842 H   0  0  0  0  0  0  0  0  0  0  0  0
  1  2  1  0  0  0  0
  2  3  1  0  0  0  0
  2  4  1  0  0  0  0
  2  5  1  0  0  0  0
  5  6  2  0  0  0  0
  5  7  1  0  0  0  0
  7  8  1  0  0  0  0
  7  9  1  0  0  0  0
  9 10  1  0  0  0  0
  9 11  1  0  0  0  0
  9 22  1  0  0  0  0
 11 12  1  0  0  0  0
 11 13  1  0  0  0  0
 11 14  1  0  0  0  0
 14 15  1  0  0  0  0
 14 20  2  0  0  0  0
 15 16  1  0  0  0  0
 15 17  1  0  0  0  0
 17 18  1  0  0  0  0
 17 19  2  0  0  0  0
 19 20  1  0  0  0  0
 20 21  1  0  0  0  0
 22 23  2  0  0  0  0
 22 24  1  0  0  0  0
 24 25  1  0  0  0  0
 24 26  1  0  0  0  0
 26 27  1  0  0  0  0
 26 28  1  0  0  0  0
 26 29  1  0  0  0  0
M  END
$$$$

  -OEChem-03222214043D

 29 29  0     1  0  0  0  0  0999 V2000
   -3.0687   -4.0642    0.5571 H   0  0  0  0  0  0  0  0  0  0  0  0
   -2.9981   -3.1383   -0.0209 C   0  0  0  0  0  0  0  0  0  0  0  0
   -3.8296   -2.4860    0.2563 H   0  0  0  0  0  0  0  0  0  0  0  0
   -3.0726   -3.3817   -1.0836 H   0  0  0  0  0  0  0  0  0  0  0  0
   -1.6785   -2.4457    0.2627 C   0  0  0  0  0  0  0  0  0  0  0  0
   -0.9197   -2.9024    1.0982 O   0  0  0  0  0  0  0  0  0  0  0  0
   -1.3403   -1.3049   -0.4367 N   0  0  0  0  0  0  0  0  0  0  0  0
   -1.9411   -1.0674   -1.2222 H   0  0  0  0  0  0  0  0  0  0  0  0
   -0.0062   -0.6748   -0.3981 C   0  0  1  0  0  0  0  0  0  0  0  0
    0.7306   -1.4082   -0.7418 H   0  0  0  0  0  0  0  0  0  0  0  0
    0.0025    0.5263   -1.3553 C   0  0  0  0  0  0  0  0  0  0  0  0
   -0.7248    1.2756   -1.0254 H   0  0  0  0  0  0  0  0  0  0  0  0
    0.9926    0.9948   -1.3317 H   0  0  0  0  0  0  0  0  0  0  0  0
   -0.2969    0.1004   -2.7716 C   0  0  0  0  0  0  0  0  0  0  0  0
    0.2230   -0.9749   -3.4601 N   0  0  0  0  0  0  0  0  0  0  0  0
    0.9286   -1.6263   -3.1196 H   0  0  0  0  0  0  0  0  0  0  0  0
   -0.3475   -1.0044   -4.7187 C   0  0  0  0  0  0  0  0  0  0  0  0
   -0.1269   -1.7381   -5.4889 H   0  0  0  0  0  0  0  0  0  0  0  0
   -1.2017   -0.0175   -4.8473 N   0  0  0  0  0  0  0  0  0  0  0  0
   -1.1721    0.6853   -3.6482 C   0  0  0  0  0  0  0  0  0  0  0  0
   -1.7699    1.5662   -3.4336 H   0  0  0  0  0  0  0  0  0  0  0  0
    0.4574   -0.2108    0.9985 C   0  0  0  0  0  0  0  0  0  0  0  0
    1.6526   -0.2121    1.2625 O   0  0  0  0  0  0  0  0  0  0  0  0
   -0.4157    0.4716    1.8268 N   0  0  0  0  0  0  0  0  0  0  0  0
   -1.4034    0.3596    1.6207 H   0  0  0  0  0  0  0  0  0  0  0  0
   -0.0292    0.9637    3.1433 C   0  0  0  0  0  0  0  0  0  0  0  0
    0.8050    1.6684    3.0604 H   0  0  0  0  0  0  0  0  0  0  0  0
   -0.8698    1.4807    3.6157 H   0  0  0  0  0  0  0  0  0  0  0  0
    0.2753    0.1323    3.7878 H   0  0  0  0  0  0  0  0  0  0  0  0
  1  2  1  0  0  0  0
  2  3  1  0  0  0  0
  2  4  1  0  0  0  0
  2  5  1  0  0  0  0
  5  6  2  0  0  0  0
  5  7  1  0  0  0  0
  7  8  1  0  0  0  0
  7  9  1  0  0  0  0
  9 10  1  0  0  0  0
  9 11  1  0  0  0  0
  9 22  1  0  0  0  0
 11 12  1  0  0  0  0
 11 13  1  0  0  0  0
 11 14  1  0  0  0  0
 14 15  1  0  0  0  0
 14 20  2  0  0  0  0
 15 16  1  0  0  0  0
 15 17  1  0  0  0  0
 17 18  1  0  0  0  0
 17 19  2  0  0  0  0
 19 20  1  0  0  0  0
 20 21  1  0  0  0  0
 22 23  2  0  0  0  0
 22 24  1  0  0  0  0
 24 25  1  0  0  0  0
 24 26  1  0  0  0  0
 26 27  1  0  0  0  0
 26 28  1  0  0  0  0
 26 29  1  0  0  0  0
M  END
$$$$

  -OEChem-03222214043D

 29 29  0     1  0  0  0  0  0999 V2000
   -3.0815   -4.0431    0.5943 H   0  0  0  0  0  0  0  0  0  0  0  0
   -3.0069   -3.1189    0.0143 C   0  0  0  0  0  0  0  0  0  0  0  0
   -3.8147   -2.4479    0.3158 H   0  0  0  0  0  0  0  0  0  0  0  0
   -3.1182   -3.3598   -1.0458 H   0  0  0  0  0  0  0  0  0  0  0  0
   -1.6645   -2.4566    0.2595 C   0  0  0  0  0  0  0  0  0  0  0  0
   -0.8880   -2.9357    1.0654 O   0  0  0  0  0  0  0  0  0  0  0  0
   -1.3254   -1.3165   -0.4401 N   0  0  0  0  0  0  0  0  0  0  0  0
   -1.9488   -1.0465   -1.1971 H   0  0  0  0  0  0  0  0  0  0  0  0
    0.0059   -0.6805   -0.4014 C   0  0  1  0  0  0  0  0  0  0  0  0
    0.7494   -1.4089   -0.7416 H   0  0  0  0  0  0  0  0  0  0  0  0
    0.0077    0.5193   -1.3613 C   0  0  0  0  0  0  0  0  0  0  0  0
   -0.7191    1.2690   -1.0310 H   0  0  0  0  0  0  0  0  0  0  0  0
    0.9982    0.9874   -1.3358 H   0  0  0  0  0  0  0  0  0  0  0  0
   -0.2886    0.1032   -2.7829 C   0  0  0  0  0  0  0  0  0  0  0  0
   -0.0013   -1.0960   -3.4012 N   0  0  0  0  0  0  0  0  0  0  0  0
    0.5210   -1.8725   -2.9983 H   0  0  0  0  0  0  0  0  0  0  0  0
   -0.4947   -1.0530   -4.6914 C   0  0  0  0  0  0  0  0  0  0  0  0
   -0.4081   -1.8524   -5.4220 H   0  0  0  0  0  0  0  0  0  0  0  0
   -1.0902    0.0955   -4.9049 N   0  0  0  0  0  0  0  0  0  0  0  0
   -0.9637    0.8278   -3.7297 C   0  0  0  0  0  0  0  0  0  0  0  0
   -1.3582    1.8286   -3.5805 H   0  0  0  0  0  0  0  0  0  0  0  0
    0.4592   -0.2138    0.9977 C   0  0  0  0  0  0  0  0  0  0  0  0
    1.6514   -0.2159    1.2745 O   0  0  0  0  0  0  0  0  0  0  0  0
   -0.4233    0.4644    1.8198 N   0  0  0  0  0  0  0  0  0  0  0  0
   -1.4085    0.3590    1.6001 H   0  0  0  0  0  0  0  0  0  0  0  0
   -0.0512    0.9558    3.1408 C   0  0  0  0  0  0  0  0  0  0  0  0
    0.7788    1.6663    3.0665 H   0  0  0  0  0  0  0  0  0  0  0  0
   -0.8995    1.4661    3.6070 H   0  0  0  0  0  0  0  0  0  0  0  0
    0.2530    0.1249    3.7861 H   0  0  0  0  0  0  0  0  0  0  0  0
  1  2  1  0  0  0  0
  2  3  1  0  0  0  0
  2  4  1  0  0  0  0
  2  5  1  0  0  0  0
  5  6  2  0  0  0  0
  5  7  1  0  0  0  0
  7  8  1  0  0  0  0
  7  9  1  0  0  0  0
  9 10  1  0  0  0  0
  9 11  1  0  0  0  0
  9 22  1  0  0  0  0
 11 12  1  0  0  0  0
 11 13  1  0  0  0  0
 11 14  1  0  0  0  0
 14 15  1  0  0  0  0
 14 20  2  0  0  0  0
 15 16  1  0  0  0  0
 15 17  1  0  0  0  0
 17 18  1  0  0  0  0
 17 19  2  0  0  0  0
 19 20  1  0  0  0  0
 20 21  1  0  0  0  0
 22 23  2  0  0  0  0
 22 24  1  0  0  0  0
 24 25  1  0  0  0  0
 24 26  1  0  0  0  0
 26 27  1  0  0  0  0
 26 28  1  0  0  0  0
 26 29  1  0  0  0  0
M  END
$$$$

  -OEChem-03222214043D

 29 29  0     1  0  0  0  0  0999 V2000
   -3.0926   -4.0324    0.6416 H   0  0  0  0  0  0  0  0  0  0  0  0
   -3.0172   -3.1117    0.0559 C   0  0  0  0  0  0  0  0  0  0  0  0
   -3.8042   -2.4253    0.3769 H   0  0  0  0  0  0  0  0  0  0  0  0
   -3.1624   -3.3543   -0.9996 H   0  0  0  0  0  0  0  0  0  0  0  0
   -1.6565   -2.4735    0.2615 C   0  0  0  0  0  0  0  0  0  0  0  0
   -0.8594   -2.9749    1.0326 O   0  0  0  0  0  0  0  0  0  0  0  0
   -1.3208   -1.3328   -0.4390 N   0  0  0  0  0  0  0  0  0  0  0  0
   -1.9732   -1.0247   -1.1561 H   0  0  0  0  0  0  0  0  0  0  0  0
    0.0069   -0.6882   -0.4037 C   0  0  1  0  0  0  0  0  0  0  0  0
    0.7551   -1.4122   -0.7438 H   0  0  0  0  0  0  0  0  0  0  0  0
    0.0036    0.5095   -1.3669 C   0  0  0  0  0  0  0  0  0  0  0  0
   -0.7282    1.2546   -1.0378 H   0  0  0  0  0  0  0  0  0  0  0  0
    0.9912    0.9837   -1.3377 H   0  0  0  0  0  0  0  0  0  0  0  0
   -0.2879    0.1030   -2.7931 C   0  0  0  0  0  0  0  0  0  0  0  0
   -0.2612   -1.1565   -3.3566 N   0  0  0  0  0  0  0  0  0  0  0  0
    0.0435   -2.0142   -2.8988 H   0  0  0  0  0  0  0  0  0  0  0  0
   -0.6424   -1.0530   -4.6810 C   0  0  0  0  0  0  0  0  0  0  0  0
   -0.7011   -1.8807   -5.3821 H   0  0  0  0  0  0  0  0  0  0  0  0
   -0.9284    0.1936   -4.9683 N   0  0  0  0  0  0  0  0  0  0  0  0
   -0.7076    0.9245   -3.8062 C   0  0  0  0  0  0  0  0  0  0  0  0
   -0.8594    1.9957   -3.7125 H   0  0  0  0  0  0  0  0  0  0  0  0
    0.4564   -0.2167    0.9951 C   0  0  0  0  0  0  0  0  0  0  0  0
    1.6476   -0.2127    1.2750 O   0  0  0  0  0  0  0  0  0  0  0  0
   -0.4309    0.4567    1.8160 N   0  0  0  0  0  0  0  0  0  0  0  0
   -1.4154    0.3557    1.5912 H   0  0  0  0  0  0  0  0  0  0  0  0
   -0.0627    0.9555    3.1353 C   0  0  0  0  0  0  0  0  0  0  0  0
    0.7612    1.6730    3.0583 H   0  0  0  0  0  0  0  0  0  0  0  0
   -0.9149    1.4600    3.6006 H   0  0  0  0  0  0  0  0  0  0  0  0
    0.2488    0.1292    3.7829 H   0  0  0  0  0  0  0  0  0  0  0  0
  1  2  1  0  0  0  0
  2  3  1  0  0  0  0
  2  4  1  0  0  0  0
  2  5  1  0  0  0  0
  5  6  2  0  0  0  0
  5  7  1  0  0  0  0
  7  8  1  0  0  0  0
  7  9  1  0  0  0  0
  9 10  1  0  0  0  0
  9 11  1  0  0  0  0
  9 22  1  0  0  0  0
 11 12  1  0  0  0  0
 11 13  1  0  0  0  0
 11 14  1  0  0  0  0
 14 15  1  0  0  0  0
 14 20  2  0  0  0  0
 15 16  1  0  0  0  0
 15 17  1  0  0  0  0
 17 18  1  0  0  0  0
 17 19  2  0  0  0  0
 19 20  1  0  0  0  0
 20 21  1  0  0  0  0
 22 23  2  0  0  0  0
 22 24  1  0  0  0  0
 24 25  1  0  0  0  0
 24 26  1  0  0  0  0
 26 27  1  0  0  0  0
 26 28  1  0  0  0  0
 26 29  1  0  0  0  0
M  END
$$$$

  -OEChem-03222214043D

 29 29  0     1  0  0  0  0  0999 V2000
   -3.0943   -4.0242    0.7110 H   0  0  0  0  0  0  0  0  0  0  0  0
   -3.0265   -3.1059    0.1203 C   0  0  0  0  0  0  0  0  0  0  0  0
   -3.7837   -2.4029    0.4756 H   0  0  0  0  0  0  0  0  0  0  0  0
   -3.2248   -3.3466   -0.9270 H   0  0  0  0  0  0  0  0  0  0  0  0
   -1.6445   -2.4965    0.2627 C   0  0  0  0  0  0  0  0  0  0  0  0
   -0.8187   -3.0218    0.9857 O   0  0  0  0  0  0  0  0  0  0  0  0
   -1.3228   -1.3519   -0.4384 N   0  0  0  0  0  0  0  0  0  0  0  0
   -2.0202   -0.9892   -1.0837 H   0  0  0  0  0  0  0  0  0  0  0  0
   -0.0011   -0.6932   -0.4120 C   0  0  1  0  0  0  0  0  0  0  0  0
    0.7513   -1.4113   -0.7565 H   0  0  0  0  0  0  0  0  0  0  0  0
   -0.0110    0.5037   -1.3776 C   0  0  0  0  0  0  0  0  0  0  0  0
   -0.7542    1.2369   -1.0473 H   0  0  0  0  0  0  0  0  0  0  0  0
    0.9691    0.9925   -1.3428 H   0  0  0  0  0  0  0  0  0  0  0  0
   -0.2990    0.1094   -2.8089 C   0  0  0  0  0  0  0  0  0  0  0  0
   -0.5425   -1.1416   -3.3386 N   0  0  0  0  0  0  0  0  0  0  0  0
   -0.4756   -2.0271   -2.8394 H   0  0  0  0  0  0  0  0  0  0  0  0
   -0.7760   -1.0078   -4.6941 C   0  0  0  0  0  0  0  0  0  0  0  0
   -0.9798   -1.8266   -5.3786 H   0  0  0  0  0  0  0  0  0  0  0  0
   -0.7166    0.2560   -5.0357 N   0  0  0  0  0  0  0  0  0  0  0  0
   -0.4143    0.9616   -3.8761 C   0  0  0  0  0  0  0  0  0  0  0  0
   -0.2944    2.0396   -3.8235 H   0  0  0  0  0  0  0  0  0  0  0  0
    0.4494   -0.2196    0.9858 C   0  0  0  0  0  0  0  0  0  0  0  0
    1.6409   -0.2043    1.2633 O   0  0  0  0  0  0  0  0  0  0  0  0
   -0.4420    0.4426    1.8117 N   0  0  0  0  0  0  0  0  0  0  0  0
   -1.4261    0.3387    1.5879 H   0  0  0  0  0  0  0  0  0  0  0  0
   -0.0730    0.9486    3.1281 C   0  0  0  0  0  0  0  0  0  0  0  0
    0.7422    1.6751    3.0458 H   0  0  0  0  0  0  0  0  0  0  0  0
   -0.9286    1.4443    3.5963 H   0  0  0  0  0  0  0  0  0  0  0  0
    0.2512    0.1274    3.7759 H   0  0  0  0  0  0  0  0  0  0  0  0
  1  2  1  0  0  0  0
  2  3  1  0  0  0  0
  2  4  1  0  0  0  0
  2  5  1  0  0  0  0
  5  6  2  0  0  0  0
  5  7  1  0  0  0  0
  7  8  1  0  0  0  0
  7  9  1  0  0  0  0
  9 10  1  0  0  0  0
  9 11  1  0  0  0  0
  9 22  1  0  0  0  0
 11 12  1  0  0  0  0
 11 13  1  0  0  0  0
 11 14  1  0  0  0  0
 14 15  1  0  0  0  0
 14 20  2  0  0  0  0
 15 16  1  0  0  0  0
 15 17  1  0  0  0  0
 17 18  1  0  0  0  0
 17 19  2  0  0  0  0
 19 20  1  0  0  0  0
 20 21  1  0  0  0  0
 22 23  2  0  0  0  0
 22 24  1  0  0  0  0
 24 25  1  0  0  0  0
 24 26  1  0  0  0  0
 26 27  1  0  0  0  0
 26 28  1  0  0  0  0
 26 29  1  0  0  0  0
M  END
$$$$

  -OEChem-03222214043D

 29 29  0     1  0  0  0  0  0999 V2000
   -3.0852   -4.0144    0.7905 H   0  0  0  0  0  0  0  0  0  0  0  0
   -3.0317   -3.1009    0.1911 C   0  0  0  0  0  0  0  0  0  0  0  0
   -3.7554   -2.3819    0.5825 H   0  0  0  0  0  0  0  0  0  0  0  0
   -3.2902   -3.3437   -0.8423 H   0  0  0  0  0  0  0  0  0  0  0  0
   -1.6327   -2.5177    0.2549 C   0  0  0  0  0  0  0  0  0  0  0  0
   -0.7738   -3.0685    0.9173 O   0  0  0  0  0  0  0  0  0  0  0  0
   -1.3346   -1.3656   -0.4449 N   0  0  0  0  0  0  0  0  0  0  0  0
   -2.0808   -0.9409   -0.9891 H   0  0  0  0  0  0  0  0  0  0  0  0
   -0.0194   -0.6914   -0.4269 C   0  0  1  0  0  0  0  0  0  0  0  0
    0.7354   -1.4038   -0.7788 H   0  0  0  0  0  0  0  0  0  0  0  0
   -0.0301    0.5076   -1.3910 C   0  0  0  0  0  0  0  0  0  0  0  0
   -0.7867    1.2266   -1.0607 H   0  0  0  0  0  0  0  0  0  0  0  0
    0.9420    1.0120   -1.3455 H   0  0  0  0  0  0  0  0  0  0  0  0
   -0.3115    0.1266   -2.8278 C   0  0  0  0  0  0  0  0  0  0  0  0
   -0.8182   -1.0475   -3.3461 N   0  0  0  0  0  0  0  0  0  0  0  0
   -0.9865   -1.9060   -2.8251 H   0  0  0  0  0  0  0  0  0  0  0  0
   -0.8949   -0.9255   -4.7207 C   0  0  0  0  0  0  0  0  0  0  0  0
   -1.2385   -1.7009   -5.3997 H   0  0  0  0  0  0  0  0  0  0  0  0
   -0.4879    0.2644   -5.0885 N   0  0  0  0  0  0  0  0  0  0  0  0
   -0.1129    0.9256   -3.9240 C   0  0  0  0  0  0  0  0  0  0  0  0
    0.2803    1.9374   -3.8895 H   0  0  0  0  0  0  0  0  0  0  0  0
    0.4362   -0.2205    0.9702 C   0  0  0  0  0  0  0  0  0  0  0  0
    1.6291   -0.1939    1.2397 O   0  0  0  0  0  0  0  0  0  0  0  0
   -0.4552    0.4268    1.8083 N   0  0  0  0  0  0  0  0  0  0  0  0
   -1.4403    0.3241    1.5894 H   0  0  0  0  0  0  0  0  0  0  0  0
   -0.0784    0.9334    3.1224 C   0  0  0  0  0  0  0  0  0  0  0  0
    0.7316    1.6652    3.0341 H   0  0  0  0  0  0  0  0  0  0  0  0
   -0.9331    1.4230    3.5988 H   0  0  0  0  0  0  0  0  0  0  0  0
    0.2570    0.1133    3.7662 H   0  0  0  0  0  0  0  0  0  0  0  0
  1  2  1  0  0  0  0
  2  3  1  0  0  0  0
  2  4  1  0  0  0  0
  2  5  1  0  0  0  0
  5  6  2  0  0  0  0
  5  7  1  0  0  0  0
  7  8  1  0  0  0  0
  7  9  1  0  0  0  0
  9 10  1  0  0  0  0
  9 11  1  0  0  0  0
  9 22  1  0  0  0  0
 11 12  1  0  0  0  0
 11 13  1  0  0  0  0
 11 14  1  0  0  0  0
 14 15  1  0  0  0  0
 14 20  2  0  0  0  0
 15 16  1  0  0  0  0
 15 17  1  0  0  0  0
 17 18  1  0  0  0  0
 17 19  2  0  0  0  0
 19 20  1  0  0  0  0
 20 21  1  0  0  0  0
 22 23  2  0  0  0  0
 22 24  1  0  0  0  0
 24 25  1  0  0  0  0
 24 26  1  0  0  0  0
 26 27  1  0  0  0  0
 26 28  1  0  0  0  0
 26 29  1  0  0  0  0
M  END
$$$$

  -OEChem-03222214043D

 29 29  0     1  0  0  0  0  0999 V2000
   -3.0716   -3.9989    0.8484 H   0  0  0  0  0  0  0  0  0  0  0  0
   -3.0310   -3.0909    0.2395 C   0  0  0  0  0  0  0  0  0  0  0  0
   -3.7282   -2.3592    0.6546 H   0  0  0  0  0  0  0  0  0  0  0  0
   -3.3354   -3.3389   -0.7802 H   0  0  0  0  0  0  0  0  0  0  0  0
   -1.6228   -2.5267    0.2408 C   0  0  0  0  0  0  0  0  0  0  0  0
   -0.7427   -3.0930    0.8609 O   0  0  0  0  0  0  0  0  0  0  0  0
   -1.3454   -1.3672   -0.4561 N   0  0  0  0  0  0  0  0  0  0  0  0
   -2.1243   -0.8956   -0.9066 H   0  0  0  0  0  0  0  0  0  0  0  0
   -0.0349   -0.6833   -0.4411 C   0  0  1  0  0  0  0  0  0  0  0  0
    0.7201   -1.3939   -0.7970 H   0  0  0  0  0  0  0  0  0  0  0  0
   -0.0405    0.5170   -1.4042 C   0  0  0  0  0  0  0  0  0  0  0  0
   -0.8014    1.2323   -1.0763 H   0  0  0  0  0  0  0  0  0  0  0  0
    0.9294    1.0247   -1.3479 H   0  0  0  0  0  0  0  0  0  0  0  0
   -0.3134    0.1435   -2.8450 C   0  0  0  0  0  0  0  0  0  0  0  0
   -1.0584   -0.8921   -3.3706 N   0  0  0  0  0  0  0  0  0  0  0  0
   -1.4510   -1.6701   -2.8461 H   0  0  0  0  0  0  0  0  0  0  0  0
   -1.0065   -0.8168   -4.7498 C   0  0  0  0  0  0  0  0  0  0  0  0
   -1.4820   -1.5143   -5.4333 H   0  0  0  0  0  0  0  0  0  0  0  0
   -0.2919    0.2176   -5.1168 N   0  0  0  0  0  0  0  0  0  0  0  0
    0.1520    0.8187   -3.9441 C   0  0  0  0  0  0  0  0  0  0  0  0
    0.7793    1.7044   -3.9059 H   0  0  0  0  0  0  0  0  0  0  0  0
    0.4259   -0.2182    0.9566 C   0  0  0  0  0  0  0  0  0  0  0  0
    1.6199   -0.1863    1.2204 O   0  0  0  0  0  0  0  0  0  0  0  0
   -0.4637    0.4173    1.8060 N   0  0  0  0  0  0  0  0  0  0  0  0
   -1.4497    0.3128    1.5935 H   0  0  0  0  0  0  0  0  0  0  0  0
   -0.0804    0.9123    3.1230 C   0  0  0  0  0  0  0  0  0  0  0  0
    0.7294    1.6448    3.0378 H   0  0  0  0  0  0  0  0  0  0  0  0
   -0.9324    1.3976    3.6083 H   0  0  0  0  0  0  0  0  0  0  0  0
    0.2575    0.0862    3.7576 H   0  0  0  0  0  0  0  0  0  0  0  0
  1  2  1  0  0  0  0
  2  3  1  0  0  0  0
  2  4  1  0  0  0  0
  2  5  1  0  0  0  0
  5  6  2  0  0  0  0
  5  7  1  0  0  0  0
  7  8  1  0  0  0  0
  7  9  1  0  0  0  0
  9 10  1  0  0  0  0
  9 11  1  0  0  0  0
  9 22  1  0  0  0  0
 11 12  1  0  0  0  0
 11 13  1  0  0  0  0
 11 14  1  0  0  0  0
 14 15  1  0  0  0  0
 14 20  2  0  0  0  0
 15 16  1  0  0  0  0
 15 17  1  0  0  0  0
 17 18  1  0  0  0  0
 17 19  2  0  0  0  0
 19 20  1  0  0  0  0
 20 21  1  0  0  0  0
 22 23  2  0  0  0  0
 22 24  1  0  0  0  0
 24 25  1  0  0  0  0
 24 26  1  0  0  0  0
 26 27  1  0  0  0  0
 26 28  1  0  0  0  0
 26 29  1  0  0  0  0
M  END
$$$$

  -OEChem-03222214043D

 29 29  0     1  0  0  0  0  0999 V2000
   -3.0634   -3.9940    0.8622 H   0  0  0  0  0  0  0  0  0  0  0  0
   -3.0285   -3.0880    0.2501 C   0  0  0  0  0  0  0  0  0  0  0  0
   -3.7176   -2.3531    0.6728 H   0  0  0  0  0  0  0  0  0  0  0  0
   -3.3473   -3.3388   -0.7642 H   0  0  0  0  0  0  0  0  0  0  0  0
   -1.6184   -2.5287    0.2282 C   0  0  0  0  0  0  0  0  0  0  0  0
   -0.7292   -3.1029    0.8281 O   0  0  0  0  0  0  0  0  0  0  0  0
   -1.3524   -1.3623   -0.4626 N   0  0  0  0  0  0  0  0  0  0  0  0
   -2.1456   -0.8654   -0.8544 H   0  0  0  0  0  0  0  0  0  0  0  0
   -0.0436   -0.6762   -0.4491 C   0  0  1  0  0  0  0  0  0  0  0  0
    0.7082   -1.3875   -0.8103 H   0  0  0  0  0  0  0  0  0  0  0  0
   -0.0405    0.5275   -1.4077 C   0  0  0  0  0  0  0  0  0  0  0  0
   -0.7987    1.2462   -1.0813 H   0  0  0  0  0  0  0  0  0  0  0  0
    0.9322    1.0291   -1.3444 H   0  0  0  0  0  0  0  0  0  0  0  0
   -0.3101    0.1588   -2.8504 C   0  0  0  0  0  0  0  0  0  0  0  0
   -1.2572   -0.6829   -3.3974 N   0  0  0  0  0  0  0  0  0  0  0  0
   -1.8769   -1.3035   -2.8850 H   0  0  0  0  0  0  0  0  0  0  0  0
   -1.1053   -0.6828   -4.7714 C   0  0  0  0  0  0  0  0  0  0  0  0
   -1.7004   -1.2685   -5.4662 H   0  0  0  0  0  0  0  0  0  0  0  0
   -0.1330    0.1231   -5.1172 N   0  0  0  0  0  0  0  0  0  0  0  0
    0.3741    0.6480   -3.9339 C   0  0  0  0  0  0  0  0  0  0  0  0
    1.1982    1.3531   -3.8778 H   0  0  0  0  0  0  0  0  0  0  0  0
    0.4232   -0.2219    0.9501 C   0  0  0  0  0  0  0  0  0  0  0  0
    1.6186   -0.1822    1.2060 O   0  0  0  0  0  0  0  0  0  0  0  0
   -0.4646    0.4046    1.8080 N   0  0  0  0  0  0  0  0  0  0  0  0
   -1.4513    0.2985    1.6003 H   0  0  0  0  0  0  0  0  0  0  0  0
   -0.0758    0.9010    3.1226 C   0  0  0  0  0  0  0  0  0  0  0  0
    0.7245    1.6433    3.0322 H   0  0  0  0  0  0  0  0  0  0  0  0
   -0.9294    1.3753    3.6159 H   0  0  0  0  0  0  0  0  0  0  0  0
    0.2772    0.0778    3.7526 H   0  0  0  0  0  0  0  0  0  0  0  0
  1  2  1  0  0  0  0
  2  3  1  0  0  0  0
  2  4  1  0  0  0  0
  2  5  1  0  0  0  0
  5  6  2  0  0  0  0
  5  7  1  0  0  0  0
  7  8  1  0  0  0  0
  7  9  1  0  0  0  0
  9 10  1  0  0  0  0
  9 11  1  0  0  0  0
  9 22  1  0  0  0  0
 11 12  1  0  0  0  0
 11 13  1  0  0  0  0
 11 14  1  0  0  0  0
 14 15  1  0  0  0  0
 14 20  2  0  0  0  0
 15 16  1  0  0  0  0
 15 17  1  0  0  0  0
 17 18  1  0  0  0  0
 17 19  2  0  0  0  0
 19 20  1  0  0  0  0
 20 21  1  0  0  0  0
 22 23  2  0  0  0  0
 22 24  1  0  0  0  0
 24 25  1  0  0  0  0
 24 26  1  0  0  0  0
 26 27  1  0  0  0  0
 26 28  1  0  0  0  0
 26 29  1  0  0  0  0
M  END
$$$$

  -OEChem-03222214043D

 29 29  0     1  0  0  0  0  0999 V2000
   -3.0639   -4.0330    0.7780 H   0  0  0  0  0  0  0  0  0  0  0  0
   -3.0216   -3.1214    0.1748 C   0  0  0  0  0  0  0  0  0  0  0  0
   -3.7669   -2.4168    0.5513 H   0  0  0  0  0  0  0  0  0  0  0  0
   -3.2577   -3.3757   -0.8611 H   0  0  0  0  0  0  0  0  0  0  0  0
   -1.6364   -2.5081    0.2568 C   0  0  0  0  0  0  0  0  0  0  0  0
   -0.7824   -3.0309    0.9481 O   0  0  0  0  0  0  0  0  0  0  0  0
   -1.3585   -1.3463   -0.4363 N   0  0  0  0  0  0  0  0  0  0  0  0
   -2.1078   -0.9379   -0.9808 H   0  0  0  0  0  0  0  0  0  0  0  0
   -0.0469   -0.6701   -0.4356 C   0  0  1  0  0  0  0  0  0  0  0  0
    0.6958   -1.3885   -0.8009 H   0  0  0  0  0  0  0  0  0  0  0  0
   -0.0374    0.5359   -1.3914 C   0  0  0  0  0  0  0  0  0  0  0  0
   -0.7781    1.2691   -1.0568 H   0  0  0  0  0  0  0  0  0  0  0  0
    0.9451    1.0191   -1.3349 H   0  0  0  0  0  0  0  0  0  0  0  0
   -0.3228    0.1725   -2.8329 C   0  0  0  0  0  0  0  0  0  0  0  0
   -1.4254   -0.4247   -3.4128 N   0  0  0  0  0  0  0  0  0  0  0  0
   -2.2700   -0.7338   -2.9434 H   0  0  0  0  0  0  0  0  0  0  0  0
   -1.2005   -0.5359   -4.7727 C   0  0  0  0  0  0  0  0  0  0  0  0
   -1.8938   -0.9694   -5.4878 H   0  0  0  0  0  0  0  0  0  0  0  0
   -0.0290   -0.0391   -5.0788 N   0  0  0  0  0  0  0  0  0  0  0  0
    0.5284    0.4021   -3.8843 C   0  0  0  0  0  0  0  0  0  0  0  0
    1.5059    0.8675   -3.7980 H   0  0  0  0  0  0  0  0  0  0  0  0
    0.4352   -0.2143    0.9583 C   0  0  0  0  0  0  0  0  0  0  0  0
    1.6340   -0.1721    1.1992 O   0  0  0  0  0  0  0  0  0  0  0  0
   -0.4421    0.4207    1.8203 N   0  0  0  0  0  0  0  0  0  0  0  0
   -1.4306    0.2985    1.6292 H   0  0  0  0  0  0  0  0  0  0  0  0
   -0.0393    0.9171    3.1306 C   0  0  0  0  0  0  0  0  0  0  0  0
    0.7523    1.6673    3.0301 H   0  0  0  0  0  0  0  0  0  0  0  0
   -0.8902    1.3816    3.6379 H   0  0  0  0  0  0  0  0  0  0  0  0
    0.3309    0.0956    3.7530 H   0  0  0  0  0  0  0  0  0  0  0  0
  1  2  1  0  0  0  0
  2  3  1  0  0  0  0
  2  4  1  0  0  0  0
  2  5  1  0  0  0  0
  5  6  2  0  0  0  0
  5  7  1  0  0  0  0
  7  8  1  0  0  0  0
  7  9  1  0  0  0  0
  9 10  1  0  0  0  0
  9 11  1  0  0  0  0
  9 22  1  0  0  0  0
 11 12  1  0  0  0  0
 11 13  1  0  0  0  0
 11 14  1  0  0  0  0
 14 15  1  0  0  0  0
 14 20  2  0  0  0  0
 15 16  1  0  0  0  0
 15 17  1  0  0  0  0
 17 18  1  0  0  0  0
 17 19  2  0  0  0  0
 19 20  1  0  0  0  0
 20 21  1  0  0  0  0
 22 23  2  0  0  0  0
 22 24  1  0  0  0  0
 24 25  1  0  0  0  0
 24 26  1  0  0  0  0
 26 27  1  0  0  0  0
 26 28  1  0  0  0  0
 26 29  1  0  0  0  0
M  END
$$$$

  -OEChem-03222214043D

 29 29  0     1  0  0  0  0  0999 V2000
   -3.0641   -4.0536    0.6353 H   0  0  0  0  0  0  0  0  0  0  0  0
   -2.9657   -3.1883   -0.0267 C   0  0  0  0  0  0  0  0  0  0  0  0
   -3.8370   -2.5433    0.1072 H   0  0  0  0  0  0  0  0  0  0  0  0
   -2.9336   -3.5400   -1.0606 H   0  0  0  0  0  0  0  0  0  0  0  0
   -1.6971   -2.4238    0.3010 C   0  0  0  0  0  0  0  0  0  0  0  0
   -0.9761   -2.8110    1.2019 O   0  0  0  0  0  0  0  0  0  0  0  0
   -1.3811   -1.2861   -0.4165 N   0  0  0  0  0  0  0  0  0  0  0  0
   -1.9277   -1.1471   -1.2587 H   0  0  0  0  0  0  0  0  0  0  0  0
   -0.0414   -0.6675   -0.4081 C   0  0  1  0  0  0  0  0  0  0  0  0
    0.6792   -1.4090   -0.7707 H   0  0  0  0  0  0  0  0  0  0  0  0
   -0.0037    0.5493   -1.3498 C   0  0  0  0  0  0  0  0  0  0  0  0
   -0.7065    1.3136   -1.0029 H   0  0  0  0  0  0  0  0  0  0  0  0
    0.9995    0.9896   -1.3127 H   0  0  0  0  0  0  0  0  0  0  0  0
   -0.3242    0.1862   -2.7803 C   0  0  0  0  0  0  0  0  0  0  0  0
   -1.5477   -0.1136   -3.3463 N   0  0  0  0  0  0  0  0  0  0  0  0
   -2.4598    0.0007   -2.9115 H   0  0  0  0  0  0  0  0  0  0  0  0
   -1.3487   -0.3843   -4.6882 C   0  0  0  0  0  0  0  0  0  0  0  0
   -2.1322   -0.6313   -5.3988 H   0  0  0  0  0  0  0  0  0  0  0  0
   -0.0768   -0.2887   -4.9847 N   0  0  0  0  0  0  0  0  0  0  0  0
    0.5740    0.0695   -3.8095 C   0  0  0  0  0  0  0  0  0  0  0  0
    1.6444    0.2315   -3.7208 H   0  0  0  0  0  0  0  0  0  0  0  0
    0.4491   -0.2069    0.9820 C   0  0  0  0  0  0  0  0  0  0  0  0
    1.6490   -0.2044    1.2244 O   0  0  0  0  0  0  0  0  0  0  0  0
   -0.4086    0.4817    1.8216 N   0  0  0  0  0  0  0  0  0  0  0  0
   -1.3986    0.3442    1.6452 H   0  0  0  0  0  0  0  0  0  0  0  0
    0.0014    0.9631    3.1346 C   0  0  0  0  0  0  0  0  0  0  0  0
    0.8355    1.6667    3.0424 H   0  0  0  0  0  0  0  0  0  0  0  0
   -0.8298    1.4786    3.6248 H   0  0  0  0  0  0  0  0  0  0  0  0
    0.3148    0.1263    3.7678 H   0  0  0  0  0  0  0  0  0  0  0  0
  1  2  1  0  0  0  0
  2  3  1  0  0  0  0
  2  4  1  0  0  0  0
  2  5  1  0  0  0  0
  5  6  2  0  0  0  0
  5  7  1  0  0  0  0
  7  8  1  0  0  0  0
  7  9  1  0  0  0  0
  9 10  1  0  0  0  0
  9 11  1  0  0  0  0
  9 22  1  0  0  0  0
 11 12  1  0  0  0  0
 11 13  1  0  0  0  0
 11 14  1  0  0  0  0
 14 15  1  0  0  0  0
 14 20  2  0  0  0  0
 15 16  1  0  0  0  0
 15 17  1  0  0  0  0
 17 18  1  0  0  0  0
 17 19  2  0  0  0  0
 19 20  1  0  0  0  0
 20 21  1  0  0  0  0
 22 23  2  0  0  0  0
 22 24  1  0  0  0  0
 24 25  1  0  0  0  0
 24 26  1  0  0  0  0
 26 27  1  0  0  0  0
 26 28  1  0  0  0  0
 26 29  1  0  0  0  0
M  END
$$$$

  -OEChem-03222214043D

 29 29  0     1  0  0  0  0  0999 V2000
   -3.0604   -4.0543    0.5428 H   0  0  0  0  0  0  0  0  0  0  0  0
   -2.9598   -3.1708   -0.0941 C   0  0  0  0  0  0  0  0  0  0  0  0
   -3.8378   -2.5356    0.0439 H   0  0  0  0  0  0  0  0  0  0  0  0
   -2.9102   -3.4948   -1.1364 H   0  0  0  0  0  0  0  0  0  0  0  0
   -1.7025   -2.4054    0.2717 C   0  0  0  0  0  0  0  0  0  0  0  0
   -1.0027   -2.7963    1.1877 O   0  0  0  0  0  0  0  0  0  0  0  0
   -1.3688   -1.2661   -0.4340 N   0  0  0  0  0  0  0  0  0  0  0  0
   -1.9013   -1.1193   -1.2857 H   0  0  0  0  0  0  0  0  0  0  0  0
   -0.0253   -0.6567   -0.4039 C   0  0  1  0  0  0  0  0  0  0  0  0
    0.6963   -1.3983   -0.7652 H   0  0  0  0  0  0  0  0  0  0  0  0
    0.0091    0.5620   -1.3400 C   0  0  0  0  0  0  0  0  0  0  0  0
   -0.6935    1.3277   -0.9963 H   0  0  0  0  0  0  0  0  0  0  0  0
    1.0129    1.0011   -1.3082 H   0  0  0  0  0  0  0  0  0  0  0  0
   -0.3083    0.1766   -2.7631 C   0  0  0  0  0  0  0  0  0  0  0  0
   -1.5442    0.1361   -3.3752 N   0  0  0  0  0  0  0  0  0  0  0  0
   -2.4251    0.4619   -2.9830 H   0  0  0  0  0  0  0  0  0  0  0  0
   -1.3628   -0.2576   -4.6888 C   0  0  0  0  0  0  0  0  0  0  0  0
   -2.1544   -0.3633   -5.4254 H   0  0  0  0  0  0  0  0  0  0  0  0
   -0.0930   -0.4797   -4.9215 N   0  0  0  0  0  0  0  0  0  0  0  0
    0.5790   -0.2059   -3.7350 C   0  0  0  0  0  0  0  0  0  0  0  0
    1.6536   -0.2863   -3.5985 H   0  0  0  0  0  0  0  0  0  0  0  0
    0.4566   -0.2050    0.9920 C   0  0  0  0  0  0  0  0  0  0  0  0
    1.6546   -0.2107    1.2429 O   0  0  0  0  0  0  0  0  0  0  0  0
   -0.4019    0.4871    1.8280 N   0  0  0  0  0  0  0  0  0  0  0  0
   -1.3917    0.3554    1.6459 H   0  0  0  0  0  0  0  0  0  0  0  0
    0.0031    0.9651    3.1443 C   0  0  0  0  0  0  0  0  0  0  0  0
    0.8416    1.6642    3.0580 H   0  0  0  0  0  0  0  0  0  0  0  0
   -0.8280    1.4845    3.6306 H   0  0  0  0  0  0  0  0  0  0  0  0
    0.3079    0.1259    3.7783 H   0  0  0  0  0  0  0  0  0  0  0  0
  1  2  1  0  0  0  0
  2  3  1  0  0  0  0
  2  4  1  0  0  0  0
  2  5  1  0  0  0  0
  5  6  2  0  0  0  0
  5  7  1  0  0  0  0
  7  8  1  0  0  0  0
  7  9  1  0  0  0  0
  9 10  1  0  0  0  0
  9 11  1  0  0  0  0
  9 22  1  0  0  0  0
 11 12  1  0  0  0  0
 11 13  1  0  0  0  0
 11 14  1  0  0  0  0
 14 15  1  0  0  0  0
 14 20  2  0  0  0  0
 15 16  1  0  0  0  0
 15 17  1  0  0  0  0
 17 18  1  0  0  0  0
 17 19  2  0  0  0  0
 19 20  1  0  0  0  0
 20 21  1  0  0  0  0
 22 23  2  0  0  0  0
 22 24  1  0  0  0  0
 24 25  1  0  0  0  0
 24 26  1  0  0  0  0
 26 27  1  0  0  0  0
 26 28  1  0  0  0  0
 26 29  1  0  0  0  0
M  END
$$$$

  -OEChem-03222214043D

 29 29  0     1  0  0  0  0  0999 V2000
   -3.0458   -4.0576    0.4910 H   0  0  0  0  0  0  0  0  0  0  0  0
   -2.9608   -3.1495   -0.1127 C   0  0  0  0  0  0  0  0  0  0  0  0
   -3.8319   -2.5180    0.0763 H   0  0  0  0  0  0  0  0  0  0  0  0
   -2.9438   -3.4319   -1.1682 H   0  0  0  0  0  0  0  0  0  0  0  0
   -1.6899   -2.4026    0.2462 C   0  0  0  0  0  0  0  0  0  0  0  0
   -0.9858   -2.8087    1.1526 O   0  0  0  0  0  0  0  0  0  0  0  0
   -1.3494   -1.2594   -0.4498 N   0  0  0  0  0  0  0  0  0  0  0  0
   -1.8900   -1.0897   -1.2932 H   0  0  0  0  0  0  0  0  0  0  0  0
   -0.0068   -0.6479   -0.4069 C   0  0  1  0  0  0  0  0  0  0  0  0
    0.7195   -1.3854   -0.7659 H   0  0  0  0  0  0  0  0  0  0  0  0
    0.0211    0.5738   -1.3385 C   0  0  0  0  0  0  0  0  0  0  0  0
   -0.6898    1.3317   -0.9942 H   0  0  0  0  0  0  0  0  0  0  0  0
    1.0205    1.0227   -1.3069 H   0  0  0  0  0  0  0  0  0  0  0  0
   -0.2909    0.1805   -2.7599 C   0  0  0  0  0  0  0  0  0  0  0  0
   -1.4639    0.3928   -3.4527 N   0  0  0  0  0  0  0  0  0  0  0  0
   -2.2690    0.9266   -3.1313 H   0  0  0  0  0  0  0  0  0  0  0  0
   -1.3164   -0.1310   -4.7241 C   0  0  0  0  0  0  0  0  0  0  0  0
   -2.0711   -0.1008   -5.5051 H   0  0  0  0  0  0  0  0  0  0  0  0
   -0.1292   -0.6704   -4.8533 N   0  0  0  0  0  0  0  0  0  0  0  0
    0.5266   -0.4763   -3.6421 C   0  0  0  0  0  0  0  0  0  0  0  0
    1.5386   -0.8055   -3.4247 H   0  0  0  0  0  0  0  0  0  0  0  0
    0.4636   -0.2025    0.9946 C   0  0  0  0  0  0  0  0  0  0  0  0
    1.6601   -0.2037    1.2532 O   0  0  0  0  0  0  0  0  0  0  0  0
   -0.4032    0.4839    1.8270 N   0  0  0  0  0  0  0  0  0  0  0  0
   -1.3913    0.3500    1.6370 H   0  0  0  0  0  0  0  0  0  0  0  0
   -0.0096    0.9570    3.1483 C   0  0  0  0  0  0  0  0  0  0  0  0
    0.8293    1.6567    3.0711 H   0  0  0  0  0  0  0  0  0  0  0  0
   -0.8449    1.4741    3.6297 H   0  0  0  0  0  0  0  0  0  0  0  0
    0.2906    0.1153    3.7814 H   0  0  0  0  0  0  0  0  0  0  0  0
  1  2  1  0  0  0  0
  2  3  1  0  0  0  0
  2  4  1  0  0  0  0
  2  5  1  0  0  0  0
  5  6  2  0  0  0  0
  5  7  1  0  0  0  0
  7  8  1  0  0  0  0
  7  9  1  0  0  0  0
  9 10  1  0  0  0  0
  9 11  1  0  0  0  0
  9 22  1  0  0  0  0
 11 12  1  0  0  0  0
 11 13  1  0  0  0  0
 11 14  1  0  0  0  0
 14 15  1  0  0  0  0
 14 20  2  0  0  0  0
 15 16  1  0  0  0  0
 15 17  1  0  0  0  0
 17 18  1  0  0  0  0
 17 19  2  0  0  0  0
 19 20  1  0  0  0  0
 20 21  1  0  0  0  0
 22 23  2  0  0  0  0
 22 24  1  0  0  0  0
 24 25  1  0  0  0  0
 24 26  1  0  0  0  0
 26 27  1  0  0  0  0
 26 28  1  0  0  0  0
 26 29  1  0  0  0  0
M  END
$$$$

  -OEChem-03222214043D

 29 29  0     1  0  0  0  0  0999 V2000
   -3.0570   -4.0374    0.5014 H   0  0  0  0  0  0  0  0  0  0  0  0
   -2.9535   -3.1440   -0.1211 C   0  0  0  0  0  0  0  0  0  0  0  0
   -3.8193   -2.4985    0.0427 H   0  0  0  0  0  0  0  0  0  0  0  0
   -2.9257   -3.4489   -1.1700 H   0  0  0  0  0  0  0  0  0  0  0  0
   -1.6786   -2.4045    0.2375 C   0  0  0  0  0  0  0  0  0  0  0  0
   -0.9742   -2.8162    1.1412 O   0  0  0  0  0  0  0  0  0  0  0  0
   -1.3324   -1.2621   -0.4569 N   0  0  0  0  0  0  0  0  0  0  0  0
   -1.8786   -1.0786   -1.2946 H   0  0  0  0  0  0  0  0  0  0  0  0
    0.0089   -0.6486   -0.4049 C   0  0  1  0  0  0  0  0  0  0  0  0
    0.7400   -1.3856   -0.7549 H   0  0  0  0  0  0  0  0  0  0  0  0
    0.0353    0.5711   -1.3394 C   0  0  0  0  0  0  0  0  0  0  0  0
   -0.6896    1.3163   -0.9967 H   0  0  0  0  0  0  0  0  0  0  0  0
    1.0270    1.0358   -1.3021 H   0  0  0  0  0  0  0  0  0  0  0  0
   -0.2672    0.1816   -2.7647 C   0  0  0  0  0  0  0  0  0  0  0  0
   -1.3073    0.6325   -3.5486 N   0  0  0  0  0  0  0  0  0  0  0  0
   -1.9808    1.3556   -3.3031 H   0  0  0  0  0  0  0  0  0  0  0  0
   -1.2304    0.0028   -4.7772 C   0  0  0  0  0  0  0  0  0  0  0  0
   -1.9093    0.1686   -5.6090 H   0  0  0  0  0  0  0  0  0  0  0  0
   -0.2176   -0.8287   -4.7932 N   0  0  0  0  0  0  0  0  0  0  0  0
    0.3983   -0.7236   -3.5506 C   0  0  0  0  0  0  0  0  0  0  0  0
    1.2744   -1.2875   -3.2437 H   0  0  0  0  0  0  0  0  0  0  0  0
    0.4681   -0.2004    0.9992 C   0  0  0  0  0  0  0  0  0  0  0  0
    1.6623   -0.2028    1.2678 O   0  0  0  0  0  0  0  0  0  0  0  0
   -0.4053    0.4861    1.8244 N   0  0  0  0  0  0  0  0  0  0  0  0
   -1.3917    0.3519    1.6257 H   0  0  0  0  0  0  0  0  0  0  0  0
   -0.0228    0.9557    3.1503 C   0  0  0  0  0  0  0  0  0  0  0  0
    0.8156    1.6571    3.0826 H   0  0  0  0  0  0  0  0  0  0  0  0
   -0.8629    1.4700    3.6265 H   0  0  0  0  0  0  0  0  0  0  0  0
    0.2738    0.1125    3.7831 H   0  0  0  0  0  0  0  0  0  0  0  0
  1  2  1  0  0  0  0
  2  3  1  0  0  0  0
  2  4  1  0  0  0  0
  2  5  1  0  0  0  0
  5  6  2  0  0  0  0
  5  7  1  0  0  0  0
  7  8  1  0  0  0  0
  7  9  1  0  0  0  0
  9 10  1  0  0  0  0
  9 11  1  0  0  0  0
  9 22  1  0  0  0  0
 11 12  1  0  0  0  0
 11 13  1  0  0  0  0
 11 14  1  0  0  0  0
 14 15  1  0  0  0  0
 14 20  2  0  0  0  0
 15 16  1  0  0  0  0
 15 17  1  0  0  0  0
 17 18  1  0  0  0  0
 17 19  2  0  0  0  0
 19 20  1  0  0  0  0
 20 21  1  0  0  0  0
 22 23  2  0  0  0  0
 22 24  1  0  0  0  0
 24 25  1  0  0  0  0
 24 26  1  0  0  0  0
 26 27  1  0  0  0  0
 26 28  1  0  0  0  0
 26 29  1  0  0  0  0
M  END
$$$$

  -OEChem-03222214043D

 29 29  0     1  0  0  0  0  0999 V2000
   -3.0624   -4.0320    0.5209 H   0  0  0  0  0  0  0  0  0  0  0  0
   -2.9524   -3.1410   -0.1039 C   0  0  0  0  0  0  0  0  0  0  0  0
   -3.8053   -2.4809    0.0710 H   0  0  0  0  0  0  0  0  0  0  0  0
   -2.9448   -3.4474   -1.1529 H   0  0  0  0  0  0  0  0  0  0  0  0
   -1.6606   -2.4221    0.2365 C   0  0  0  0  0  0  0  0  0  0  0  0
   -0.9478   -2.8462    1.1278 O   0  0  0  0  0  0  0  0  0  0  0  0
   -1.3091   -1.2822   -0.4593 N   0  0  0  0  0  0  0  0  0  0  0  0
   -1.8713   -1.0769   -1.2815 H   0  0  0  0  0  0  0  0  0  0  0  0
    0.0290   -0.6615   -0.4010 C   0  0  1  0  0  0  0  0  0  0  0  0
    0.7690   -1.3957   -0.7372 H   0  0  0  0  0  0  0  0  0  0  0  0
    0.0546    0.5532   -1.3431 C   0  0  0  0  0  0  0  0  0  0  0  0
   -0.6842    1.2868   -1.0048 H   0  0  0  0  0  0  0  0  0  0  0  0
    1.0390    1.0325   -1.2973 H   0  0  0  0  0  0  0  0  0  0  0  0
   -0.2348    0.1701   -2.7750 C   0  0  0  0  0  0  0  0  0  0  0  0
   -1.0804    0.8228   -3.6456 N   0  0  0  0  0  0  0  0  0  0  0  0
   -1.5719    1.6969   -3.4693 H   0  0  0  0  0  0  0  0  0  0  0  0
   -1.1048    0.1250   -4.8386 C   0  0  0  0  0  0  0  0  0  0  0  0
   -1.6759    0.4086   -5.7183 H   0  0  0  0  0  0  0  0  0  0  0  0
   -0.3405   -0.9361   -4.7530 N   0  0  0  0  0  0  0  0  0  0  0  0
    0.2148   -0.9191   -3.4784 C   0  0  0  0  0  0  0  0  0  0  0  0
    0.8953   -1.6725   -3.0927 H   0  0  0  0  0  0  0  0  0  0  0  0
    0.4713   -0.2043    1.0056 C   0  0  0  0  0  0  0  0  0  0  0  0
    1.6627   -0.1946    1.2861 O   0  0  0  0  0  0  0  0  0  0  0  0
   -0.4151    0.4810    1.8179 N   0  0  0  0  0  0  0  0  0  0  0  0
   -1.3985    0.3391    1.6101 H   0  0  0  0  0  0  0  0  0  0  0  0
   -0.0492    0.9649    3.1435 C   0  0  0  0  0  0  0  0  0  0  0  0
    0.7873    1.6687    3.0783 H   0  0  0  0  0  0  0  0  0  0  0  0
   -0.8966    1.4805    3.6051 H   0  0  0  0  0  0  0  0  0  0  0  0
    0.2429    0.1291    3.7880 H   0  0  0  0  0  0  0  0  0  0  0  0
  1  2  1  0  0  0  0
  2  3  1  0  0  0  0
  2  4  1  0  0  0  0
  2  5  1  0  0  0  0
  5  6  2  0  0  0  0
  5  7  1  0  0  0  0
  7  8  1  0  0  0  0
  7  9  1  0  0  0  0
  9 10  1  0  0  0  0
  9 11  1  0  0  0  0
  9 22  1  0  0  0  0
 11 12  1  0  0  0  0
 11 13  1  0  0  0  0
 11 14  1  0  0  0  0
 14 15  1  0  0  0  0
 14 20  2  0  0  0  0
 15 16  1  0  0  0  0
 15 17  1  0  0  0  0
 17 18  1  0  0  0  0
 17 19  2  0  0  0  0
 19 20  1  0  0  0  0
 20 21  1  0  0  0  0
 22 23  2  0  0  0  0
 22 24  1  0  0  0  0
 24 25  1  0  0  0  0
 24 26  1  0  0  0  0
 26 27  1  0  0  0  0
 26 28  1  0  0  0  0
 26 29  1  0  0  0  0
M  END
$$$$

  -OEChem-03222214043D

 29 29  0     1  0  0  0  0  0999 V2000
   -3.0358   -4.0692    0.5079 H   0  0  0  0  0  0  0  0  0  0  0  0
   -2.9578   -3.1460   -0.0734 C   0  0  0  0  0  0  0  0  0  0  0  0
   -3.8076   -2.5036    0.1689 H   0  0  0  0  0  0  0  0  0  0  0  0
   -2.9901   -3.3976   -1.1364 H   0  0  0  0  0  0  0  0  0  0  0  0
   -1.6585   -2.4344    0.2530 C   0  0  0  0  0  0  0  0  0  0  0  0
   -0.9376   -2.8622    1.1358 O   0  0  0  0  0  0  0  0  0  0  0  0
   -1.3037   -1.3010   -0.4510 N   0  0  0  0  0  0  0  0  0  0  0  0
   -1.8817   -1.0800   -1.2580 H   0  0  0  0  0  0  0  0  0  0  0  0
    0.0335   -0.6773   -0.3941 C   0  0  1  0  0  0  0  0  0  0  0  0
    0.7769   -1.4136   -0.7183 H   0  0  0  0  0  0  0  0  0  0  0  0
    0.0631    0.5265   -1.3507 C   0  0  0  0  0  0  0  0  0  0  0  0
   -0.6806    1.2597   -1.0222 H   0  0  0  0  0  0  0  0  0  0  0  0
    1.0455    1.0094   -1.3006 H   0  0  0  0  0  0  0  0  0  0  0  0
   -0.2164    0.1423   -2.7858 C   0  0  0  0  0  0  0  0  0  0  0  0
   -0.8152    0.9397   -3.7369 N   0  0  0  0  0  0  0  0  0  0  0  0
   -1.0919    1.9127   -3.6212 H   0  0  0  0  0  0  0  0  0  0  0  0
   -0.9373    0.2136   -4.9067 C   0  0  0  0  0  0  0  0  0  0  0  0
   -1.3684    0.5854   -5.8321 H   0  0  0  0  0  0  0  0  0  0  0  0
   -0.4617   -0.9956   -4.7353 N   0  0  0  0  0  0  0  0  0  0  0  0
    0.0010   -1.0533   -3.4256 C   0  0  0  0  0  0  0  0  0  0  0  0
    0.4539   -1.9307   -2.9734 H   0  0  0  0  0  0  0  0  0  0  0  0
    0.4684   -0.2063    1.0104 C   0  0  0  0  0  0  0  0  0  0  0  0
    1.6579   -0.1938    1.2980 O   0  0  0  0  0  0  0  0  0  0  0  0
   -0.4227    0.4847    1.8126 N   0  0  0  0  0  0  0  0  0  0  0  0
   -1.4051    0.3496    1.5964 H   0  0  0  0  0  0  0  0  0  0  0  0
   -0.0647    0.9785    3.1367 C   0  0  0  0  0  0  0  0  0  0  0  0
    0.7699    1.6845    3.0709 H   0  0  0  0  0  0  0  0  0  0  0  0
   -0.9156    1.4945    3.5915 H   0  0  0  0  0  0  0  0  0  0  0  0
    0.2271    0.1478    3.7879 H   0  0  0  0  0  0  0  0  0  0  0  0
  1  2  1  0  0  0  0
  2  3  1  0  0  0  0
  2  4  1  0  0  0  0
  2  5  1  0  0  0  0
  5  6  2  0  0  0  0
  5  7  1  0  0  0  0
  7  8  1  0  0  0  0
  7  9  1  0  0  0  0
  9 10  1  0  0  0  0
  9 11  1  0  0  0  0
  9 22  1  0  0  0  0
 11 12  1  0  0  0  0
 11 13  1  0  0  0  0
 11 14  1  0  0  0  0
 14 15  1  0  0  0  0
 14 20  2  0  0  0  0
 15 16  1  0  0  0  0
 15 17  1  0  0  0  0
 17 18  1  0  0  0  0
 17 19  2  0  0  0  0
 19 20  1  0  0  0  0
 20 21  1  0  0  0  0
 22 23  2  0  0  0  0
 22 24  1  0  0  0  0
 24 25  1  0  0  0  0
 24 26  1  0  0  0  0
 26 27  1  0  0  0  0
 26 28  1  0  0  0  0
 26 29  1  0  0  0  0
M  END
$$$$

  -OEChem-03222214043D

 29 29  0     1  0  0  0  0  0999 V2000
   -3.0397   -4.0825    0.5541 H   0  0  0  0  0  0  0  0  0  0  0  0
   -2.9725   -3.1546   -0.0207 C   0  0  0  0  0  0  0  0  0  0  0  0
   -3.8129   -2.5108    0.2488 H   0  0  0  0  0  0  0  0  0  0  0  0
   -3.0328   -3.3968   -1.0846 H   0  0  0  0  0  0  0  0  0  0  0  0
   -1.6627   -2.4506    0.2786 C   0  0  0  0  0  0  0  0  0  0  0  0
   -0.9283   -2.8790    1.1498 O   0  0  0  0  0  0  0  0  0  0  0  0
   -1.3133   -1.3223   -0.4363 N   0  0  0  0  0  0  0  0  0  0  0  0
   -1.9110   -1.0897   -1.2256 H   0  0  0  0  0  0  0  0  0  0  0  0
    0.0227   -0.6941   -0.3916 C   0  0  1  0  0  0  0  0  0  0  0  0
    0.7651   -1.4329   -0.7131 H   0  0  0  0  0  0  0  0  0  0  0  0
    0.0553    0.4999   -1.3607 C   0  0  0  0  0  0  0  0  0  0  0  0
   -0.6852    1.2391   -1.0386 H   0  0  0  0  0  0  0  0  0  0  0  0
    1.0403    0.9773   -1.3106 H   0  0  0  0  0  0  0  0  0  0  0  0
   -0.2209    0.1186   -2.7979 C   0  0  0  0  0  0  0  0  0  0  0  0
   -0.5399    0.9934   -3.8135 N   0  0  0  0  0  0  0  0  0  0  0  0
   -0.5988    2.0072   -3.7398 H   0  0  0  0  0  0  0  0  0  0  0  0
   -0.7317    0.2696   -4.9753 C   0  0  0  0  0  0  0  0  0  0  0  0
   -0.9916    0.6939   -5.9411 H   0  0  0  0  0  0  0  0  0  0  0  0
   -0.5586   -1.0085   -4.7413 N   0  0  0  0  0  0  0  0  0  0  0  0
   -0.2243   -1.1177   -3.3968 C   0  0  0  0  0  0  0  0  0  0  0  0
   -0.0075   -2.0560   -2.8945 H   0  0  0  0  0  0  0  0  0  0  0  0
    0.4617   -0.2105    1.0070 C   0  0  0  0  0  0  0  0  0  0  0  0
    1.6521   -0.1935    1.2908 O   0  0  0  0  0  0  0  0  0  0  0  0
   -0.4289    0.4843    1.8063 N   0  0  0  0  0  0  0  0  0  0  0  0
   -1.4116    0.3472    1.5925 H   0  0  0  0  0  0  0  0  0  0  0  0
   -0.0687    0.9882    3.1258 C   0  0  0  0  0  0  0  0  0  0  0  0
    0.7640    1.6958    3.0531 H   0  0  0  0  0  0  0  0  0  0  0  0
   -0.9200    1.5052    3.5787 H   0  0  0  0  0  0  0  0  0  0  0  0
    0.2272    0.1627    3.7818 H   0  0  0  0  0  0  0  0  0  0  0  0
  1  2  1  0  0  0  0
  2  3  1  0  0  0  0
  2  4  1  0  0  0  0
  2  5  1  0  0  0  0
  5  6  2  0  0  0  0
  5  7  1  0  0  0  0
  7  8  1  0  0  0  0
  7  9  1  0  0  0  0
  9 10  1  0  0  0  0
  9 11  1  0  0  0  0
  9 22  1  0  0  0  0
 11 12  1  0  0  0  0
 11 13  1  0  0  0  0
 11 14  1  0  0  0  0
 14 15  1  0  0  0  0
 14 20  2  0  0  0  0
 15 16  1  0  0  0  0
 15 17  1  0  0  0  0
 17 18  1  0  0  0  0
 17 19  2  0  0  0  0
 19 20  1  0  0  0  0
 20 21  1  0  0  0  0
 22 23  2  0  0  0  0
 22 24  1  0  0  0  0
 24 25  1  0  0  0  0
 24 26  1  0  0  0  0
 26 27  1  0  0  0  0
 26 28  1  0  0  0  0
 26 29  1  0  0  0  0
M  END
$$$$

  -OEChem-03222214043D

 29 29  0     1  0  0  0  0  0999 V2000
   -3.0476   -4.1110    0.7670 H   0  0  0  0  0  0  0  0  0  0  0  0
   -3.0052   -3.1993    0.1642 C   0  0  0  0  0  0  0  0  0  0  0  0
   -3.8114   -2.5318    0.4778 H   0  0  0  0  0  0  0  0  0  0  0  0
   -3.1486   -3.4664   -0.8856 H   0  0  0  0  0  0  0  0  0  0  0  0
   -1.6636   -2.5157    0.3472 C   0  0  0  0  0  0  0  0  0  0  0  0
   -0.8566   -2.9623    1.1418 O   0  0  0  0  0  0  0  0  0  0  0  0
   -1.3667   -1.3818   -0.3823 N   0  0  0  0  0  0  0  0  0  0  0  0
   -2.0520   -1.0897   -1.0740 H   0  0  0  0  0  0  0  0  0  0  0  0
   -0.0491   -0.7144   -0.3901 C   0  0  1  0  0  0  0  0  0  0  0  0
    0.6851   -1.4583   -0.7191 H   0  0  0  0  0  0  0  0  0  0  0  0
   -0.0073    0.4531   -1.3972 C   0  0  0  0  0  0  0  0  0  0  0  0
   -0.5517    1.2995   -0.9661 H   0  0  0  0  0  0  0  0  0  0  0  0
    1.0354    0.7662   -1.5199 H   0  0  0  0  0  0  0  0  0  0  0  0
   -0.5945    0.1803   -2.7681 C   0  0  0  0  0  0  0  0  0  0  0  0
   -0.6452    1.1047   -3.7896 N   0  0  0  0  0  0  0  0  0  0  0  0
   -0.3310    2.0721   -3.7411 H   0  0  0  0  0  0  0  0  0  0  0  0
   -1.1765    0.5012   -4.9134 C   0  0  0  0  0  0  0  0  0  0  0  0
   -1.3499    0.9942   -5.8659 H   0  0  0  0  0  0  0  0  0  0  0  0
   -1.4441   -0.7563   -4.6610 N   0  0  0  0  0  0  0  0  0  0  0  0
   -1.0559   -0.9789   -3.3461 C   0  0  0  0  0  0  0  0  0  0  0  0
   -1.1018   -1.9484   -2.8604 H   0  0  0  0  0  0  0  0  0  0  0  0
    0.4283   -0.2097    0.9878 C   0  0  0  0  0  0  0  0  0  0  0  0
    1.6276   -0.1533    1.2253 O   0  0  0  0  0  0  0  0  0  0  0  0
   -0.4512    0.4638    1.8172 N   0  0  0  0  0  0  0  0  0  0  0  0
   -1.4380    0.3112    1.6351 H   0  0  0  0  0  0  0  0  0  0  0  0
   -0.0567    0.9955    3.1162 C   0  0  0  0  0  0  0  0  0  0  0  0
    0.7530    1.7243    3.0036 H   0  0  0  0  0  0  0  0  0  0  0  0
   -0.9046    1.4956    3.5937 H   0  0  0  0  0  0  0  0  0  0  0  0
    0.2857    0.1875    3.7715 H   0  0  0  0  0  0  0  0  0  0  0  0
  1  2  1  0  0  0  0
  2  3  1  0  0  0  0
  2  4  1  0  0  0  0
  2  5  1  0  0  0  0
  5  6  2  0  0  0  0
  5  7  1  0  0  0  0
  7  8  1  0  0  0  0
  7  9  1  0  0  0  0
  9 10  1  0  0  0  0
  9 11  1  0  0  0  0
  9 22  1  0  0  0  0
 11 12  1  0  0  0  0
 11 13  1  0  0  0  0
 11 14  1  0  0  0  0
 14 15  1  0  0  0  0
 14 20  2  0  0  0  0
 15 16  1  0  0  0  0
 15 17  1  0  0  0  0
 17 18  1  0  0  0  0
 17 19  2  0  0  0  0
 19 20  1  0  0  0  0
 20 21  1  0  0  0  0
 22 23  2  0  0  0  0
 22 24  1  0  0  0  0
 24 25  1  0  0  0  0
 24 26  1  0  0  0  0
 26 27  1  0  0  0  0
 26 28  1  0  0  0  0
 26 29  1  0  0  0  0
M  END
$$$$

  -OEChem-03222214043D

 29 29  0     1  0  0  0  0  0999 V2000
   -3.0394   -4.1169    0.8587 H   0  0  0  0  0  0  0  0  0  0  0  0
   -3.0102   -3.2111    0.2463 C   0  0  0  0  0  0  0  0  0  0  0  0
   -3.7982   -2.5333    0.5825 H   0  0  0  0  0  0  0  0  0  0  0  0
   -3.1936   -3.4862   -0.7953 H   0  0  0  0  0  0  0  0  0  0  0  0
   -1.6566   -2.5388    0.3753 C   0  0  0  0  0  0  0  0  0  0  0  0
   -0.8222   -2.9922    1.1371 O   0  0  0  0  0  0  0  0  0  0  0  0
   -1.3797   -1.4063   -0.3643 N   0  0  0  0  0  0  0  0  0  0  0  0
   -2.0996   -1.0876   -1.0066 H   0  0  0  0  0  0  0  0  0  0  0  0
   -0.0694   -0.7276   -0.3954 C   0  0  1  0  0  0  0  0  0  0  0  0
    0.6642   -1.4722   -0.7248 H   0  0  0  0  0  0  0  0  0  0  0  0
   -0.0298    0.4322   -1.4127 C   0  0  0  0  0  0  0  0  0  0  0  0
   -0.5628    1.2872   -0.9840 H   0  0  0  0  0  0  0  0  0  0  0  0
    1.0170    0.7318   -1.5346 H   0  0  0  0  0  0  0  0  0  0  0  0
   -0.6139    0.1765   -2.7904 C   0  0  0  0  0  0  0  0  0  0  0  0
   -0.3846    0.9999   -3.8729 N   0  0  0  0  0  0  0  0  0  0  0  0
    0.1506    1.8661   -3.8646 H   0  0  0  0  0  0  0  0  0  0  0  0
   -0.9846    0.4542   -4.9910 C   0  0  0  0  0  0  0  0  0  0  0  0
   -0.9819    0.8974   -5.9829 H   0  0  0  0  0  0  0  0  0  0  0  0
   -1.5599   -0.6801   -4.6789 N   0  0  0  0  0  0  0  0  0  0  0  0
   -1.3093   -0.8820   -3.3279 C   0  0  0  0  0  0  0  0  0  0  0  0
   -1.6159   -1.7759   -2.7963 H   0  0  0  0  0  0  0  0  0  0  0  0
    0.4198   -0.2123    0.9747 C   0  0  0  0  0  0  0  0  0  0  0  0
    1.6212   -0.1417    1.1976 O   0  0  0  0  0  0  0  0  0  0  0  0
   -0.4570    0.4564    1.8109 N   0  0  0  0  0  0  0  0  0  0  0  0
   -1.4446    0.2986    1.6384 H   0  0  0  0  0  0  0  0  0  0  0  0
   -0.0537    1.0006    3.1014 C   0  0  0  0  0  0  0  0  0  0  0  0
    0.7492    1.7345    2.9752 H   0  0  0  0  0  0  0  0  0  0  0  0
   -0.9005    1.4977    3.5839 H   0  0  0  0  0  0  0  0  0  0  0  0
    0.3010    0.1999    3.7590 H   0  0  0  0  0  0  0  0  0  0  0  0
  1  2  1  0  0  0  0
  2  3  1  0  0  0  0
  2  4  1  0  0  0  0
  2  5  1  0  0  0  0
  5  6  2  0  0  0  0
  5  7  1  0  0  0  0
  7  8  1  0  0  0  0
  7  9  1  0  0  0  0
  9 10  1  0  0  0  0
  9 11  1  0  0  0  0
  9 22  1  0  0  0  0
 11 12  1  0  0  0  0
 11 13  1  0  0  0  0
 11 14  1  0  0  0  0
 14 15  1  0  0  0  0
 14 20  2  0  0  0  0
 15 16  1  0  0  0  0
 15 17  1  0  0  0  0
 17 18  1  0  0  0  0
 17 19  2  0  0  0  0
 19 20  1  0  0  0  0
 20 21  1  0  0  0  0
 22 23  2  0  0  0  0
 22 24  1  0  0  0  0
 24 25  1  0  0  0  0
 24 26  1  0  0  0  0
 26 27  1  0  0  0  0
 26 28  1  0  0  0  0
 26 29  1  0  0  0  0
M  END
$$$$

  -OEChem-03222214043D

 29 29  0     1  0  0  0  0  0999 V2000
   -3.0240   -4.1278    0.9082 H   0  0  0  0  0  0  0  0  0  0  0  0
   -3.0059   -3.2255    0.2902 C   0  0  0  0  0  0  0  0  0  0  0  0
   -3.7842   -2.5433    0.6399 H   0  0  0  0  0  0  0  0  0  0  0  0
   -3.2140   -3.5063   -0.7451 H   0  0  0  0  0  0  0  0  0  0  0  0
   -1.6474   -2.5568    0.3846 C   0  0  0  0  0  0  0  0  0  0  0  0
   -0.7942   -3.0149    1.1223 O   0  0  0  0  0  0  0  0  0  0  0  0
   -1.3884   -1.4208   -0.3565 N   0  0  0  0  0  0  0  0  0  0  0  0
   -2.1309   -1.0862   -0.9624 H   0  0  0  0  0  0  0  0  0  0  0  0
   -0.0847   -0.7324   -0.4016 C   0  0  1  0  0  0  0  0  0  0  0  0
    0.6475   -1.4771   -0.7339 H   0  0  0  0  0  0  0  0  0  0  0  0
   -0.0389    0.4261   -1.4219 C   0  0  0  0  0  0  0  0  0  0  0  0
   -0.5603    1.2897   -0.9966 H   0  0  0  0  0  0  0  0  0  0  0  0
    1.0122    0.7120   -1.5397 H   0  0  0  0  0  0  0  0  0  0  0  0
   -0.6184    0.1792   -2.8041 C   0  0  0  0  0  0  0  0  0  0  0  0
   -0.1506    0.8142   -3.9357 N   0  0  0  0  0  0  0  0  0  0  0  0
    0.5911    1.5111   -3.9682 H   0  0  0  0  0  0  0  0  0  0  0  0
   -0.8386    0.3433   -5.0367 C   0  0  0  0  0  0  0  0  0  0  0  0
   -0.6840    0.6732   -6.0602 H   0  0  0  0  0  0  0  0  0  0  0  0
   -1.7084   -0.5621   -4.6645 N   0  0  0  0  0  0  0  0  0  0  0  0
   -1.5687   -0.6894   -3.2889 C   0  0  0  0  0  0  0  0  0  0  0  0
   -2.1463   -1.3947   -2.7030 H   0  0  0  0  0  0  0  0  0  0  0  0
    0.4144   -0.2161    0.9646 C   0  0  0  0  0  0  0  0  0  0  0  0
    1.6175   -0.1356    1.1747 O   0  0  0  0  0  0  0  0  0  0  0  0
   -0.4583    0.4441    1.8121 N   0  0  0  0  0  0  0  0  0  0  0  0
   -1.4470    0.2833    1.6491 H   0  0  0  0  0  0  0  0  0  0  0  0
   -0.0444    0.9972    3.0959 C   0  0  0  0  0  0  0  0  0  0  0  0
    0.7506    1.7375    2.9573 H   0  0  0  0  0  0  0  0  0  0  0  0
   -0.8899    1.4895    3.5859 H   0  0  0  0  0  0  0  0  0  0  0  0
    0.3249    0.2026    3.7528 H   0  0  0  0  0  0  0  0  0  0  0  0
  1  2  1  0  0  0  0
  2  3  1  0  0  0  0
  2  4  1  0  0  0  0
  2  5  1  0  0  0  0
  5  6  2  0  0  0  0
  5  7  1  0  0  0  0
  7  8  1  0  0  0  0
  7  9  1  0  0  0  0
  9 10  1  0  0  0  0
  9 11  1  0  0  0  0
  9 22  1  0  0  0  0
 11 12  1  0  0  0  0
 11 13  1  0  0  0  0
 11 14  1  0  0  0  0
 14 15  1  0  0  0  0
 14 20  2  0  0  0  0
 15 16  1  0  0  0  0
 15 17  1  0  0  0  0
 17 18  1  0  0  0  0
 17 19  2  0  0  0  0
 19 20  1  0  0  0  0
 20 21  1  0  0  0  0
 22 23  2  0  0  0  0
 22 24  1  0  0  0  0
 24 25  1  0  0  0  0
 24 26  1  0  0  0  0
 26 27  1  0  0  0  0
 26 28  1  0  0  0  0
 26 29  1  0  0  0  0
M  END
$$$$

  -OEChem-03222214043D

 29 29  0     1  0  0  0  0  0999 V2000
   -3.0039   -4.1589    0.8539 H   0  0  0  0  0  0  0  0  0  0  0  0
   -2.9873   -3.2517    0.2432 C   0  0  0  0  0  0  0  0  0  0  0  0
   -3.7937   -2.5916    0.5713 H   0  0  0  0  0  0  0  0  0  0  0  0
   -3.1527   -3.5290   -0.8008 H   0  0  0  0  0  0  0  0  0  0  0  0
   -1.6503   -2.5503    0.3890 C   0  0  0  0  0  0  0  0  0  0  0  0
   -0.8216   -2.9782    1.1717 O   0  0  0  0  0  0  0  0  0  0  0  0
   -1.3874   -1.4172   -0.3550 N   0  0  0  0  0  0  0  0  0  0  0  0
   -2.0905   -1.1482   -1.0335 H   0  0  0  0  0  0  0  0  0  0  0  0
   -0.0799   -0.7353   -0.3964 C   0  0  1  0  0  0  0  0  0  0  0  0
    0.6493   -1.4844   -0.7252 H   0  0  0  0  0  0  0  0  0  0  0  0
   -0.0167    0.4265   -1.4127 C   0  0  0  0  0  0  0  0  0  0  0  0
   -0.5407    1.2915   -0.9925 H   0  0  0  0  0  0  0  0  0  0  0  0
    1.0342    0.7140   -1.5261 H   0  0  0  0  0  0  0  0  0  0  0  0
   -0.5981    0.1636   -2.7884 C   0  0  0  0  0  0  0  0  0  0  0  0
    0.0226    0.5186   -3.9674 N   0  0  0  0  0  0  0  0  0  0  0  0
    0.9387    0.9547   -4.0558 H   0  0  0  0  0  0  0  0  0  0  0  0
   -0.7907    0.1666   -5.0273 C   0  0  0  0  0  0  0  0  0  0  0  0
   -0.5515    0.3162   -6.0764 H   0  0  0  0  0  0  0  0  0  0  0  0
   -1.8972   -0.3746   -4.5803 N   0  0  0  0  0  0  0  0  0  0  0  0
   -1.7947   -0.3741   -3.1960 C   0  0  0  0  0  0  0  0  0  0  0  0
   -2.5792   -0.7370   -2.5415 H   0  0  0  0  0  0  0  0  0  0  0  0
    0.4175   -0.2189    0.9705 C   0  0  0  0  0  0  0  0  0  0  0  0
    1.6208   -0.1439    1.1824 O   0  0  0  0  0  0  0  0  0  0  0  0
   -0.4538    0.4471    1.8142 N   0  0  0  0  0  0  0  0  0  0  0  0
   -1.4422    0.2807    1.6547 H   0  0  0  0  0  0  0  0  0  0  0  0
   -0.0381    1.0017    3.0964 C   0  0  0  0  0  0  0  0  0  0  0  0
    0.7517    1.7470    2.9542 H   0  0  0  0  0  0  0  0  0  0  0  0
   -0.8843    1.4881    3.5907 H   0  0  0  0  0  0  0  0  0  0  0  0
    0.3390    0.2088    3.7510 H   0  0  0  0  0  0  0  0  0  0  0  0
  1  2  1  0  0  0  0
  2  3  1  0  0  0  0
  2  4  1  0  0  0  0
  2  5  1  0  0  0  0
  5  6  2  0  0  0  0
  5  7  1  0  0  0  0
  7  8  1  0  0  0  0
  7  9  1  0  0  0  0
  9 10  1  0  0  0  0
  9 11  1  0  0  0  0
  9 22  1  0  0  0  0
 11 12  1  0  0  0  0
 11 13  1  0  0  0  0
 11 14  1  0  0  0  0
 14 15  1  0  0  0  0
 14 20  2  0  0  0  0
 15 16  1  0  0  0  0
 15 17  1  0  0  0  0
 17 18  1  0  0  0  0
 17 19  2  0  0  0  0
 19 20  1  0  0  0  0
 20 21  1  0  0  0  0
 22 23  2  0  0  0  0
 22 24  1  0  0  0  0
 24 25  1  0  0  0  0
 24 26  1  0  0  0  0
 26 27  1  0  0  0  0
 26 28  1  0  0  0  0
 26 29  1  0  0  0  0
M  END
$$$$

  -OEChem-03222214043D

 29 29  0     1  0  0  0  0  0999 V2000
   -2.9894   -4.1799    0.7262 H   0  0  0  0  0  0  0  0  0  0  0  0
   -2.9626   -3.2681    0.1227 C   0  0  0  0  0  0  0  0  0  0  0  0
   -3.8197   -2.6447    0.3879 H   0  0  0  0  0  0  0  0  0  0  0  0
   -3.0328   -3.5444   -0.9323 H   0  0  0  0  0  0  0  0  0  0  0  0
   -1.6723   -2.5123    0.3776 C   0  0  0  0  0  0  0  0  0  0  0  0
   -0.9025   -2.8997    1.2377 O   0  0  0  0  0  0  0  0  0  0  0  0
   -1.3832   -1.3852   -0.3659 N   0  0  0  0  0  0  0  0  0  0  0  0
   -1.9941   -1.2187   -1.1588 H   0  0  0  0  0  0  0  0  0  0  0  0
   -0.0601   -0.7293   -0.3820 C   0  0  1  0  0  0  0  0  0  0  0  0
    0.6633   -1.4849   -0.7078 H   0  0  0  0  0  0  0  0  0  0  0  0
    0.0129    0.4395   -1.3876 C   0  0  0  0  0  0  0  0  0  0  0  0
   -0.5208    1.2989   -0.9681 H   0  0  0  0  0  0  0  0  0  0  0  0
    1.0594    0.7394   -1.5096 H   0  0  0  0  0  0  0  0  0  0  0  0
   -0.5855    0.1370   -2.7432 C   0  0  0  0  0  0  0  0  0  0  0  0
    0.0777    0.1658   -3.9508 N   0  0  0  0  0  0  0  0  0  0  0  0
    1.0766    0.3127   -4.0857 H   0  0  0  0  0  0  0  0  0  0  0  0
   -0.8358   -0.0598   -4.9635 C   0  0  0  0  0  0  0  0  0  0  0  0
   -0.5956   -0.1188   -6.0215 H   0  0  0  0  0  0  0  0  0  0  0  0
   -2.0393   -0.1925   -4.4599 N   0  0  0  0  0  0  0  0  0  0  0  0
   -1.9019   -0.0373   -3.0876 C   0  0  0  0  0  0  0  0  0  0  0  0
   -2.7322   -0.0377   -2.3879 H   0  0  0  0  0  0  0  0  0  0  0  0
    0.4282   -0.2195    0.9908 C   0  0  0  0  0  0  0  0  0  0  0  0
    1.6302   -0.1707    1.2189 O   0  0  0  0  0  0  0  0  0  0  0  0
   -0.4416    0.4672    1.8190 N   0  0  0  0  0  0  0  0  0  0  0  0
   -1.4301    0.3122    1.6473 H   0  0  0  0  0  0  0  0  0  0  0  0
   -0.0362    1.0117    3.1087 C   0  0  0  0  0  0  0  0  0  0  0  0
    0.7734    1.7383    2.9813 H   0  0  0  0  0  0  0  0  0  0  0  0
   -0.8799    1.5180    3.5873 H   0  0  0  0  0  0  0  0  0  0  0  0
    0.3099    0.2106    3.7704 H   0  0  0  0  0  0  0  0  0  0  0  0
  1  2  1  0  0  0  0
  2  3  1  0  0  0  0
  2  4  1  0  0  0  0
  2  5  1  0  0  0  0
  5  6  2  0  0  0  0
  5  7  1  0  0  0  0
  7  8  1  0  0  0  0
  7  9  1  0  0  0  0
  9 10  1  0  0  0  0
  9 11  1  0  0  0  0
  9 22  1  0  0  0  0
 11 12  1  0  0  0  0
 11 13  1  0  0  0  0
 11 14  1  0  0  0  0
 14 15  1  0  0  0  0
 14 20  2  0  0  0  0
 15 16  1  0  0  0  0
 15 17  1  0  0  0  0
 17 18  1  0  0  0  0
 17 19  2  0  0  0  0
 19 20  1  0  0  0  0
 20 21  1  0  0  0  0
 22 23  2  0  0  0  0
 22 24  1  0  0  0  0
 24 25  1  0  0  0  0
 24 26  1  0  0  0  0
 26 27  1  0  0  0  0
 26 28  1  0  0  0  0
 26 29  1  0  0  0  0
M  END
$$$$

  -OEChem-03222214043D

 29 29  0     1  0  0  0  0  0999 V2000
   -2.9955   -4.1638    0.6567 H   0  0  0  0  0  0  0  0  0  0  0  0
   -2.9671   -3.2396    0.0725 C   0  0  0  0  0  0  0  0  0  0  0  0
   -3.8250   -2.6219    0.3484 H   0  0  0  0  0  0  0  0  0  0  0  0
   -3.0348   -3.4939   -0.9881 H   0  0  0  0  0  0  0  0  0  0  0  0
   -1.6774   -2.4894    0.3463 C   0  0  0  0  0  0  0  0  0  0  0  0
   -0.9186   -2.8850    1.2126 O   0  0  0  0  0  0  0  0  0  0  0  0
   -1.3769   -1.3569   -0.3842 N   0  0  0  0  0  0  0  0  0  0  0  0
   -1.9712   -1.1888   -1.1906 H   0  0  0  0  0  0  0  0  0  0  0  0
   -0.0498   -0.7081   -0.3834 C   0  0  1  0  0  0  0  0  0  0  0  0
    0.6742   -1.4597   -0.7167 H   0  0  0  0  0  0  0  0  0  0  0  0
    0.0109    0.4690   -1.3764 C   0  0  0  0  0  0  0  0  0  0  0  0
   -0.5323    1.3194   -0.9504 H   0  0  0  0  0  0  0  0  0  0  0  0
    1.0519    0.7833   -1.5103 H   0  0  0  0  0  0  0  0  0  0  0  0
   -0.6000    0.1397   -2.7169 C   0  0  0  0  0  0  0  0  0  0  0  0
    0.0712   -0.1231   -3.8904 N   0  0  0  0  0  0  0  0  0  0  0  0
    1.0806   -0.2001   -4.0041 H   0  0  0  0  0  0  0  0  0  0  0  0
   -0.8586   -0.2817   -4.9011 C   0  0  0  0  0  0  0  0  0  0  0  0
   -0.6241   -0.5200   -5.9348 H   0  0  0  0  0  0  0  0  0  0  0  0
   -2.0697   -0.1039   -4.4288 N   0  0  0  0  0  0  0  0  0  0  0  0
   -1.9203    0.1944   -3.0812 C   0  0  0  0  0  0  0  0  0  0  0  0
   -2.7385    0.4399   -2.4107 H   0  0  0  0  0  0  0  0  0  0  0  0
    0.4349   -0.2126    0.9954 C   0  0  0  0  0  0  0  0  0  0  0  0
    1.6361   -0.1759    1.2298 O   0  0  0  0  0  0  0  0  0  0  0  0
   -0.4343    0.4725    1.8256 N   0  0  0  0  0  0  0  0  0  0  0  0
   -1.4228    0.3233    1.6481 H   0  0  0  0  0  0  0  0  0  0  0  0
   -0.0330    0.9903    3.1274 C   0  0  0  0  0  0  0  0  0  0  0  0
    0.7877    1.7071    3.0189 H   0  0  0  0  0  0  0  0  0  0  0  0
   -0.8738    1.5003    3.6070 H   0  0  0  0  0  0  0  0  0  0  0  0
    0.2958    0.1736    3.7786 H   0  0  0  0  0  0  0  0  0  0  0  0
  1  2  1  0  0  0  0
  2  3  1  0  0  0  0
  2  4  1  0  0  0  0
  2  5  1  0  0  0  0
  5  6  2  0  0  0  0
  5  7  1  0  0  0  0
  7  8  1  0  0  0  0
  7  9  1  0  0  0  0
  9 10  1  0  0  0  0
  9 11  1  0  0  0  0
  9 22  1  0  0  0  0
 11 12  1  0  0  0  0
 11 13  1  0  0  0  0
 11 14  1  0  0  0  0
 14 15  1  0  0  0  0
 14 20  2  0  0  0  0
 15 16  1  0  0  0  0
 15 17  1  0  0  0  0
 17 18  1  0  0  0  0
 17 19  2  0  0  0  0
 19 20  1  0  0  0  0
 20 21  1  0  0  0  0
 22 23  2  0  0  0  0
 22 24  1  0  0  0  0
 24 25  1  0  0  0  0
 24 26  1  0  0  0  0
 26 27  1  0  0  0  0
 26 28  1  0  0  0  0
 26 29  1  0  0  0  0
M  END
$$$$

  -OEChem-03222214043D

 29 29  0     1  0  0  0  0  0999 V2000
   -3.0242   -4.1302    0.6191 H   0  0  0  0  0  0  0  0  0  0  0  0
   -2.9783   -3.2074    0.0339 C   0  0  0  0  0  0  0  0  0  0  0  0
   -3.8294   -2.5771    0.3022 H   0  0  0  0  0  0  0  0  0  0  0  0
   -3.0413   -3.4617   -1.0269 H   0  0  0  0  0  0  0  0  0  0  0  0
   -1.6805   -2.4744    0.3163 C   0  0  0  0  0  0  0  0  0  0  0  0
   -0.9228   -2.8898    1.1744 O   0  0  0  0  0  0  0  0  0  0  0  0
   -1.3705   -1.3352   -0.3990 N   0  0  0  0  0  0  0  0  0  0  0  0
   -1.9640   -1.1470   -1.2025 H   0  0  0  0  0  0  0  0  0  0  0  0
   -0.0416   -0.6903   -0.3853 C   0  0  1  0  0  0  0  0  0  0  0  0
    0.6833   -1.4367   -0.7278 H   0  0  0  0  0  0  0  0  0  0  0  0
    0.0050    0.4951   -1.3671 C   0  0  0  0  0  0  0  0  0  0  0  0
   -0.5406    1.3399   -0.9331 H   0  0  0  0  0  0  0  0  0  0  0  0
    1.0421    0.8169   -1.5114 H   0  0  0  0  0  0  0  0  0  0  0  0
   -0.6157    0.1505   -2.6980 C   0  0  0  0  0  0  0  0  0  0  0  0
    0.0158   -0.3837   -3.7988 N   0  0  0  0  0  0  0  0  0  0  0  0
    0.9947   -0.6597   -3.8592 H   0  0  0  0  0  0  0  0  0  0  0  0
   -0.9072   -0.4875   -4.8226 C   0  0  0  0  0  0  0  0  0  0  0  0
   -0.7022   -0.8908   -5.8104 H   0  0  0  0  0  0  0  0  0  0  0  0
   -2.0715   -0.0305   -4.4259 N   0  0  0  0  0  0  0  0  0  0  0  0
   -1.8962    0.3999   -3.1172 C   0  0  0  0  0  0  0  0  0  0  0  0
   -2.6689    0.8625   -2.5103 H   0  0  0  0  0  0  0  0  0  0  0  0
    0.4416   -0.2100    0.9991 C   0  0  0  0  0  0  0  0  0  0  0  0
    1.6422   -0.1831    1.2373 O   0  0  0  0  0  0  0  0  0  0  0  0
   -0.4264    0.4701    1.8348 N   0  0  0  0  0  0  0  0  0  0  0  0
   -1.4152    0.3303    1.6527 H   0  0  0  0  0  0  0  0  0  0  0  0
   -0.0247    0.9767    3.1412 C   0  0  0  0  0  0  0  0  0  0  0  0
    0.7988    1.6915    3.0395 H   0  0  0  0  0  0  0  0  0  0  0  0
   -0.8639    1.4863    3.6237 H   0  0  0  0  0  0  0  0  0  0  0  0
    0.3004    0.1536    3.7864 H   0  0  0  0  0  0  0  0  0  0  0  0
  1  2  1  0  0  0  0
  2  3  1  0  0  0  0
  2  4  1  0  0  0  0
  2  5  1  0  0  0  0
  5  6  2  0  0  0  0
  5  7  1  0  0  0  0
  7  8  1  0  0  0  0
  7  9  1  0  0  0  0
  9 10  1  0  0  0  0
  9 11  1  0  0  0  0
  9 22  1  0  0  0  0
 11 12  1  0  0  0  0
 11 13  1  0  0  0  0
 11 14  1  0  0  0  0
 14 15  1  0  0  0  0
 14 20  2  0  0  0  0
 15 16  1  0  0  0  0
 15 17  1  0  0  0  0
 17 18  1  0  0  0  0
 17 19  2  0  0  0  0
 19 20  1  0  0  0  0
 20 21  1  0  0  0  0
 22 23  2  0  0  0  0
 22 24  1  0  0  0  0
 24 25  1  0  0  0  0
 24 26  1  0  0  0  0
 26 27  1  0  0  0  0
 26 28  1  0  0  0  0
 26 29  1  0  0  0  0
M  END
$$$$

  -OEChem-03222214043D

 29 29  0     1  0  0  0  0  0999 V2000
   -3.0451   -4.1047    0.5901 H   0  0  0  0  0  0  0  0  0  0  0  0
   -2.9915   -3.1777    0.0122 C   0  0  0  0  0  0  0  0  0  0  0  0
   -3.8325   -2.5388    0.2918 H   0  0  0  0  0  0  0  0  0  0  0  0
   -3.0656   -3.4218   -1.0503 H   0  0  0  0  0  0  0  0  0  0  0  0
   -1.6828   -2.4635    0.2920 C   0  0  0  0  0  0  0  0  0  0  0  0
   -0.9209   -2.8990    1.1361 O   0  0  0  0  0  0  0  0  0  0  0  0
   -1.3653   -1.3191   -0.4110 N   0  0  0  0  0  0  0  0  0  0  0  0
   -1.9656   -1.1050   -1.2036 H   0  0  0  0  0  0  0  0  0  0  0  0
   -0.0356   -0.6768   -0.3884 C   0  0  1  0  0  0  0  0  0  0  0  0
    0.6901   -1.4192   -0.7374 H   0  0  0  0  0  0  0  0  0  0  0  0
    0.0001    0.5148   -1.3617 C   0  0  0  0  0  0  0  0  0  0  0  0
   -0.5440    1.3572   -0.9214 H   0  0  0  0  0  0  0  0  0  0  0  0
    1.0358    0.8383   -1.5126 H   0  0  0  0  0  0  0  0  0  0  0  0
   -0.6259    0.1657   -2.6888 C   0  0  0  0  0  0  0  0  0  0  0  0
   -0.0837   -0.6124   -3.6872 N   0  0  0  0  0  0  0  0  0  0  0  0
    0.8255   -1.0718   -3.6689 H   0  0  0  0  0  0  0  0  0  0  0  0
   -0.9819   -0.6611   -4.7369 C   0  0  0  0  0  0  0  0  0  0  0  0
   -0.8323   -1.2080   -5.6638 H   0  0  0  0  0  0  0  0  0  0  0  0
   -2.0480    0.0471   -4.4480 N   0  0  0  0  0  0  0  0  0  0  0  0
   -1.8290    0.5899   -3.1879 C   0  0  0  0  0  0  0  0  0  0  0  0
   -2.5208    1.2461   -2.6683 H   0  0  0  0  0  0  0  0  0  0  0  0
    0.4471   -0.2084    0.9999 C   0  0  0  0  0  0  0  0  0  0  0  0
    1.6474   -0.1883    1.2398 O   0  0  0  0  0  0  0  0  0  0  0  0
   -0.4199    0.4668    1.8404 N   0  0  0  0  0  0  0  0  0  0  0  0
   -1.4092    0.3345    1.6545 H   0  0  0  0  0  0  0  0  0  0  0  0
   -0.0179    0.9646    3.1502 C   0  0  0  0  0  0  0  0  0  0  0  0
    0.8076    1.6778    3.0539 H   0  0  0  0  0  0  0  0  0  0  0  0
   -0.8563    1.4739    3.6347 H   0  0  0  0  0  0  0  0  0  0  0  0
    0.3046    0.1372    3.7911 H   0  0  0  0  0  0  0  0  0  0  0  0
  1  2  1  0  0  0  0
  2  3  1  0  0  0  0
  2  4  1  0  0  0  0
  2  5  1  0  0  0  0
  5  6  2  0  0  0  0
  5  7  1  0  0  0  0
  7  8  1  0  0  0  0
  7  9  1  0  0  0  0
  9 10  1  0  0  0  0
  9 11  1  0  0  0  0
  9 22  1  0  0  0  0
 11 12  1  0  0  0  0
 11 13  1  0  0  0  0
 11 14  1  0  0  0  0
 14 15  1  0  0  0  0
 14 20  2  0  0  0  0
 15 16  1  0  0  0  0
 15 17  1  0  0  0  0
 17 18  1  0  0  0  0
 17 19  2  0  0  0  0
 19 20  1  0  0  0  0
 20 21  1  0  0  0  0
 22 23  2  0  0  0  0
 22 24  1  0  0  0  0
 24 25  1  0  0  0  0
 24 26  1  0  0  0  0
 26 27  1  0  0  0  0
 26 28  1  0  0  0  0
 26 29  1  0  0  0  0
M  END
$$$$

  -OEChem-03222214043D

 29 29  0     1  0  0  0  0  0999 V2000
   -3.0613   -4.0829    0.5899 H   0  0  0  0  0  0  0  0  0  0  0  0
   -3.0015   -3.1558    0.0126 C   0  0  0  0  0  0  0  0  0  0  0  0
   -3.8306   -2.5059    0.3024 H   0  0  0  0  0  0  0  0  0  0  0  0
   -3.0904   -3.3973   -1.0493 H   0  0  0  0  0  0  0  0  0  0  0  0
   -1.6804   -2.4597    0.2789 C   0  0  0  0  0  0  0  0  0  0  0  0
   -0.9081   -2.9152    1.1029 O   0  0  0  0  0  0  0  0  0  0  0  0
   -1.3598   -1.3122   -0.4175 N   0  0  0  0  0  0  0  0  0  0  0  0
   -1.9729   -1.0720   -1.1931 H   0  0  0  0  0  0  0  0  0  0  0  0
   -0.0313   -0.6686   -0.3911 C   0  0  1  0  0  0  0  0  0  0  0  0
    0.6966   -1.4082   -0.7414 H   0  0  0  0  0  0  0  0  0  0  0  0
   -0.0029    0.5247   -1.3622 C   0  0  0  0  0  0  0  0  0  0  0  0
   -0.5421    1.3693   -0.9200 H   0  0  0  0  0  0  0  0  0  0  0  0
    1.0340    0.8426   -1.5168 H   0  0  0  0  0  0  0  0  0  0  0  0
   -0.6291    0.1775   -2.6907 C   0  0  0  0  0  0  0  0  0  0  0  0
   -0.2318   -0.8058   -3.5702 N   0  0  0  0  0  0  0  0  0  0  0  0
    0.5658   -1.4300   -3.4587 H   0  0  0  0  0  0  0  0  0  0  0  0
   -1.0842   -0.7871   -4.6581 C   0  0  0  0  0  0  0  0  0  0  0  0
   -1.0179   -1.4499   -5.5165 H   0  0  0  0  0  0  0  0  0  0  0  0
   -1.9921    0.1463   -4.4998 N   0  0  0  0  0  0  0  0  0  0  0  0
   -1.7100    0.7687   -3.2895 C   0  0  0  0  0  0  0  0  0  0  0  0
   -2.2767    1.5960   -2.8725 H   0  0  0  0  0  0  0  0  0  0  0  0
    0.4487   -0.2056    1.0001 C   0  0  0  0  0  0  0  0  0  0  0  0
    1.6479   -0.1936    1.2454 O   0  0  0  0  0  0  0  0  0  0  0  0
   -0.4189    0.4653    1.8436 N   0  0  0  0  0  0  0  0  0  0  0  0
   -1.4082    0.3464    1.6495 H   0  0  0  0  0  0  0  0  0  0  0  0
   -0.0193    0.9529    3.1578 C   0  0  0  0  0  0  0  0  0  0  0  0
    0.8062    1.6670    3.0683 H   0  0  0  0  0  0  0  0  0  0  0  0
   -0.8584    1.4579    3.6455 H   0  0  0  0  0  0  0  0  0  0  0  0
    0.3026    0.1204    3.7923 H   0  0  0  0  0  0  0  0  0  0  0  0
  1  2  1  0  0  0  0
  2  3  1  0  0  0  0
  2  4  1  0  0  0  0
  2  5  1  0  0  0  0
  5  6  2  0  0  0  0
  5  7  1  0  0  0  0
  7  8  1  0  0  0  0
  7  9  1  0  0  0  0
  9 10  1  0  0  0  0
  9 11  1  0  0  0  0
  9 22  1  0  0  0  0
 11 12  1  0  0  0  0
 11 13  1  0  0  0  0
 11 14  1  0  0  0  0
 14 15  1  0  0  0  0
 14 20  2  0  0  0  0
 15 16  1  0  0  0  0
 15 17  1  0  0  0  0
 17 18  1  0  0  0  0
 17 19  2  0  0  0  0
 19 20  1  0  0  0  0
 20 21  1  0  0  0  0
 22 23  2  0  0  0  0
 22 24  1  0  0  0  0
 24 25  1  0  0  0  0
 24 26  1  0  0  0  0
 26 27  1  0  0  0  0
 26 28  1  0  0  0  0
 26 29  1  0  0  0  0
M  END
$$$$

  -OEChem-03222214043D

 29 29  0     1  0  0  0  0  0999 V2000
   -3.0746   -4.0647    0.6031 H   0  0  0  0  0  0  0  0  0  0  0  0
   -3.0104   -3.1367    0.0279 C   0  0  0  0  0  0  0  0  0  0  0  0
   -3.8228   -2.4743    0.3362 H   0  0  0  0  0  0  0  0  0  0  0  0
   -3.1237   -3.3724   -1.0329 H   0  0  0  0  0  0  0  0  0  0  0  0
   -1.6729   -2.4642    0.2710 C   0  0  0  0  0  0  0  0  0  0  0  0
   -0.8876   -2.9408    1.0699 O   0  0  0  0  0  0  0  0  0  0  0  0
   -1.3481   -1.3165   -0.4222 N   0  0  0  0  0  0  0  0  0  0  0  0
   -1.9792   -1.0444   -1.1726 H   0  0  0  0  0  0  0  0  0  0  0  0
   -0.0213   -0.6702   -0.3924 C   0  0  1  0  0  0  0  0  0  0  0  0
    0.7112   -1.4058   -0.7416 H   0  0  0  0  0  0  0  0  0  0  0  0
    0.0005    0.5234   -1.3633 C   0  0  0  0  0  0  0  0  0  0  0  0
   -0.5355    1.3696   -0.9200 H   0  0  0  0  0  0  0  0  0  0  0  0
    1.0388    0.8367   -1.5177 H   0  0  0  0  0  0  0  0  0  0  0  0
   -0.6224    0.1844   -2.6972 C   0  0  0  0  0  0  0  0  0  0  0  0
   -0.4214   -0.9482   -3.4573 N   0  0  0  0  0  0  0  0  0  0  0  0
    0.2259   -1.7074   -3.2497 H   0  0  0  0  0  0  0  0  0  0  0  0
   -1.2138   -0.8624   -4.5862 C   0  0  0  0  0  0  0  0  0  0  0  0
   -1.2609   -1.6068   -5.3761 H   0  0  0  0  0  0  0  0  0  0  0  0
   -1.9091    0.2492   -4.5613 N   0  0  0  0  0  0  0  0  0  0  0  0
   -1.5423    0.9178   -3.3988 C   0  0  0  0  0  0  0  0  0  0  0  0
   -1.9420    1.8775   -3.0849 H   0  0  0  0  0  0  0  0  0  0  0  0
    0.4516   -0.2072    1.0008 C   0  0  0  0  0  0  0  0  0  0  0  0
    1.6489   -0.1947    1.2538 O   0  0  0  0  0  0  0  0  0  0  0  0
   -0.4224    0.4608    1.8399 N   0  0  0  0  0  0  0  0  0  0  0  0
   -1.4103    0.3422    1.6391 H   0  0  0  0  0  0  0  0  0  0  0  0
   -0.0320    0.9493    3.1564 C   0  0  0  0  0  0  0  0  0  0  0  0
    0.7919    1.6658    3.0717 H   0  0  0  0  0  0  0  0  0  0  0  0
   -0.8757    1.4517    3.6390 H   0  0  0  0  0  0  0  0  0  0  0  0
    0.2884    0.1175    3.7926 H   0  0  0  0  0  0  0  0  0  0  0  0
  1  2  1  0  0  0  0
  2  3  1  0  0  0  0
  2  4  1  0  0  0  0
  2  5  1  0  0  0  0
  5  6  2  0  0  0  0
  5  7  1  0  0  0  0
  7  8  1  0  0  0  0
  7  9  1  0  0  0  0
  9 10  1  0  0  0  0
  9 11  1  0  0  0  0
  9 22  1  0  0  0  0
 11 12  1  0  0  0  0
 11 13  1  0  0  0  0
 11 14  1  0  0  0  0
 14 15  1  0  0  0  0
 14 20  2  0  0  0  0
 15 16  1  0  0  0  0
 15 17  1  0  0  0  0
 17 18  1  0  0  0  0
 17 19  2  0  0  0  0
 19 20  1  0  0  0  0
 20 21  1  0  0  0  0
 22 23  2  0  0  0  0
 22 24  1  0  0  0  0
 24 25  1  0  0  0  0
 24 26  1  0  0  0  0
 26 27  1  0  0  0  0
 26 28  1  0  0  0  0
 26 29  1  0  0  0  0
M  END
$$$$

  -OEChem-03222214043D

 29 29  0     1  0  0  0  0  0999 V2000
   -3.0801   -4.0608    0.6537 H   0  0  0  0  0  0  0  0  0  0  0  0
   -3.0172   -3.1359    0.0730 C   0  0  0  0  0  0  0  0  0  0  0  0
   -3.8103   -2.4599    0.4012 H   0  0  0  0  0  0  0  0  0  0  0  0
   -3.1641   -3.3739   -0.9831 H   0  0  0  0  0  0  0  0  0  0  0  0
   -1.6629   -2.4834    0.2762 C   0  0  0  0  0  0  0  0  0  0  0  0
   -0.8569   -2.9781    1.0426 O   0  0  0  0  0  0  0  0  0  0  0  0
   -1.3434   -1.3349   -0.4186 N   0  0  0  0  0  0  0  0  0  0  0  0
   -2.0036   -1.0260   -1.1287 H   0  0  0  0  0  0  0  0  0  0  0  0
   -0.0210   -0.6783   -0.3917 C   0  0  1  0  0  0  0  0  0  0  0  0
    0.7168   -1.4104   -0.7375 H   0  0  0  0  0  0  0  0  0  0  0  0
   -0.0023    0.5118   -1.3686 C   0  0  0  0  0  0  0  0  0  0  0  0
   -0.5371    1.3599   -0.9281 H   0  0  0  0  0  0  0  0  0  0  0  0
    1.0376    0.8227   -1.5176 H   0  0  0  0  0  0  0  0  0  0  0  0
   -0.6149    0.1861   -2.7124 C   0  0  0  0  0  0  0  0  0  0  0  0
   -0.6492   -1.0292   -3.3651 N   0  0  0  0  0  0  0  0  0  0  0  0
   -0.1902   -1.8873   -3.0626 H   0  0  0  0  0  0  0  0  0  0  0  0
   -1.3495   -0.8733   -4.5463 C   0  0  0  0  0  0  0  0  0  0  0  0
   -1.5272   -1.6568   -5.2777 H   0  0  0  0  0  0  0  0  0  0  0  0
   -1.7752    0.3619   -4.6534 N   0  0  0  0  0  0  0  0  0  0  0  0
   -1.3198    1.0349   -3.5250 C   0  0  0  0  0  0  0  0  0  0  0  0
   -1.5091    2.0832   -3.3128 H   0  0  0  0  0  0  0  0  0  0  0  0
    0.4473   -0.2093    1.0013 C   0  0  0  0  0  0  0  0  0  0  0  0
    1.6437   -0.1909    1.2580 O   0  0  0  0  0  0  0  0  0  0  0  0
   -0.4321    0.4533    1.8392 N   0  0  0  0  0  0  0  0  0  0  0  0
   -1.4193    0.3404    1.6318 H   0  0  0  0  0  0  0  0  0  0  0  0
   -0.0462    0.9529    3.1532 C   0  0  0  0  0  0  0  0  0  0  0  0
    0.7731    1.6742    3.0647 H   0  0  0  0  0  0  0  0  0  0  0  0
   -0.8939    1.4530    3.6313 H   0  0  0  0  0  0  0  0  0  0  0  0
    0.2791    0.1277    3.7956 H   0  0  0  0  0  0  0  0  0  0  0  0
  1  2  1  0  0  0  0
  2  3  1  0  0  0  0
  2  4  1  0  0  0  0
  2  5  1  0  0  0  0
  5  6  2  0  0  0  0
  5  7  1  0  0  0  0
  7  8  1  0  0  0  0
  7  9  1  0  0  0  0
  9 10  1  0  0  0  0
  9 11  1  0  0  0  0
  9 22  1  0  0  0  0
 11 12  1  0  0  0  0
 11 13  1  0  0  0  0
 11 14  1  0  0  0  0
 14 15  1  0  0  0  0
 14 20  2  0  0  0  0
 15 16  1  0  0  0  0
 15 17  1  0  0  0  0
 17 18  1  0  0  0  0
 17 19  2  0  0  0  0
 19 20  1  0  0  0  0
 20 21  1  0  0  0  0
 22 23  2  0  0  0  0
 22 24  1  0  0  0  0
 24 25  1  0  0  0  0
 24 26  1  0  0  0  0
 26 27  1  0  0  0  0
 26 28  1  0  0  0  0
 26 29  1  0  0  0  0
M  END
$$$$

  -OEChem-03222214043D

 29 29  0     1  0  0  0  0  0999 V2000
   -3.0778   -4.0545    0.7421 H   0  0  0  0  0  0  0  0  0  0  0  0
   -3.0203   -3.1362    0.1505 C   0  0  0  0  0  0  0  0  0  0  0  0
   -3.7838   -2.4405    0.5068 H   0  0  0  0  0  0  0  0  0  0  0  0
   -3.2181   -3.3797   -0.8960 H   0  0  0  0  0  0  0  0  0  0  0  0
   -1.6446   -2.5126    0.2893 C   0  0  0  0  0  0  0  0  0  0  0  0
   -0.8118   -3.0277    1.0118 O   0  0  0  0  0  0  0  0  0  0  0  0
   -1.3376   -1.3646   -0.4122 N   0  0  0  0  0  0  0  0  0  0  0  0
   -2.0397   -1.0081   -1.0566 H   0  0  0  0  0  0  0  0  0  0  0  0
   -0.0229   -0.6926   -0.3943 C   0  0  1  0  0  0  0  0  0  0  0  0
    0.7219   -1.4191   -0.7371 H   0  0  0  0  0  0  0  0  0  0  0  0
   -0.0105    0.4931   -1.3785 C   0  0  0  0  0  0  0  0  0  0  0  0
   -0.5527    1.3370   -0.9389 H   0  0  0  0  0  0  0  0  0  0  0  0
    1.0281    0.8121   -1.5197 H   0  0  0  0  0  0  0  0  0  0  0  0
   -0.6126    0.1841   -2.7330 C   0  0  0  0  0  0  0  0  0  0  0  0
   -0.9029   -1.0397   -3.3018 N   0  0  0  0  0  0  0  0  0  0  0  0
   -0.6532   -1.9510   -2.9205 H   0  0  0  0  0  0  0  0  0  0  0  0
   -1.4839   -0.8255   -4.5372 C   0  0  0  0  0  0  0  0  0  0  0  0
   -1.7998   -1.6050   -5.2249 H   0  0  0  0  0  0  0  0  0  0  0  0
   -1.6008    0.4609   -4.7582 N   0  0  0  0  0  0  0  0  0  0  0  0
   -1.0595    1.1010   -3.6485 C   0  0  0  0  0  0  0  0  0  0  0  0
   -1.0088    2.1783   -3.5217 H   0  0  0  0  0  0  0  0  0  0  0  0
    0.4397   -0.2122    0.9967 C   0  0  0  0  0  0  0  0  0  0  0  0
    1.6349   -0.1824    1.2568 O   0  0  0  0  0  0  0  0  0  0  0  0
   -0.4475    0.4431    1.8324 N   0  0  0  0  0  0  0  0  0  0  0  0
   -1.4335    0.3303    1.6206 H   0  0  0  0  0  0  0  0  0  0  0  0
   -0.0667    0.9555    3.1428 C   0  0  0  0  0  0  0  0  0  0  0  0
    0.7428    1.6871    3.0489 H   0  0  0  0  0  0  0  0  0  0  0  0
   -0.9199    1.4470    3.6198 H   0  0  0  0  0  0  0  0  0  0  0  0
    0.2705    0.1383    3.7891 H   0  0  0  0  0  0  0  0  0  0  0  0
  1  2  1  0  0  0  0
  2  3  1  0  0  0  0
  2  4  1  0  0  0  0
  2  5  1  0  0  0  0
  5  6  2  0  0  0  0
  5  7  1  0  0  0  0
  7  8  1  0  0  0  0
  7  9  1  0  0  0  0
  9 10  1  0  0  0  0
  9 11  1  0  0  0  0
  9 22  1  0  0  0  0
 11 12  1  0  0  0  0
 11 13  1  0  0  0  0
 11 14  1  0  0  0  0
 14 15  1  0  0  0  0
 14 20  2  0  0  0  0
 15 16  1  0  0  0  0
 15 17  1  0  0  0  0
 17 18  1  0  0  0  0
 17 19  2  0  0  0  0
 19 20  1  0  0  0  0
 20 21  1  0  0  0  0
 22 23  2  0  0  0  0
 22 24  1  0  0  0  0
 24 25  1  0  0  0  0
 24 26  1  0  0  0  0
 26 27  1  0  0  0  0
 26 28  1  0  0  0  0
 26 29  1  0  0  0  0
M  END
$$$$

  -OEChem-03222214043D

 29 29  0     1  0  0  0  0  0999 V2000
   -3.0583   -4.0543    0.8537 H   0  0  0  0  0  0  0  0  0  0  0  0
   -3.0187   -3.1444    0.2477 C   0  0  0  0  0  0  0  0  0  0  0  0
   -3.7481   -2.4307    0.6383 H   0  0  0  0  0  0  0  0  0  0  0  0
   -3.2805   -3.3973   -0.7825 H   0  0  0  0  0  0  0  0  0  0  0  0
   -1.6264   -2.5447    0.2994 C   0  0  0  0  0  0  0  0  0  0  0  0
   -0.7566   -3.0804    0.9605 O   0  0  0  0  0  0  0  0  0  0  0  0
   -1.3476   -1.3919   -0.4068 N   0  0  0  0  0  0  0  0  0  0  0  0
   -2.1024   -0.9764   -0.9473 H   0  0  0  0  0  0  0  0  0  0  0  0
   -0.0427   -0.7000   -0.4025 C   0  0  1  0  0  0  0  0  0  0  0  0
    0.7069   -1.4206   -0.7482 H   0  0  0  0  0  0  0  0  0  0  0  0
   -0.0349    0.4832   -1.3920 C   0  0  0  0  0  0  0  0  0  0  0  0
   -0.5926    1.3164   -0.9516 H   0  0  0  0  0  0  0  0  0  0  0  0
    1.0000    0.8194   -1.5213 H   0  0  0  0  0  0  0  0  0  0  0  0
   -0.6264    0.1916   -2.7564 C   0  0  0  0  0  0  0  0  0  0  0  0
   -1.1724   -0.9707   -3.2630 N   0  0  0  0  0  0  0  0  0  0  0  0
   -1.1489   -1.8846   -2.8136 H   0  0  0  0  0  0  0  0  0  0  0  0
   -1.6000   -0.7329   -4.5556 C   0  0  0  0  0  0  0  0  0  0  0  0
   -2.0495   -1.4719   -5.2127 H   0  0  0  0  0  0  0  0  0  0  0  0
   -1.3804    0.5182   -4.8756 N   0  0  0  0  0  0  0  0  0  0  0  0
   -0.7708    1.1027   -3.7708 C   0  0  0  0  0  0  0  0  0  0  0  0
   -0.4585    2.1416   -3.7182 H   0  0  0  0  0  0  0  0  0  0  0  0
    0.4249   -0.2135    0.9850 C   0  0  0  0  0  0  0  0  0  0  0  0
    1.6213   -0.1684    1.2363 O   0  0  0  0  0  0  0  0  0  0  0  0
   -0.4630    0.4281    1.8308 N   0  0  0  0  0  0  0  0  0  0  0  0
   -1.4497    0.3164    1.6232 H   0  0  0  0  0  0  0  0  0  0  0  0
   -0.0754    0.9498    3.1358 C   0  0  0  0  0  0  0  0  0  0  0  0
    0.7272    1.6875    3.0312 H   0  0  0  0  0  0  0  0  0  0  0  0
   -0.9286    1.4365    3.6176 H   0  0  0  0  0  0  0  0  0  0  0  0
    0.2741    0.1383    3.7830 H   0  0  0  0  0  0  0  0  0  0  0  0
  1  2  1  0  0  0  0
  2  3  1  0  0  0  0
  2  4  1  0  0  0  0
  2  5  1  0  0  0  0
  5  6  2  0  0  0  0
  5  7  1  0  0  0  0
  7  8  1  0  0  0  0
  7  9  1  0  0  0  0
  9 10  1  0  0  0  0
  9 11  1  0  0  0  0
  9 22  1  0  0  0  0
 11 12  1  0  0  0  0
 11 13  1  0  0  0  0
 11 14  1  0  0  0  0
 14 15  1  0  0  0  0
 14 20  2  0  0  0  0
 15 16  1  0  0  0  0
 15 17  1  0  0  0  0
 17 18  1  0  0  0  0
 17 19  2  0  0  0  0
 19 20  1  0  0  0  0
 20 21  1  0  0  0  0
 22 23  2  0  0  0  0
 22 24  1  0  0  0  0
 24 25  1  0  0  0  0
 24 26  1  0  0  0  0
 26 27  1  0  0  0  0
 26 28  1  0  0  0  0
 26 29  1  0  0  0  0
M  END
$$$$

  -OEChem-03222214043D

 29 29  0     1  0  0  0  0  0999 V2000
   -3.0359   -4.0426    0.9464 H   0  0  0  0  0  0  0  0  0  0  0  0
   -3.0144   -3.1412    0.3268 C   0  0  0  0  0  0  0  0  0  0  0  0
   -3.7114   -2.4116    0.7457 H   0  0  0  0  0  0  0  0  0  0  0  0
   -3.3333   -3.4032   -0.6847 H   0  0  0  0  0  0  0  0  0  0  0  0
   -1.6119   -2.5641    0.2972 C   0  0  0  0  0  0  0  0  0  0  0  0
   -0.7133   -3.1185    0.9014 O   0  0  0  0  0  0  0  0  0  0  0  0
   -1.3603   -1.4052   -0.4101 N   0  0  0  0  0  0  0  0  0  0  0  0
   -2.1539   -0.9375   -0.8394 H   0  0  0  0  0  0  0  0  0  0  0  0
   -0.0619   -0.7004   -0.4160 C   0  0  1  0  0  0  0  0  0  0  0  0
    0.6889   -1.4172   -0.7672 H   0  0  0  0  0  0  0  0  0  0  0  0
   -0.0550    0.4837   -1.4052 C   0  0  0  0  0  0  0  0  0  0  0  0
   -0.6254    1.3064   -0.9617 H   0  0  0  0  0  0  0  0  0  0  0  0
    0.9764    0.8341   -1.5239 H   0  0  0  0  0  0  0  0  0  0  0  0
   -0.6407    0.2074   -2.7758 C   0  0  0  0  0  0  0  0  0  0  0  0
   -1.4258   -0.8312   -3.2345 N   0  0  0  0  0  0  0  0  0  0  0  0
   -1.6209   -1.6943   -2.7317 H   0  0  0  0  0  0  0  0  0  0  0  0
   -1.7099   -0.6156   -4.5698 C   0  0  0  0  0  0  0  0  0  0  0  0
   -2.2880   -1.2834   -5.2022 H   0  0  0  0  0  0  0  0  0  0  0  0
   -1.1730    0.5110   -4.9663 N   0  0  0  0  0  0  0  0  0  0  0  0
   -0.5003    1.0287   -3.8652 C   0  0  0  0  0  0  0  0  0  0  0  0
    0.0563    1.9612   -3.8677 H   0  0  0  0  0  0  0  0  0  0  0  0
    0.4135   -0.2160    0.9696 C   0  0  0  0  0  0  0  0  0  0  0  0
    1.6111   -0.1620    1.2127 O   0  0  0  0  0  0  0  0  0  0  0  0
   -0.4727    0.4127    1.8271 N   0  0  0  0  0  0  0  0  0  0  0  0
   -1.4604    0.3009    1.6256 H   0  0  0  0  0  0  0  0  0  0  0  0
   -0.0775    0.9339    3.1300 C   0  0  0  0  0  0  0  0  0  0  0  0
    0.7143    1.6826    3.0200 H   0  0  0  0  0  0  0  0  0  0  0  0
   -0.9317    1.4073    3.6237 H   0  0  0  0  0  0  0  0  0  0  0  0
    0.2896    0.1242    3.7695 H   0  0  0  0  0  0  0  0  0  0  0  0
  1  2  1  0  0  0  0
  2  3  1  0  0  0  0
  2  4  1  0  0  0  0
  2  5  1  0  0  0  0
  5  6  2  0  0  0  0
  5  7  1  0  0  0  0
  7  8  1  0  0  0  0
  7  9  1  0  0  0  0
  9 10  1  0  0  0  0
  9 11  1  0  0  0  0
  9 22  1  0  0  0  0
 11 12  1  0  0  0  0
 11 13  1  0  0  0  0
 11 14  1  0  0  0  0
 14 15  1  0  0  0  0
 14 20  2  0  0  0  0
 15 16  1  0  0  0  0
 15 17  1  0  0  0  0
 17 18  1  0  0  0  0
 17 19  2  0  0  0  0
 19 20  1  0  0  0  0
 20 21  1  0  0  0  0
 22 23  2  0  0  0  0
 22 24  1  0  0  0  0
 24 25  1  0  0  0  0
 24 26  1  0  0  0  0
 26 27  1  0  0  0  0
 26 28  1  0  0  0  0
 26 29  1  0  0  0  0
M  END
$$$$

  -OEChem-03222214043D

 29 29  0     1  0  0  0  0  0999 V2000
   -3.0140   -4.0339    0.9958 H   0  0  0  0  0  0  0  0  0  0  0  0
   -3.0099   -3.1368    0.3699 C   0  0  0  0  0  0  0  0  0  0  0  0
   -3.6858   -2.3998    0.8099 H   0  0  0  0  0  0  0  0  0  0  0  0
   -3.3686   -3.4037   -0.6269 H   0  0  0  0  0  0  0  0  0  0  0  0
   -1.6049   -2.5707    0.2829 C   0  0  0  0  0  0  0  0  0  0  0  0
   -0.6865   -3.1397    0.8421 O   0  0  0  0  0  0  0  0  0  0  0  0
   -1.3762   -1.4026   -0.4182 N   0  0  0  0  0  0  0  0  0  0  0  0
   -2.1916   -0.8964   -0.7486 H   0  0  0  0  0  0  0  0  0  0  0  0
   -0.0810   -0.6920   -0.4286 C   0  0  1  0  0  0  0  0  0  0  0  0
    0.6673   -1.4080   -0.7873 H   0  0  0  0  0  0  0  0  0  0  0  0
   -0.0684    0.4949   -1.4141 C   0  0  0  0  0  0  0  0  0  0  0  0
   -0.6426    1.3137   -0.9686 H   0  0  0  0  0  0  0  0  0  0  0  0
    0.9635    0.8476   -1.5236 H   0  0  0  0  0  0  0  0  0  0  0  0
   -0.6505    0.2288   -2.7890 C   0  0  0  0  0  0  0  0  0  0  0  0
   -1.6433   -0.6316   -3.2137 N   0  0  0  0  0  0  0  0  0  0  0  0
   -2.0618   -1.3764   -2.6635 H   0  0  0  0  0  0  0  0  0  0  0  0
   -1.8053   -0.4816   -4.5782 C   0  0  0  0  0  0  0  0  0  0  0  0
   -2.5000   -1.0483   -5.1916 H   0  0  0  0  0  0  0  0  0  0  0  0
   -0.9909    0.4385   -5.0294 N   0  0  0  0  0  0  0  0  0  0  0  0
   -0.2639    0.8830   -3.9312 C   0  0  0  0  0  0  0  0  0  0  0  0
    0.5040    1.6500   -3.9728 H   0  0  0  0  0  0  0  0  0  0  0  0
    0.4052   -0.2203    0.9580 C   0  0  0  0  0  0  0  0  0  0  0  0
    1.6045   -0.1582    1.1893 O   0  0  0  0  0  0  0  0  0  0  0  0
   -0.4759    0.3953    1.8306 N   0  0  0  0  0  0  0  0  0  0  0  0
   -1.4651    0.2845    1.6375 H   0  0  0  0  0  0  0  0  0  0  0  0
   -0.0688    0.9145    3.1306 C   0  0  0  0  0  0  0  0  0  0  0  0
    0.7129    1.6725    3.0138 H   0  0  0  0  0  0  0  0  0  0  0  0
   -0.9213    1.3757    3.6381 H   0  0  0  0  0  0  0  0  0  0  0  0
    0.3162    0.1061    3.7612 H   0  0  0  0  0  0  0  0  0  0  0  0
  1  2  1  0  0  0  0
  2  3  1  0  0  0  0
  2  4  1  0  0  0  0
  2  5  1  0  0  0  0
  5  6  2  0  0  0  0
  5  7  1  0  0  0  0
  7  8  1  0  0  0  0
  7  9  1  0  0  0  0
  9 10  1  0  0  0  0
  9 11  1  0  0  0  0
  9 22  1  0  0  0  0
 11 12  1  0  0  0  0
 11 13  1  0  0  0  0
 11 14  1  0  0  0  0
 14 15  1  0  0  0  0
 14 20  2  0  0  0  0
 15 16  1  0  0  0  0
 15 17  1  0  0  0  0
 17 18  1  0  0  0  0
 17 19  2  0  0  0  0
 19 20  1  0  0  0  0
 20 21  1  0  0  0  0
 22 23  2  0  0  0  0
 22 24  1  0  0  0  0
 24 25  1  0  0  0  0
 24 26  1  0  0  0  0
 26 27  1  0  0  0  0
 26 28  1  0  0  0  0
 26 29  1  0  0  0  0
M  END
$$$$

  -OEChem-03222214043D

 29 29  0     1  0  0  0  0  0999 V2000
   -3.0074   -4.0511    0.9656 H   0  0  0  0  0  0  0  0  0  0  0  0
   -3.0085   -3.1458    0.3514 C   0  0  0  0  0  0  0  0  0  0  0  0
   -3.6944   -2.4213    0.7965 H   0  0  0  0  0  0  0  0  0  0  0  0
   -3.3574   -3.4039   -0.6513 H   0  0  0  0  0  0  0  0  0  0  0  0
   -1.6088   -2.5650    0.2799 C   0  0  0  0  0  0  0  0  0  0  0  0
   -0.6912   -3.1242    0.8507 O   0  0  0  0  0  0  0  0  0  0  0  0
   -1.3868   -1.3913   -0.4140 N   0  0  0  0  0  0  0  0  0  0  0  0
   -2.2032   -0.8935   -0.7477 H   0  0  0  0  0  0  0  0  0  0  0  0
   -0.0933   -0.6803   -0.4307 C   0  0  1  0  0  0  0  0  0  0  0  0
    0.6496   -1.3980   -0.7975 H   0  0  0  0  0  0  0  0  0  0  0  0
   -0.0748    0.5095   -1.4115 C   0  0  0  0  0  0  0  0  0  0  0  0
   -0.6410    1.3326   -0.9637 H   0  0  0  0  0  0  0  0  0  0  0  0
    0.9603    0.8538   -1.5188 H   0  0  0  0  0  0  0  0  0  0  0  0
   -0.6603    0.2501   -2.7870 C   0  0  0  0  0  0  0  0  0  0  0  0
   -1.8172   -0.3856   -3.1961 N   0  0  0  0  0  0  0  0  0  0  0  0
   -2.4743   -0.8870   -2.6081 H   0  0  0  0  0  0  0  0  0  0  0  0
   -1.8849   -0.3378   -4.5763 C   0  0  0  0  0  0  0  0  0  0  0  0
   -2.6791   -0.7687   -5.1794 H   0  0  0  0  0  0  0  0  0  0  0  0
   -0.8483    0.3003   -5.0563 N   0  0  0  0  0  0  0  0  0  0  0  0
   -0.0786    0.6659   -3.9584 C   0  0  0  0  0  0  0  0  0  0  0  0
    0.8576    1.2126   -4.0222 H   0  0  0  0  0  0  0  0  0  0  0  0
    0.4078   -0.2174    0.9538 C   0  0  0  0  0  0  0  0  0  0  0  0
    1.6099   -0.1501    1.1703 O   0  0  0  0  0  0  0  0  0  0  0  0
   -0.4643    0.3920    1.8396 N   0  0  0  0  0  0  0  0  0  0  0  0
   -1.4550    0.2710    1.6617 H   0  0  0  0  0  0  0  0  0  0  0  0
   -0.0432    0.9040    3.1384 C   0  0  0  0  0  0  0  0  0  0  0  0
    0.7254    1.6749    3.0170 H   0  0  0  0  0  0  0  0  0  0  0  0
   -0.8939    1.3470    3.6647 H   0  0  0  0  0  0  0  0  0  0  0  0
    0.3638    0.0949    3.7540 H   0  0  0  0  0  0  0  0  0  0  0  0
  1  2  1  0  0  0  0
  2  3  1  0  0  0  0
  2  4  1  0  0  0  0
  2  5  1  0  0  0  0
  5  6  2  0  0  0  0
  5  7  1  0  0  0  0
  7  8  1  0  0  0  0
  7  9  1  0  0  0  0
  9 10  1  0  0  0  0
  9 11  1  0  0  0  0
  9 22  1  0  0  0  0
 11 12  1  0  0  0  0
 11 13  1  0  0  0  0
 11 14  1  0  0  0  0
 14 15  1  0  0  0  0
 14 20  2  0  0  0  0
 15 16  1  0  0  0  0
 15 17  1  0  0  0  0
 17 18  1  0  0  0  0
 17 19  2  0  0  0  0
 19 20  1  0  0  0  0
 20 21  1  0  0  0  0
 22 23  2  0  0  0  0
 22 24  1  0  0  0  0
 24 25  1  0  0  0  0
 24 26  1  0  0  0  0
 26 27  1  0  0  0  0
 26 28  1  0  0  0  0
 26 29  1  0  0  0  0
M  END
$$$$

  -OEChem-03222214043D

 29 29  0     1  0  0  0  0  0999 V2000
   -3.0066   -4.1407    0.6878 H   0  0  0  0  0  0  0  0  0  0  0  0
   -2.9539   -3.2586    0.0428 C   0  0  0  0  0  0  0  0  0  0  0  0
   -3.8479   -2.6516    0.2043 H   0  0  0  0  0  0  0  0  0  0  0  0
   -2.9254   -3.5880   -0.9986 H   0  0  0  0  0  0  0  0  0  0  0  0
   -1.7110   -2.4511    0.3666 C   0  0  0  0  0  0  0  0  0  0  0  0
   -0.9857   -2.8015    1.2788 O   0  0  0  0  0  0  0  0  0  0  0  0
   -1.4258   -1.3147   -0.3657 N   0  0  0  0  0  0  0  0  0  0  0  0
   -1.9558   -1.2289   -1.2255 H   0  0  0  0  0  0  0  0  0  0  0  0
   -0.0923   -0.6843   -0.3871 C   0  0  1  0  0  0  0  0  0  0  0  0
    0.6159   -1.4376   -0.7501 H   0  0  0  0  0  0  0  0  0  0  0  0
   -0.0357    0.5185   -1.3533 C   0  0  0  0  0  0  0  0  0  0  0  0
   -0.5377    1.3736   -0.8886 H   0  0  0  0  0  0  0  0  0  0  0  0
    1.0142    0.8002   -1.4942 H   0  0  0  0  0  0  0  0  0  0  0  0
   -0.6764    0.2847   -2.7055 C   0  0  0  0  0  0  0  0  0  0  0  0
   -1.9816   -0.0402   -3.0255 N   0  0  0  0  0  0  0  0  0  0  0  0
   -2.7849    0.0200   -2.4040 H   0  0  0  0  0  0  0  0  0  0  0  0
   -2.0700   -0.1810   -4.3989 C   0  0  0  0  0  0  0  0  0  0  0  0
   -2.9809   -0.4045   -4.9473 H   0  0  0  0  0  0  0  0  0  0  0  0
   -0.8970    0.0070   -4.9485 N   0  0  0  0  0  0  0  0  0  0  0  0
   -0.0205    0.2981   -3.9097 C   0  0  0  0  0  0  0  0  0  0  0  0
    1.0392    0.5004   -4.0356 H   0  0  0  0  0  0  0  0  0  0  0  0
    0.4297   -0.2081    0.9863 C   0  0  0  0  0  0  0  0  0  0  0  0
    1.6361   -0.1889    1.1929 O   0  0  0  0  0  0  0  0  0  0  0  0
   -0.4100    0.4808    1.8435 N   0  0  0  0  0  0  0  0  0  0  0  0
   -1.4033    0.3293    1.6994 H   0  0  0  0  0  0  0  0  0  0  0  0
    0.0342    0.9847    3.1372 C   0  0  0  0  0  0  0  0  0  0  0  0
    0.8604    1.6923    3.0103 H   0  0  0  0  0  0  0  0  0  0  0  0
   -0.7861    1.5020    3.6436 H   0  0  0  0  0  0  0  0  0  0  0  0
    0.3714    0.1596    3.7734 H   0  0  0  0  0  0  0  0  0  0  0  0
  1  2  1  0  0  0  0
  2  3  1  0  0  0  0
  2  4  1  0  0  0  0
  2  5  1  0  0  0  0
  5  6  2  0  0  0  0
  5  7  1  0  0  0  0
  7  8  1  0  0  0  0
  7  9  1  0  0  0  0
  9 10  1  0  0  0  0
  9 11  1  0  0  0  0
  9 22  1  0  0  0  0
 11 12  1  0  0  0  0
 11 13  1  0  0  0  0
 11 14  1  0  0  0  0
 14 15  1  0  0  0  0
 14 20  2  0  0  0  0
 15 16  1  0  0  0  0
 15 17  1  0  0  0  0
 17 18  1  0  0  0  0
 17 19  2  0  0  0  0
 19 20  1  0  0  0  0
 20 21  1  0  0  0  0
 22 23  2  0  0  0  0
 22 24  1  0  0  0  0
 24 25  1  0  0  0  0
 24 26  1  0  0  0  0
 26 27  1  0  0  0  0
 26 28  1  0  0  0  0
 26 29  1  0  0  0  0
M  END
$$$$

  -OEChem-03222214043D

 29 29  0     1  0  0  0  0  0999 V2000
   -3.0040   -4.1325    0.5653 H   0  0  0  0  0  0  0  0  0  0  0  0
   -2.9641   -3.2127   -0.0255 C   0  0  0  0  0  0  0  0  0  0  0  0
   -3.8523   -2.6154    0.1929 H   0  0  0  0  0  0  0  0  0  0  0  0
   -2.9608   -3.4782   -1.0856 H   0  0  0  0  0  0  0  0  0  0  0  0
   -1.7124   -2.4272    0.3184 C   0  0  0  0  0  0  0  0  0  0  0  0
   -0.9976   -2.8005    1.2303 O   0  0  0  0  0  0  0  0  0  0  0  0
   -1.4042   -1.2861   -0.3968 N   0  0  0  0  0  0  0  0  0  0  0  0
   -1.9354   -1.1652   -1.2539 H   0  0  0  0  0  0  0  0  0  0  0  0
   -0.0662   -0.6637   -0.3903 C   0  0  1  0  0  0  0  0  0  0  0  0
    0.6440   -1.4162   -0.7509 H   0  0  0  0  0  0  0  0  0  0  0  0
   -0.0077    0.5407   -1.3506 C   0  0  0  0  0  0  0  0  0  0  0  0
   -0.5100    1.4009   -0.8962 H   0  0  0  0  0  0  0  0  0  0  0  0
    1.0425    0.8188   -1.4951 H   0  0  0  0  0  0  0  0  0  0  0  0
   -0.6448    0.2682   -2.6938 C   0  0  0  0  0  0  0  0  0  0  0  0
   -1.9874    0.1934   -3.0096 N   0  0  0  0  0  0  0  0  0  0  0  0
   -2.7641    0.4531   -2.4047 H   0  0  0  0  0  0  0  0  0  0  0  0
   -2.0993   -0.0761   -4.3618 C   0  0  0  0  0  0  0  0  0  0  0  0
   -3.0348   -0.1679   -4.9068 H   0  0  0  0  0  0  0  0  0  0  0  0
   -0.9099   -0.1981   -4.8965 N   0  0  0  0  0  0  0  0  0  0  0  0
    0.0067    0.0206   -3.8738 C   0  0  0  0  0  0  0  0  0  0  0  0
    1.0859   -0.0063   -3.9937 H   0  0  0  0  0  0  0  0  0  0  0  0
    0.4401   -0.2019    0.9931 C   0  0  0  0  0  0  0  0  0  0  0  0
    1.6434   -0.1942    1.2175 O   0  0  0  0  0  0  0  0  0  0  0  0
   -0.4069    0.4860    1.8438 N   0  0  0  0  0  0  0  0  0  0  0  0
   -1.3989    0.3456    1.6811 H   0  0  0  0  0  0  0  0  0  0  0  0
    0.0194    0.9662    3.1524 C   0  0  0  0  0  0  0  0  0  0  0  0
    0.8534    1.6687    3.0507 H   0  0  0  0  0  0  0  0  0  0  0  0
   -0.8054    1.4824    3.6529 H   0  0  0  0  0  0  0  0  0  0  0  0
    0.3390    0.1282    3.7809 H   0  0  0  0  0  0  0  0  0  0  0  0
  1  2  1  0  0  0  0
  2  3  1  0  0  0  0
  2  4  1  0  0  0  0
  2  5  1  0  0  0  0
  5  6  2  0  0  0  0
  5  7  1  0  0  0  0
  7  8  1  0  0  0  0
  7  9  1  0  0  0  0
  9 10  1  0  0  0  0
  9 11  1  0  0  0  0
  9 22  1  0  0  0  0
 11 12  1  0  0  0  0
 11 13  1  0  0  0  0
 11 14  1  0  0  0  0
 14 15  1  0  0  0  0
 14 20  2  0  0  0  0
 15 16  1  0  0  0  0
 15 17  1  0  0  0  0
 17 18  1  0  0  0  0
 17 19  2  0  0  0  0
 19 20  1  0  0  0  0
 20 21  1  0  0  0  0
 22 23  2  0  0  0  0
 22 24  1  0  0  0  0
 24 25  1  0  0  0  0
 24 26  1  0  0  0  0
 26 27  1  0  0  0  0
 26 28  1  0  0  0  0
 26 29  1  0  0  0  0
M  END
$$$$

  -OEChem-03222214043D

 29 29  0     1  0  0  0  0  0999 V2000
   -3.0306   -4.0998    0.5076 H   0  0  0  0  0  0  0  0  0  0  0  0
   -2.9733   -3.1752   -0.0742 C   0  0  0  0  0  0  0  0  0  0  0  0
   -3.8513   -2.5641    0.1476 H   0  0  0  0  0  0  0  0  0  0  0  0
   -2.9718   -3.4297   -1.1369 H   0  0  0  0  0  0  0  0  0  0  0  0
   -1.7091   -2.4151    0.2795 C   0  0  0  0  0  0  0  0  0  0  0  0
   -0.9996   -2.8098    1.1867 O   0  0  0  0  0  0  0  0  0  0  0  0
   -1.3824   -1.2704   -0.4202 N   0  0  0  0  0  0  0  0  0  0  0  0
   -1.9217   -1.1135   -1.2675 H   0  0  0  0  0  0  0  0  0  0  0  0
   -0.0426   -0.6519   -0.3921 C   0  0  1  0  0  0  0  0  0  0  0  0
    0.6715   -1.4009   -0.7520 H   0  0  0  0  0  0  0  0  0  0  0  0
    0.0101    0.5548   -1.3470 C   0  0  0  0  0  0  0  0  0  0  0  0
   -0.4979    1.4138   -0.8966 H   0  0  0  0  0  0  0  0  0  0  0  0
    1.0584    0.8376   -1.4958 H   0  0  0  0  0  0  0  0  0  0  0  0
   -0.6249    0.2540   -2.6833 C   0  0  0  0  0  0  0  0  0  0  0  0
   -1.9432    0.4305   -3.0497 N   0  0  0  0  0  0  0  0  0  0  0  0
   -2.6681    0.8855   -2.4977 H   0  0  0  0  0  0  0  0  0  0  0  0
   -2.0822    0.0353   -4.3678 C   0  0  0  0  0  0  0  0  0  0  0  0
   -3.0051    0.0751   -4.9395 H   0  0  0  0  0  0  0  0  0  0  0  0
   -0.9345   -0.3938   -4.8317 N   0  0  0  0  0  0  0  0  0  0  0  0
   -0.0130   -0.2530   -3.7995 C   0  0  0  0  0  0  0  0  0  0  0  0
    1.0393   -0.5130   -3.8677 H   0  0  0  0  0  0  0  0  0  0  0  0
    0.4497   -0.2007    0.9995 C   0  0  0  0  0  0  0  0  0  0  0  0
    1.6506   -0.1965    1.2364 O   0  0  0  0  0  0  0  0  0  0  0  0
   -0.4048    0.4844    1.8452 N   0  0  0  0  0  0  0  0  0  0  0  0
   -1.3953    0.3434    1.6739 H   0  0  0  0  0  0  0  0  0  0  0  0
    0.0102    0.9594    3.1595 C   0  0  0  0  0  0  0  0  0  0  0  0
    0.8452    1.6621    3.0684 H   0  0  0  0  0  0  0  0  0  0  0  0
   -0.8188    1.4736    3.6552 H   0  0  0  0  0  0  0  0  0  0  0  0
    0.3247    0.1190    3.7875 H   0  0  0  0  0  0  0  0  0  0  0  0
  1  2  1  0  0  0  0
  2  3  1  0  0  0  0
  2  4  1  0  0  0  0
  2  5  1  0  0  0  0
  5  6  2  0  0  0  0
  5  7  1  0  0  0  0
  7  8  1  0  0  0  0
  7  9  1  0  0  0  0
  9 10  1  0  0  0  0
  9 11  1  0  0  0  0
  9 22  1  0  0  0  0
 11 12  1  0  0  0  0
 11 13  1  0  0  0  0
 11 14  1  0  0  0  0
 14 15  1  0  0  0  0
 14 20  2  0  0  0  0
 15 16  1  0  0  0  0
 15 17  1  0  0  0  0
 17 18  1  0  0  0  0
 17 19  2  0  0  0  0
 19 20  1  0  0  0  0
 20 21  1  0  0  0  0
 22 23  2  0  0  0  0
 22 24  1  0  0  0  0
 24 25  1  0  0  0  0
 24 26  1  0  0  0  0
 26 27  1  0  0  0  0
 26 28  1  0  0  0  0
 26 29  1  0  0  0  0
M  END
$$$$

  -OEChem-03222214043D

 29 29  0     1  0  0  0  0  0999 V2000
   -3.0426   -4.0780    0.4789 H   0  0  0  0  0  0  0  0  0  0  0  0
   -2.9763   -3.1496   -0.0956 C   0  0  0  0  0  0  0  0  0  0  0  0
   -3.8430   -2.5272    0.1385 H   0  0  0  0  0  0  0  0  0  0  0  0
   -2.9875   -3.3952   -1.1604 H   0  0  0  0  0  0  0  0  0  0  0  0
   -1.6981   -2.4113    0.2537 C   0  0  0  0  0  0  0  0  0  0  0  0
   -0.9841   -2.8251    1.1490 O   0  0  0  0  0  0  0  0  0  0  0  0
   -1.3633   -1.2633   -0.4358 N   0  0  0  0  0  0  0  0  0  0  0  0
   -1.9182   -1.0748   -1.2670 H   0  0  0  0  0  0  0  0  0  0  0  0
   -0.0245   -0.6429   -0.3958 C   0  0  1  0  0  0  0  0  0  0  0  0
    0.6942   -1.3884   -0.7538 H   0  0  0  0  0  0  0  0  0  0  0  0
    0.0230    0.5655   -1.3475 C   0  0  0  0  0  0  0  0  0  0  0  0
   -0.4947    1.4186   -0.8970 H   0  0  0  0  0  0  0  0  0  0  0  0
    1.0682    0.8590   -1.4964 H   0  0  0  0  0  0  0  0  0  0  0  0
   -0.6078    0.2526   -2.6822 C   0  0  0  0  0  0  0  0  0  0  0  0
   -1.8378    0.6676   -3.1456 N   0  0  0  0  0  0  0  0  0  0  0  0
   -2.4729    1.3136   -2.6804 H   0  0  0  0  0  0  0  0  0  0  0  0
   -2.0209    0.1479   -4.4138 C   0  0  0  0  0  0  0  0  0  0  0  0
   -2.8941    0.3136   -5.0384 H   0  0  0  0  0  0  0  0  0  0  0  0
   -0.9852   -0.5792   -4.7545 N   0  0  0  0  0  0  0  0  0  0  0  0
   -0.0890   -0.5136   -3.6928 C   0  0  0  0  0  0  0  0  0  0  0  0
    0.8779   -1.0078   -3.6654 H   0  0  0  0  0  0  0  0  0  0  0  0
    0.4570   -0.1982    1.0011 C   0  0  0  0  0  0  0  0  0  0  0  0
    1.6561   -0.1926    1.2470 O   0  0  0  0  0  0  0  0  0  0  0  0
   -0.4053    0.4810    1.8436 N   0  0  0  0  0  0  0  0  0  0  0  0
   -1.3944    0.3411    1.6631 H   0  0  0  0  0  0  0  0  0  0  0  0
   -0.0011    0.9491    3.1635 C   0  0  0  0  0  0  0  0  0  0  0  0
    0.8333    1.6537    3.0817 H   0  0  0  0  0  0  0  0  0  0  0  0
   -0.8345    1.4591    3.6559 H   0  0  0  0  0  0  0  0  0  0  0  0
    0.3097    0.1056    3.7890 H   0  0  0  0  0  0  0  0  0  0  0  0
  1  2  1  0  0  0  0
  2  3  1  0  0  0  0
  2  4  1  0  0  0  0
  2  5  1  0  0  0  0
  5  6  2  0  0  0  0
  5  7  1  0  0  0  0
  7  8  1  0  0  0  0
  7  9  1  0  0  0  0
  9 10  1  0  0  0  0
  9 11  1  0  0  0  0
  9 22  1  0  0  0  0
 11 12  1  0  0  0  0
 11 13  1  0  0  0  0
 11 14  1  0  0  0  0
 14 15  1  0  0  0  0
 14 20  2  0  0  0  0
 15 16  1  0  0  0  0
 15 17  1  0  0  0  0
 17 18  1  0  0  0  0
 17 19  2  0  0  0  0
 19 20  1  0  0  0  0
 20 21  1  0  0  0  0
 22 23  2  0  0  0  0
 22 24  1  0  0  0  0
 24 25  1  0  0  0  0
 24 26  1  0  0  0  0
 26 27  1  0  0  0  0
 26 28  1  0  0  0  0
 26 29  1  0  0  0  0
M  END
$$$$

  -OEChem-03222214043D

 29 29  0     1  0  0  0  0  0999 V2000
   -3.0471   -4.0691    0.4724 H   0  0  0  0  0  0  0  0  0  0  0  0
   -2.9726   -3.1424   -0.1038 C   0  0  0  0  0  0  0  0  0  0  0  0
   -3.8319   -2.5103    0.1317 H   0  0  0  0  0  0  0  0  0  0  0  0
   -2.9897   -3.3889   -1.1683 H   0  0  0  0  0  0  0  0  0  0  0  0
   -1.6857   -2.4168    0.2395 C   0  0  0  0  0  0  0  0  0  0  0  0
   -0.9638   -2.8450    1.1217 O   0  0  0  0  0  0  0  0  0  0  0  0
   -1.3471   -1.2673   -0.4454 N   0  0  0  0  0  0  0  0  0  0  0  0
   -1.9170   -1.0554   -1.2614 H   0  0  0  0  0  0  0  0  0  0  0  0
   -0.0100   -0.6426   -0.3972 C   0  0  1  0  0  0  0  0  0  0  0  0
    0.7139   -1.3855   -0.7497 H   0  0  0  0  0  0  0  0  0  0  0  0
    0.0380    0.5654   -1.3495 C   0  0  0  0  0  0  0  0  0  0  0  0
   -0.4951    1.4076   -0.8966 H   0  0  0  0  0  0  0  0  0  0  0  0
    1.0795    0.8746   -1.4909 H   0  0  0  0  0  0  0  0  0  0  0  0
   -0.5830    0.2545   -2.6900 C   0  0  0  0  0  0  0  0  0  0  0  0
   -1.6608    0.8812   -3.2771 N   0  0  0  0  0  0  0  0  0  0  0  0
   -2.1514    1.7000   -2.9222 H   0  0  0  0  0  0  0  0  0  0  0  0
   -1.9233    0.2573   -4.4827 C   0  0  0  0  0  0  0  0  0  0  0  0
   -2.7114    0.5393   -5.1756 H   0  0  0  0  0  0  0  0  0  0  0  0
   -1.0839   -0.7325   -4.6669 N   0  0  0  0  0  0  0  0  0  0  0  0
   -0.2337   -0.7402   -3.5664 C   0  0  0  0  0  0  0  0  0  0  0  0
    0.5781   -1.4458   -3.4148 H   0  0  0  0  0  0  0  0  0  0  0  0
    0.4607   -0.1983    1.0035 C   0  0  0  0  0  0  0  0  0  0  0  0
    1.6580   -0.1887    1.2576 O   0  0  0  0  0  0  0  0  0  0  0  0
   -0.4095    0.4771    1.8410 N   0  0  0  0  0  0  0  0  0  0  0  0
   -1.3971    0.3379    1.6517 H   0  0  0  0  0  0  0  0  0  0  0  0
   -0.0158    0.9485    3.1630 C   0  0  0  0  0  0  0  0  0  0  0  0
    0.8159    1.6568    3.0864 H   0  0  0  0  0  0  0  0  0  0  0  0
   -0.8545    1.4552    3.6496 H   0  0  0  0  0  0  0  0  0  0  0  0
    0.2952    0.1073    3.7915 H   0  0  0  0  0  0  0  0  0  0  0  0
  1  2  1  0  0  0  0
  2  3  1  0  0  0  0
  2  4  1  0  0  0  0
  2  5  1  0  0  0  0
  5  6  2  0  0  0  0
  5  7  1  0  0  0  0
  7  8  1  0  0  0  0
  7  9  1  0  0  0  0
  9 10  1  0  0  0  0
  9 11  1  0  0  0  0
  9 22  1  0  0  0  0
 11 12  1  0  0  0  0
 11 13  1  0  0  0  0
 11 14  1  0  0  0  0
 14 15  1  0  0  0  0
 14 20  2  0  0  0  0
 15 16  1  0  0  0  0
 15 17  1  0  0  0  0
 17 18  1  0  0  0  0
 17 19  2  0  0  0  0
 19 20  1  0  0  0  0
 20 21  1  0  0  0  0
 22 23  2  0  0  0  0
 22 24  1  0  0  0  0
 24 25  1  0  0  0  0
 24 26  1  0  0  0  0
 26 27  1  0  0  0  0
 26 28  1  0  0  0  0
 26 29  1  0  0  0  0
M  END
$$$$

  -OEChem-03222214043D

 29 29  0     1  0  0  0  0  0999 V2000
   -3.0412   -4.0775    0.5032 H   0  0  0  0  0  0  0  0  0  0  0  0
   -2.9736   -3.1475   -0.0683 C   0  0  0  0  0  0  0  0  0  0  0  0
   -3.8218   -2.5104    0.1926 H   0  0  0  0  0  0  0  0  0  0  0  0
   -3.0200   -3.3870   -1.1336 H   0  0  0  0  0  0  0  0  0  0  0  0
   -1.6723   -2.4350    0.2481 C   0  0  0  0  0  0  0  0  0  0  0  0
   -0.9342   -2.8726    1.1120 O   0  0  0  0  0  0  0  0  0  0  0  0
   -1.3356   -1.2880   -0.4418 N   0  0  0  0  0  0  0  0  0  0  0  0
   -1.9288   -1.0534   -1.2346 H   0  0  0  0  0  0  0  0  0  0  0  0
   -0.0022   -0.6544   -0.3951 C   0  0  1  0  0  0  0  0  0  0  0  0
    0.7276   -1.3968   -0.7368 H   0  0  0  0  0  0  0  0  0  0  0  0
    0.0469    0.5456   -1.3592 C   0  0  0  0  0  0  0  0  0  0  0  0
   -0.5007    1.3816   -0.9123 H   0  0  0  0  0  0  0  0  0  0  0  0
    1.0857    0.8681   -1.4912 H   0  0  0  0  0  0  0  0  0  0  0  0
   -0.5610    0.2378   -2.7083 C   0  0  0  0  0  0  0  0  0  0  0  0
   -1.4305    1.0314   -3.4244 N   0  0  0  0  0  0  0  0  0  0  0  0
   -1.7396    1.9688   -3.1734 H   0  0  0  0  0  0  0  0  0  0  0  0
   -1.7793    0.3629   -4.5830 C   0  0  0  0  0  0  0  0  0  0  0  0
   -2.4486    0.7451   -5.3487 H   0  0  0  0  0  0  0  0  0  0  0  0
   -1.1891   -0.8070   -4.6208 N   0  0  0  0  0  0  0  0  0  0  0  0
   -0.4145   -0.8942   -3.4698 C   0  0  0  0  0  0  0  0  0  0  0  0
    0.2021   -1.7477   -3.2035 H   0  0  0  0  0  0  0  0  0  0  0  0
    0.4589   -0.1995    1.0055 C   0  0  0  0  0  0  0  0  0  0  0  0
    1.6545   -0.1813    1.2666 O   0  0  0  0  0  0  0  0  0  0  0  0
   -0.4202    0.4744    1.8349 N   0  0  0  0  0  0  0  0  0  0  0  0
   -1.4060    0.3332    1.6380 H   0  0  0  0  0  0  0  0  0  0  0  0
   -0.0379    0.9534    3.1577 C   0  0  0  0  0  0  0  0  0  0  0  0
    0.7903    1.6661    3.0838 H   0  0  0  0  0  0  0  0  0  0  0  0
   -0.8826    1.4575    3.6367 H   0  0  0  0  0  0  0  0  0  0  0  0
    0.2733    0.1164    3.7917 H   0  0  0  0  0  0  0  0  0  0  0  0
  1  2  1  0  0  0  0
  2  3  1  0  0  0  0
  2  4  1  0  0  0  0
  2  5  1  0  0  0  0
  5  6  2  0  0  0  0
  5  7  1  0  0  0  0
  7  8  1  0  0  0  0
  7  9  1  0  0  0  0
  9 10  1  0  0  0  0
  9 11  1  0  0  0  0
  9 22  1  0  0  0  0
 11 12  1  0  0  0  0
 11 13  1  0  0  0  0
 11 14  1  0  0  0  0
 14 15  1  0  0  0  0
 14 20  2  0  0  0  0
 15 16  1  0  0  0  0
 15 17  1  0  0  0  0
 17 18  1  0  0  0  0
 17 19  2  0  0  0  0
 19 20  1  0  0  0  0
 20 21  1  0  0  0  0
 22 23  2  0  0  0  0
 22 24  1  0  0  0  0
 24 25  1  0  0  0  0
 24 26  1  0  0  0  0
 26 27  1  0  0  0  0
 26 28  1  0  0  0  0
 26 29  1  0  0  0  0
M  END
$$$$

  -OEChem-03222214043D

 29 29  0     1  0  0  0  0  0999 V2000
   -3.0369   -4.0932    0.5691 H   0  0  0  0  0  0  0  0  0  0  0  0
   -2.9812   -3.1603    0.0008 C   0  0  0  0  0  0  0  0  0  0  0  0
   -3.8151   -2.5181    0.2940 H   0  0  0  0  0  0  0  0  0  0  0  0
   -3.0649   -3.3927   -1.0638 H   0  0  0  0  0  0  0  0  0  0  0  0
   -1.6648   -2.4596    0.2778 C   0  0  0  0  0  0  0  0  0  0  0  0
   -0.9086   -2.8982    1.1253 O   0  0  0  0  0  0  0  0  0  0  0  0
   -1.3362   -1.3186   -0.4258 N   0  0  0  0  0  0  0  0  0  0  0  0
   -1.9570   -1.0667   -1.1913 H   0  0  0  0  0  0  0  0  0  0  0  0
   -0.0074   -0.6743   -0.3921 C   0  0  1  0  0  0  0  0  0  0  0  0
    0.7259   -1.4169   -0.7257 H   0  0  0  0  0  0  0  0  0  0  0  0
    0.0392    0.5140   -1.3717 C   0  0  0  0  0  0  0  0  0  0  0  0
   -0.5143    1.3490   -0.9304 H   0  0  0  0  0  0  0  0  0  0  0  0
    1.0772    0.8410   -1.4986 H   0  0  0  0  0  0  0  0  0  0  0  0
   -0.5596    0.2133   -2.7282 C   0  0  0  0  0  0  0  0  0  0  0  0
   -1.1793    1.1157   -3.5651 N   0  0  0  0  0  0  0  0  0  0  0  0
   -1.2935    2.1137   -3.3982 H   0  0  0  0  0  0  0  0  0  0  0  0
   -1.5931    0.4479   -4.7025 C   0  0  0  0  0  0  0  0  0  0  0  0
   -2.1120    0.9032   -5.5414 H   0  0  0  0  0  0  0  0  0  0  0  0
   -1.2729   -0.8205   -4.6192 N   0  0  0  0  0  0  0  0  0  0  0  0
   -0.6105   -0.9787   -3.4078 C   0  0  0  0  0  0  0  0  0  0  0  0
   -0.2024   -1.9188   -3.0474 H   0  0  0  0  0  0  0  0  0  0  0  0
    0.4523   -0.2006    1.0025 C   0  0  0  0  0  0  0  0  0  0  0  0
    1.6478   -0.1714    1.2629 O   0  0  0  0  0  0  0  0  0  0  0  0
   -0.4315    0.4750    1.8253 N   0  0  0  0  0  0  0  0  0  0  0  0
   -1.4162    0.3288    1.6265 H   0  0  0  0  0  0  0  0  0  0  0  0
   -0.0547    0.9618    3.1467 C   0  0  0  0  0  0  0  0  0  0  0  0
    0.7702    1.6782    3.0722 H   0  0  0  0  0  0  0  0  0  0  0  0
   -0.9034    1.4636    3.6212 H   0  0  0  0  0  0  0  0  0  0  0  0
    0.2591    0.1289    3.7849 H   0  0  0  0  0  0  0  0  0  0  0  0
  1  2  1  0  0  0  0
  2  3  1  0  0  0  0
  2  4  1  0  0  0  0
  2  5  1  0  0  0  0
  5  6  2  0  0  0  0
  5  7  1  0  0  0  0
  7  8  1  0  0  0  0
  7  9  1  0  0  0  0
  9 10  1  0  0  0  0
  9 11  1  0  0  0  0
  9 22  1  0  0  0  0
 11 12  1  0  0  0  0
 11 13  1  0  0  0  0
 11 14  1  0  0  0  0
 14 15  1  0  0  0  0
 14 20  2  0  0  0  0
 15 16  1  0  0  0  0
 15 17  1  0  0  0  0
 17 18  1  0  0  0  0
 17 19  2  0  0  0  0
 19 20  1  0  0  0  0
 20 21  1  0  0  0  0
 22 23  2  0  0  0  0
 22 24  1  0  0  0  0
 24 25  1  0  0  0  0
 24 26  1  0  0  0  0
 26 27  1  0  0  0  0
 26 28  1  0  0  0  0
 26 29  1  0  0  0  0
M  END
$$$$

  -OEChem-03222214043D

 29 29  0     1  0  0  0  0  0999 V2000
   -3.0432   -4.1056    0.6583 H   0  0  0  0  0  0  0  0  0  0  0  0
   -2.9930   -3.1814    0.0755 C   0  0  0  0  0  0  0  0  0  0  0  0
   -3.8144   -2.5282    0.3792 H   0  0  0  0  0  0  0  0  0  0  0  0
   -3.1040   -3.4285   -0.9832 H   0  0  0  0  0  0  0  0  0  0  0  0
   -1.6641   -2.4888    0.3101 C   0  0  0  0  0  0  0  0  0  0  0  0
   -0.8830   -2.9330    1.1316 O   0  0  0  0  0  0  0  0  0  0  0  0
   -1.3492   -1.3507   -0.4050 N   0  0  0  0  0  0  0  0  0  0  0  0
   -2.0033   -1.0748   -1.1335 H   0  0  0  0  0  0  0  0  0  0  0  0
   -0.0254   -0.6949   -0.3890 C   0  0  1  0  0  0  0  0  0  0  0  0
    0.7091   -1.4383   -0.7192 H   0  0  0  0  0  0  0  0  0  0  0  0
    0.0200    0.4826   -1.3827 C   0  0  0  0  0  0  0  0  0  0  0  0
   -0.5330    1.3212   -0.9475 H   0  0  0  0  0  0  0  0  0  0  0  0
    1.0596    0.8057   -1.5052 H   0  0  0  0  0  0  0  0  0  0  0  0
   -0.5711    0.1932   -2.7467 C   0  0  0  0  0  0  0  0  0  0  0  0
   -0.9119    1.1403   -3.6880 N   0  0  0  0  0  0  0  0  0  0  0  0
   -0.8145    2.1493   -3.5906 H   0  0  0  0  0  0  0  0  0  0  0  0
   -1.3877    0.4946   -4.8137 C   0  0  0  0  0  0  0  0  0  0  0  0
   -1.7394    0.9870   -5.7159 H   0  0  0  0  0  0  0  0  0  0  0  0
   -1.3571   -0.8031   -4.6327 N   0  0  0  0  0  0  0  0  0  0  0  0
   -0.8256   -1.0067   -3.3656 C   0  0  0  0  0  0  0  0  0  0  0  0
   -0.6402   -1.9847   -2.9314 H   0  0  0  0  0  0  0  0  0  0  0  0
    0.4411   -0.2065    0.9987 C   0  0  0  0  0  0  0  0  0  0  0  0
    1.6385   -0.1600    1.2480 O   0  0  0  0  0  0  0  0  0  0  0  0
   -0.4425    0.4677    1.8231 N   0  0  0  0  0  0  0  0  0  0  0  0
   -1.4278    0.3149    1.6332 H   0  0  0  0  0  0  0  0  0  0  0  0
   -0.0585    0.9812    3.1322 C   0  0  0  0  0  0  0  0  0  0  0  0
    0.7600    1.7025    3.0371 H   0  0  0  0  0  0  0  0  0  0  0  0
   -0.9071    1.4850    3.6045 H   0  0  0  0  0  0  0  0  0  0  0  0
    0.2670    0.1627    3.7830 H   0  0  0  0  0  0  0  0  0  0  0  0
  1  2  1  0  0  0  0
  2  3  1  0  0  0  0
  2  4  1  0  0  0  0
  2  5  1  0  0  0  0
  5  6  2  0  0  0  0
  5  7  1  0  0  0  0
  7  8  1  0  0  0  0
  7  9  1  0  0  0  0
  9 10  1  0  0  0  0
  9 11  1  0  0  0  0
  9 22  1  0  0  0  0
 11 12  1  0  0  0  0
 11 13  1  0  0  0  0
 11 14  1  0  0  0  0
 14 15  1  0  0  0  0
 14 20  2  0  0  0  0
 15 16  1  0  0  0  0
 15 17  1  0  0  0  0
 17 18  1  0  0  0  0
 17 19  2  0  0  0  0
 19 20  1  0  0  0  0
 20 21  1  0  0  0  0
 22 23  2  0  0  0  0
 22 24  1  0  0  0  0
 24 25  1  0  0  0  0
 24 26  1  0  0  0  0
 26 27  1  0  0  0  0
 26 28  1  0  0  0  0
 26 29  1  0  0  0  0
M  END
$$$$

  -OEChem-03222214043D

 29 29  0     1  0  0  0  0  0999 V2000
   -2.9690   -4.1745    0.9236 H   0  0  0  0  0  0  0  0  0  0  0  0
   -2.9733   -3.2664    0.3139 C   0  0  0  0  0  0  0  0  0  0  0  0
   -3.7573   -2.6000    0.6812 H   0  0  0  0  0  0  0  0  0  0  0  0
   -3.1911   -3.5403   -0.7213 H   0  0  0  0  0  0  0  0  0  0  0  0
   -1.6241   -2.5778    0.3956 C   0  0  0  0  0  0  0  0  0  0  0  0
   -0.7527   -3.0300    1.1157 O   0  0  0  0  0  0  0  0  0  0  0  0
   -1.3919   -1.4313   -0.3380 N   0  0  0  0  0  0  0  0  0  0  0  0
   -2.1498   -1.0960   -0.9262 H   0  0  0  0  0  0  0  0  0  0  0  0
   -0.1017   -0.7166   -0.3874 C   0  0  1  0  0  0  0  0  0  0  0  0
    0.6362   -1.4541   -0.7227 H   0  0  0  0  0  0  0  0  0  0  0  0
   -0.0668    0.4383   -1.4169 C   0  0  0  0  0  0  0  0  0  0  0  0
   -0.3893    1.3512   -0.9049 H   0  0  0  0  0  0  0  0  0  0  0  0
    0.9756    0.5921   -1.7168 H   0  0  0  0  0  0  0  0  0  0  0  0
   -0.9182    0.3250   -2.6697 C   0  0  0  0  0  0  0  0  0  0  0  0
   -0.9600    1.2998   -3.6447 N   0  0  0  0  0  0  0  0  0  0  0  0
   -0.4808    2.1980   -3.6154 H   0  0  0  0  0  0  0  0  0  0  0  0
   -1.7532    0.8630   -4.6877 C   0  0  0  0  0  0  0  0  0  0  0  0
   -1.9813    1.4343   -5.5832 H   0  0  0  0  0  0  0  0  0  0  0  0
   -2.1931   -0.3448   -4.4367 N   0  0  0  0  0  0  0  0  0  0  0  0
   -1.6530   -0.7054   -3.2094 C   0  0  0  0  0  0  0  0  0  0  0  0
   -1.7865   -1.6871   -2.7683 H   0  0  0  0  0  0  0  0  0  0  0  0
    0.4016   -0.1994    0.9770 C   0  0  0  0  0  0  0  0  0  0  0  0
    1.6051   -0.0967    1.1745 O   0  0  0  0  0  0  0  0  0  0  0  0
   -0.4748    0.4383    1.8375 N   0  0  0  0  0  0  0  0  0  0  0  0
   -1.4620    0.2622    1.6808 H   0  0  0  0  0  0  0  0  0  0  0  0
   -0.0591    0.9874    3.1223 C   0  0  0  0  0  0  0  0  0  0  0  0
    0.7202    1.7443    2.9834 H   0  0  0  0  0  0  0  0  0  0  0  0
   -0.9091    1.4584    3.6249 H   0  0  0  0  0  0  0  0  0  0  0  0
    0.3312    0.1938    3.7681 H   0  0  0  0  0  0  0  0  0  0  0  0
  1  2  1  0  0  0  0
  2  3  1  0  0  0  0
  2  4  1  0  0  0  0
  2  5  1  0  0  0  0
  5  6  2  0  0  0  0
  5  7  1  0  0  0  0
  7  8  1  0  0  0  0
  7  9  1  0  0  0  0
  9 10  1  0  0  0  0
  9 11  1  0  0  0  0
  9 22  1  0  0  0  0
 11 12  1  0  0  0  0
 11 13  1  0  0  0  0
 11 14  1  0  0  0  0
 14 15  1  0  0  0  0
 14 20  2  0  0  0  0
 15 16  1  0  0  0  0
 15 17  1  0  0  0  0
 17 18  1  0  0  0  0
 17 19  2  0  0  0  0
 19 20  1  0  0  0  0
 20 21  1  0  0  0  0
 22 23  2  0  0  0  0
 22 24  1  0  0  0  0
 24 25  1  0  0  0  0
 24 26  1  0  0  0  0
 26 27  1  0  0  0  0
 26 28  1  0  0  0  0
 26 29  1  0  0  0  0
M  END
$$$$

  -OEChem-03222214043D

 29 29  0     1  0  0  0  0  0999 V2000
   -2.9364   -4.1909    1.0097 H   0  0  0  0  0  0  0  0  0  0  0  0
   -2.9585   -3.2904    0.3891 C   0  0  0  0  0  0  0  0  0  0  0  0
   -3.7293   -2.6177    0.7728 H   0  0  0  0  0  0  0  0  0  0  0  0
   -3.2098   -3.5766   -0.6353 H   0  0  0  0  0  0  0  0  0  0  0  0
   -1.6057   -2.6046    0.4189 C   0  0  0  0  0  0  0  0  0  0  0  0
   -0.7093   -3.0584    1.1067 O   0  0  0  0  0  0  0  0  0  0  0  0
   -1.3999   -1.4579   -0.3222 N   0  0  0  0  0  0  0  0  0  0  0  0
   -2.1862   -1.1076   -0.8602 H   0  0  0  0  0  0  0  0  0  0  0  0
   -0.1214   -0.7273   -0.3937 C   0  0  1  0  0  0  0  0  0  0  0  0
    0.6189   -1.4613   -0.7313 H   0  0  0  0  0  0  0  0  0  0  0  0
   -0.0934    0.4221   -1.4310 C   0  0  0  0  0  0  0  0  0  0  0  0
   -0.4032    1.3424   -0.9241 H   0  0  0  0  0  0  0  0  0  0  0  0
    0.9512    0.5615   -1.7306 H   0  0  0  0  0  0  0  0  0  0  0  0
   -0.9392    0.3234   -2.6911 C   0  0  0  0  0  0  0  0  0  0  0  0
   -0.7348    1.1512   -3.7759 N   0  0  0  0  0  0  0  0  0  0  0  0
   -0.0544    1.9069   -3.8321 H   0  0  0  0  0  0  0  0  0  0  0  0
   -1.5990    0.7934   -4.7916 C   0  0  0  0  0  0  0  0  0  0  0  0
   -1.6691    1.2854   -5.7576 H   0  0  0  0  0  0  0  0  0  0  0  0
   -2.3249   -0.2297   -4.4174 N   0  0  0  0  0  0  0  0  0  0  0  0
   -1.9084   -0.5492   -3.1322 C   0  0  0  0  0  0  0  0  0  0  0  0
   -2.3066   -1.3946   -2.5841 H   0  0  0  0  0  0  0  0  0  0  0  0
    0.3934   -0.1994    0.9625 C   0  0  0  0  0  0  0  0  0  0  0  0
    1.5981   -0.0825    1.1444 O   0  0  0  0  0  0  0  0  0  0  0  0
   -0.4785    0.4294    1.8342 N   0  0  0  0  0  0  0  0  0  0  0  0
   -1.4664    0.2481    1.6892 H   0  0  0  0  0  0  0  0  0  0  0  0
   -0.0509    0.9915    3.1096 C   0  0  0  0  0  0  0  0  0  0  0  0
    0.7162    1.7576    2.9542 H   0  0  0  0  0  0  0  0  0  0  0  0
   -0.8992    1.4545    3.6227 H   0  0  0  0  0  0  0  0  0  0  0  0
    0.3600    0.2068    3.7537 H   0  0  0  0  0  0  0  0  0  0  0  0
  1  2  1  0  0  0  0
  2  3  1  0  0  0  0
  2  4  1  0  0  0  0
  2  5  1  0  0  0  0
  5  6  2  0  0  0  0
  5  7  1  0  0  0  0
  7  8  1  0  0  0  0
  7  9  1  0  0  0  0
  9 10  1  0  0  0  0
  9 11  1  0  0  0  0
  9 22  1  0  0  0  0
 11 12  1  0  0  0  0
 11 13  1  0  0  0  0
 11 14  1  0  0  0  0
 14 15  1  0  0  0  0
 14 20  2  0  0  0  0
 15 16  1  0  0  0  0
 15 17  1  0  0  0  0
 17 18  1  0  0  0  0
 17 19  2  0  0  0  0
 19 20  1  0  0  0  0
 20 21  1  0  0  0  0
 22 23  2  0  0  0  0
 22 24  1  0  0  0  0
 24 25  1  0  0  0  0
 24 26  1  0  0  0  0
 26 27  1  0  0  0  0
 26 28  1  0  0  0  0
 26 29  1  0  0  0  0
M  END
$$$$

  -OEChem-03222214043D

 29 29  0     1  0  0  0  0  0999 V2000
   -2.9211   -4.2068    1.0146 H   0  0  0  0  0  0  0  0  0  0  0  0
   -2.9496   -3.3050    0.3963 C   0  0  0  0  0  0  0  0  0  0  0  0
   -3.7231   -2.6374    0.7832 H   0  0  0  0  0  0  0  0  0  0  0  0
   -3.2012   -3.5898   -0.6283 H   0  0  0  0  0  0  0  0  0  0  0  0
   -1.6011   -2.6111    0.4250 C   0  0  0  0  0  0  0  0  0  0  0  0
   -0.7012   -3.0585    1.1123 O   0  0  0  0  0  0  0  0  0  0  0  0
   -1.4051   -1.4630   -0.3167 N   0  0  0  0  0  0  0  0  0  0  0  0
   -2.1917   -1.1270   -0.8596 H   0  0  0  0  0  0  0  0  0  0  0  0
   -0.1284   -0.7309   -0.3982 C   0  0  1  0  0  0  0  0  0  0  0  0
    0.6075   -1.4686   -0.7383 H   0  0  0  0  0  0  0  0  0  0  0  0
   -0.0902    0.4183   -1.4364 C   0  0  0  0  0  0  0  0  0  0  0  0
   -0.3852    1.3462   -0.9352 H   0  0  0  0  0  0  0  0  0  0  0  0
    0.9564    0.5419   -1.7355 H   0  0  0  0  0  0  0  0  0  0  0  0
   -0.9369    0.3210   -2.6957 C   0  0  0  0  0  0  0  0  0  0  0  0
   -0.5583    0.9084   -3.8852 N   0  0  0  0  0  0  0  0  0  0  0  0
    0.2935    1.4436   -4.0437 H   0  0  0  0  0  0  0  0  0  0  0  0
   -1.5153    0.6482   -4.8463 C   0  0  0  0  0  0  0  0  0  0  0  0
   -1.4771    0.9890   -5.8772 H   0  0  0  0  0  0  0  0  0  0  0  0
   -2.4798   -0.0711   -4.3297 N   0  0  0  0  0  0  0  0  0  0  0  0
   -2.1333   -0.2849   -3.0026 C   0  0  0  0  0  0  0  0  0  0  0  0
   -2.7570   -0.8510   -2.3216 H   0  0  0  0  0  0  0  0  0  0  0  0
    0.3958   -0.2053    0.9553 C   0  0  0  0  0  0  0  0  0  0  0  0
    1.6018   -0.0892    1.1288 O   0  0  0  0  0  0  0  0  0  0  0  0
   -0.4701    0.4204    1.8352 N   0  0  0  0  0  0  0  0  0  0  0  0
   -1.4597    0.2470    1.6922 H   0  0  0  0  0  0  0  0  0  0  0  0
   -0.0351    0.9801    3.1091 C   0  0  0  0  0  0  0  0  0  0  0  0
    0.7232    1.7540    2.9500 H   0  0  0  0  0  0  0  0  0  0  0  0
   -0.8828    1.4325    3.6325 H   0  0  0  0  0  0  0  0  0  0  0  0
    0.3893    0.1967    3.7461 H   0  0  0  0  0  0  0  0  0  0  0  0
  1  2  1  0  0  0  0
  2  3  1  0  0  0  0
  2  4  1  0  0  0  0
  2  5  1  0  0  0  0
  5  6  2  0  0  0  0
  5  7  1  0  0  0  0
  7  8  1  0  0  0  0
  7  9  1  0  0  0  0
  9 10  1  0  0  0  0
  9 11  1  0  0  0  0
  9 22  1  0  0  0  0
 11 12  1  0  0  0  0
 11 13  1  0  0  0  0
 11 14  1  0  0  0  0
 14 15  1  0  0  0  0
 14 20  2  0  0  0  0
 15 16  1  0  0  0  0
 15 17  1  0  0  0  0
 17 18  1  0  0  0  0
 17 19  2  0  0  0  0
 19 20  1  0  0  0  0
 20 21  1  0  0  0  0
 22 23  2  0  0  0  0
 22 24  1  0  0  0  0
 24 25  1  0  0  0  0
 24 26  1  0  0  0  0
 26 27  1  0  0  0  0
 26 28  1  0  0  0  0
 26 29  1  0  0  0  0
M  END
$$$$

  -OEChem-03222214043D

 29 29  0     1  0  0  0  0  0999 V2000
   -2.9458   -4.2199    0.8881 H   0  0  0  0  0  0  0  0  0  0  0  0
   -2.9260   -3.3485    0.2272 C   0  0  0  0  0  0  0  0  0  0  0  0
   -3.7931   -2.7209    0.4469 H   0  0  0  0  0  0  0  0  0  0  0  0
   -2.9855   -3.6923   -0.8084 H   0  0  0  0  0  0  0  0  0  0  0  0
   -1.6471   -2.5607    0.4400 C   0  0  0  0  0  0  0  0  0  0  0  0
   -0.8468   -2.9201    1.2843 O   0  0  0  0  0  0  0  0  0  0  0  0
   -1.4055   -1.4342   -0.3215 N   0  0  0  0  0  0  0  0  0  0  0  0
   -2.0313   -1.3056   -1.1094 H   0  0  0  0  0  0  0  0  0  0  0  0
   -0.0993   -0.7477   -0.3795 C   0  0  1  0  0  0  0  0  0  0  0  0
    0.6246   -1.5034   -0.7044 H   0  0  0  0  0  0  0  0  0  0  0  0
   -0.0312    0.4081   -1.4097 C   0  0  0  0  0  0  0  0  0  0  0  0
   -0.3196    1.3395   -0.9104 H   0  0  0  0  0  0  0  0  0  0  0  0
    1.0131    0.5259   -1.7179 H   0  0  0  0  0  0  0  0  0  0  0  0
   -0.9027    0.2865   -2.6436 C   0  0  0  0  0  0  0  0  0  0  0  0
   -0.4934    0.5448   -3.9345 N   0  0  0  0  0  0  0  0  0  0  0  0
    0.4550    0.7689   -4.2306 H   0  0  0  0  0  0  0  0  0  0  0  0
   -1.5828    0.4409   -4.7786 C   0  0  0  0  0  0  0  0  0  0  0  0
   -1.5532    0.5665   -5.8574 H   0  0  0  0  0  0  0  0  0  0  0  0
   -2.6610    0.1680   -4.0850 N   0  0  0  0  0  0  0  0  0  0  0  0
   -2.2593    0.1091   -2.7583 C   0  0  0  0  0  0  0  0  0  0  0  0
   -2.9419   -0.0325   -1.9264 H   0  0  0  0  0  0  0  0  0  0  0  0
    0.4104   -0.2150    0.9773 C   0  0  0  0  0  0  0  0  0  0  0  0
    1.6162   -0.1354    1.1742 O   0  0  0  0  0  0  0  0  0  0  0  0
   -0.4543    0.4575    1.8224 N   0  0  0  0  0  0  0  0  0  0  0  0
   -1.4433    0.2839    1.6725 H   0  0  0  0  0  0  0  0  0  0  0  0
   -0.0313    1.0130    3.1018 C   0  0  0  0  0  0  0  0  0  0  0  0
    0.7541    1.7618    2.9549 H   0  0  0  0  0  0  0  0  0  0  0  0
   -0.8762    1.4949    3.6028 H   0  0  0  0  0  0  0  0  0  0  0  0
    0.3542    0.2215    3.7532 H   0  0  0  0  0  0  0  0  0  0  0  0
  1  2  1  0  0  0  0
  2  3  1  0  0  0  0
  2  4  1  0  0  0  0
  2  5  1  0  0  0  0
  5  6  2  0  0  0  0
  5  7  1  0  0  0  0
  7  8  1  0  0  0  0
  7  9  1  0  0  0  0
  9 10  1  0  0  0  0
  9 11  1  0  0  0  0
  9 22  1  0  0  0  0
 11 12  1  0  0  0  0
 11 13  1  0  0  0  0
 11 14  1  0  0  0  0
 14 15  1  0  0  0  0
 14 20  2  0  0  0  0
 15 16  1  0  0  0  0
 15 17  1  0  0  0  0
 17 18  1  0  0  0  0
 17 19  2  0  0  0  0
 19 20  1  0  0  0  0
 20 21  1  0  0  0  0
 22 23  2  0  0  0  0
 22 24  1  0  0  0  0
 24 25  1  0  0  0  0
 24 26  1  0  0  0  0
 26 27  1  0  0  0  0
 26 28  1  0  0  0  0
 26 29  1  0  0  0  0
M  END
$$$$

  -OEChem-03222214043D

 29 29  0     1  0  0  0  0  0999 V2000
   -2.9543   -4.2193    0.7588 H   0  0  0  0  0  0  0  0  0  0  0  0
   -2.9396   -3.3137    0.1455 C   0  0  0  0  0  0  0  0  0  0  0  0
   -3.8066   -2.7002    0.4016 H   0  0  0  0  0  0  0  0  0  0  0  0
   -3.0028   -3.6018   -0.9067 H   0  0  0  0  0  0  0  0  0  0  0  0
   -1.6620   -2.5352    0.3957 C   0  0  0  0  0  0  0  0  0  0  0  0
   -0.8810   -2.9099    1.2514 O   0  0  0  0  0  0  0  0  0  0  0  0
   -1.3968   -1.4014   -0.3466 N   0  0  0  0  0  0  0  0  0  0  0  0
   -2.0045   -1.2565   -1.1477 H   0  0  0  0  0  0  0  0  0  0  0  0
   -0.0822   -0.7280   -0.3738 C   0  0  1  0  0  0  0  0  0  0  0  0
    0.6408   -1.4823   -0.7033 H   0  0  0  0  0  0  0  0  0  0  0  0
   -0.0162    0.4359   -1.3911 C   0  0  0  0  0  0  0  0  0  0  0  0
   -0.3239    1.3592   -0.8881 H   0  0  0  0  0  0  0  0  0  0  0  0
    1.0237    0.5768   -1.7045 H   0  0  0  0  0  0  0  0  0  0  0  0
   -0.9006    0.2756   -2.6072 C   0  0  0  0  0  0  0  0  0  0  0  0
   -0.4906    0.2280   -3.9216 N   0  0  0  0  0  0  0  0  0  0  0  0
    0.4727    0.2105   -4.2522 H   0  0  0  0  0  0  0  0  0  0  0  0
   -1.6095    0.2004   -4.7328 C   0  0  0  0  0  0  0  0  0  0  0  0
   -1.5949    0.1347   -5.8172 H   0  0  0  0  0  0  0  0  0  0  0  0
   -2.6954    0.2636   -4.0002 N   0  0  0  0  0  0  0  0  0  0  0  0
   -2.2679    0.3550   -2.6830 C   0  0  0  0  0  0  0  0  0  0  0  0
   -2.9288    0.4827   -1.8309 H   0  0  0  0  0  0  0  0  0  0  0  0
    0.4189   -0.2154    0.9936 C   0  0  0  0  0  0  0  0  0  0  0  0
    1.6234   -0.1548    1.2039 O   0  0  0  0  0  0  0  0  0  0  0  0
   -0.4462    0.4586    1.8372 N   0  0  0  0  0  0  0  0  0  0  0  0
   -1.4355    0.2956    1.6777 H   0  0  0  0  0  0  0  0  0  0  0  0
   -0.0281    0.9977    3.1255 C   0  0  0  0  0  0  0  0  0  0  0  0
    0.7744    1.7312    2.9932 H   0  0  0  0  0  0  0  0  0  0  0  0
   -0.8693    1.4945    3.6183 H   0  0  0  0  0  0  0  0  0  0  0  0
    0.3324    0.1946    3.7771 H   0  0  0  0  0  0  0  0  0  0  0  0
  1  2  1  0  0  0  0
  2  3  1  0  0  0  0
  2  4  1  0  0  0  0
  2  5  1  0  0  0  0
  5  6  2  0  0  0  0
  5  7  1  0  0  0  0
  7  8  1  0  0  0  0
  7  9  1  0  0  0  0
  9 10  1  0  0  0  0
  9 11  1  0  0  0  0
  9 22  1  0  0  0  0
 11 12  1  0  0  0  0
 11 13  1  0  0  0  0
 11 14  1  0  0  0  0
 14 15  1  0  0  0  0
 14 20  2  0  0  0  0
 15 16  1  0  0  0  0
 15 17  1  0  0  0  0
 17 18  1  0  0  0  0
 17 19  2  0  0  0  0
 19 20  1  0  0  0  0
 20 21  1  0  0  0  0
 22 23  2  0  0  0  0
 22 24  1  0  0  0  0
 24 25  1  0  0  0  0
 24 26  1  0  0  0  0
 26 27  1  0  0  0  0
 26 28  1  0  0  0  0
 26 29  1  0  0  0  0
M  END
$$$$

  -OEChem-03222214043D

 29 29  0     1  0  0  0  0  0999 V2000
   -2.9978   -4.1739    0.6976 H   0  0  0  0  0  0  0  0  0  0  0  0
   -2.9614   -3.2632    0.0932 C   0  0  0  0  0  0  0  0  0  0  0  0
   -3.8176   -2.6350    0.3504 H   0  0  0  0  0  0  0  0  0  0  0  0
   -3.0254   -3.5398   -0.9621 H   0  0  0  0  0  0  0  0  0  0  0  0
   -1.6696   -2.5128    0.3569 C   0  0  0  0  0  0  0  0  0  0  0  0
   -0.8942   -2.9157    1.2050 O   0  0  0  0  0  0  0  0  0  0  0  0
   -1.3845   -1.3720   -0.3658 N   0  0  0  0  0  0  0  0  0  0  0  0
   -1.9932   -1.1939   -1.1604 H   0  0  0  0  0  0  0  0  0  0  0  0
   -0.0652   -0.7068   -0.3736 C   0  0  1  0  0  0  0  0  0  0  0  0
    0.6576   -1.4571   -0.7119 H   0  0  0  0  0  0  0  0  0  0  0  0
   -0.0087    0.4670   -1.3773 C   0  0  0  0  0  0  0  0  0  0  0  0
   -0.3243    1.3833   -0.8661 H   0  0  0  0  0  0  0  0  0  0  0  0
    1.0262    0.6220   -1.7001 H   0  0  0  0  0  0  0  0  0  0  0  0
   -0.9067    0.2828   -2.5780 C   0  0  0  0  0  0  0  0  0  0  0  0
   -0.5270   -0.0516   -3.8587 N   0  0  0  0  0  0  0  0  0  0  0  0
    0.4168   -0.2765   -4.1693 H   0  0  0  0  0  0  0  0  0  0  0  0
   -1.6488   -0.0338   -4.6664 C   0  0  0  0  0  0  0  0  0  0  0  0
   -1.6615   -0.2778   -5.7251 H   0  0  0  0  0  0  0  0  0  0  0  0
   -2.7007    0.3170   -3.9652 N   0  0  0  0  0  0  0  0  0  0  0  0
   -2.2468    0.5558   -2.6749 C   0  0  0  0  0  0  0  0  0  0  0  0
   -2.8689    0.9046   -1.8559 H   0  0  0  0  0  0  0  0  0  0  0  0
    0.4309   -0.2137    1.0019 C   0  0  0  0  0  0  0  0  0  0  0  0
    1.6344   -0.1643    1.2212 O   0  0  0  0  0  0  0  0  0  0  0  0
   -0.4356    0.4564    1.8469 N   0  0  0  0  0  0  0  0  0  0  0  0
   -1.4249    0.3037    1.6779 H   0  0  0  0  0  0  0  0  0  0  0  0
   -0.0237    0.9793    3.1435 C   0  0  0  0  0  0  0  0  0  0  0  0
    0.7836    1.7098    3.0246 H   0  0  0  0  0  0  0  0  0  0  0  0
   -0.8656    1.4751    3.6360 H   0  0  0  0  0  0  0  0  0  0  0  0
    0.3281    0.1671    3.7885 H   0  0  0  0  0  0  0  0  0  0  0  0
  1  2  1  0  0  0  0
  2  3  1  0  0  0  0
  2  4  1  0  0  0  0
  2  5  1  0  0  0  0
  5  6  2  0  0  0  0
  5  7  1  0  0  0  0
  7  8  1  0  0  0  0
  7  9  1  0  0  0  0
  9 10  1  0  0  0  0
  9 11  1  0  0  0  0
  9 22  1  0  0  0  0
 11 12  1  0  0  0  0
 11 13  1  0  0  0  0
 11 14  1  0  0  0  0
 14 15  1  0  0  0  0
 14 20  2  0  0  0  0
 15 16  1  0  0  0  0
 15 17  1  0  0  0  0
 17 18  1  0  0  0  0
 17 19  2  0  0  0  0
 19 20  1  0  0  0  0
 20 21  1  0  0  0  0
 22 23  2  0  0  0  0
 22 24  1  0  0  0  0
 24 25  1  0  0  0  0
 24 26  1  0  0  0  0
 26 27  1  0  0  0  0
 26 28  1  0  0  0  0
 26 29  1  0  0  0  0
M  END
$$$$

  -OEChem-03222214043D

 29 29  0     1  0  0  0  0  0999 V2000
   -3.0168   -4.1479    0.6558 H   0  0  0  0  0  0  0  0  0  0  0  0
   -2.9797   -3.2252    0.0699 C   0  0  0  0  0  0  0  0  0  0  0  0
   -3.8233   -2.5921    0.3548 H   0  0  0  0  0  0  0  0  0  0  0  0
   -3.0645   -3.4788   -0.9896 H   0  0  0  0  0  0  0  0  0  0  0  0
   -1.6746   -2.4965    0.3277 C   0  0  0  0  0  0  0  0  0  0  0  0
   -0.8930   -2.9246    1.1575 O   0  0  0  0  0  0  0  0  0  0  0  0
   -1.3820   -1.3482   -0.3795 N   0  0  0  0  0  0  0  0  0  0  0  0
   -2.0034   -1.1334   -1.1559 H   0  0  0  0  0  0  0  0  0  0  0  0
   -0.0610   -0.6861   -0.3759 C   0  0  1  0  0  0  0  0  0  0  0  0
    0.6614   -1.4335   -0.7212 H   0  0  0  0  0  0  0  0  0  0  0  0
   -0.0103    0.4935   -1.3710 C   0  0  0  0  0  0  0  0  0  0  0  0
   -0.3275    1.4062   -0.8545 H   0  0  0  0  0  0  0  0  0  0  0  0
    1.0215    0.6538   -1.7011 H   0  0  0  0  0  0  0  0  0  0  0  0
   -0.9148    0.2947   -2.5635 C   0  0  0  0  0  0  0  0  0  0  0  0
   -0.5965   -0.3069   -3.7603 N   0  0  0  0  0  0  0  0  0  0  0  0
    0.2979   -0.7287   -4.0052 H   0  0  0  0  0  0  0  0  0  0  0  0
   -1.6998   -0.2367   -4.5903 C   0  0  0  0  0  0  0  0  0  0  0  0
   -1.7516   -0.6402   -5.5977 H   0  0  0  0  0  0  0  0  0  0  0  0
   -2.6808    0.3850   -3.9800 N   0  0  0  0  0  0  0  0  0  0  0  0
   -2.1957    0.7522   -2.7311 C   0  0  0  0  0  0  0  0  0  0  0  0
   -2.7575    1.3117   -1.9890 H   0  0  0  0  0  0  0  0  0  0  0  0
    0.4350   -0.2093    1.0052 C   0  0  0  0  0  0  0  0  0  0  0  0
    1.6383   -0.1682    1.2264 O   0  0  0  0  0  0  0  0  0  0  0  0
   -0.4291    0.4542    1.8581 N   0  0  0  0  0  0  0  0  0  0  0  0
   -1.4192    0.3101    1.6859 H   0  0  0  0  0  0  0  0  0  0  0  0
   -0.0149    0.9626    3.1600 C   0  0  0  0  0  0  0  0  0  0  0  0
    0.7986    1.6871    3.0487 H   0  0  0  0  0  0  0  0  0  0  0  0
   -0.8530    1.4614    3.6557 H   0  0  0  0  0  0  0  0  0  0  0  0
    0.3289    0.1421    3.7987 H   0  0  0  0  0  0  0  0  0  0  0  0
  1  2  1  0  0  0  0
  2  3  1  0  0  0  0
  2  4  1  0  0  0  0
  2  5  1  0  0  0  0
  5  6  2  0  0  0  0
  5  7  1  0  0  0  0
  7  8  1  0  0  0  0
  7  9  1  0  0  0  0
  9 10  1  0  0  0  0
  9 11  1  0  0  0  0
  9 22  1  0  0  0  0
 11 12  1  0  0  0  0
 11 13  1  0  0  0  0
 11 14  1  0  0  0  0
 14 15  1  0  0  0  0
 14 20  2  0  0  0  0
 15 16  1  0  0  0  0
 15 17  1  0  0  0  0
 17 18  1  0  0  0  0
 17 19  2  0  0  0  0
 19 20  1  0  0  0  0
 20 21  1  0  0  0  0
 22 23  2  0  0  0  0
 22 24  1  0  0  0  0
 24 25  1  0  0  0  0
 24 26  1  0  0  0  0
 26 27  1  0  0  0  0
 26 28  1  0  0  0  0
 26 29  1  0  0  0  0
M  END
$$$$

  -OEChem-03222214043D

 29 29  0     1  0  0  0  0  0999 V2000
   -3.0430   -4.1113    0.6454 H   0  0  0  0  0  0  0  0  0  0  0  0
   -2.9957   -3.1855    0.0650 C   0  0  0  0  0  0  0  0  0  0  0  0
   -3.8201   -2.5361    0.3691 H   0  0  0  0  0  0  0  0  0  0  0  0
   -3.1045   -3.4292   -0.9947 H   0  0  0  0  0  0  0  0  0  0  0  0
   -1.6706   -2.4871    0.3044 C   0  0  0  0  0  0  0  0  0  0  0  0
   -0.8785   -2.9426    1.1093 O   0  0  0  0  0  0  0  0  0  0  0  0
   -1.3703   -1.3347   -0.3921 N   0  0  0  0  0  0  0  0  0  0  0  0
   -2.0078   -1.0828   -1.1445 H   0  0  0  0  0  0  0  0  0  0  0  0
   -0.0493   -0.6733   -0.3814 C   0  0  1  0  0  0  0  0  0  0  0  0
    0.6751   -1.4165   -0.7317 H   0  0  0  0  0  0  0  0  0  0  0  0
   -0.0079    0.5121   -1.3692 C   0  0  0  0  0  0  0  0  0  0  0  0
   -0.3232    1.4230   -0.8485 H   0  0  0  0  0  0  0  0  0  0  0  0
    1.0212    0.6735   -1.7068 H   0  0  0  0  0  0  0  0  0  0  0  0
   -0.9171    0.3086   -2.5571 C   0  0  0  0  0  0  0  0  0  0  0  0
   -0.7055   -0.5230   -3.6343 N   0  0  0  0  0  0  0  0  0  0  0  0
    0.1073   -1.1181   -3.7875 H   0  0  0  0  0  0  0  0  0  0  0  0
   -1.7788   -0.3995   -4.4965 C   0  0  0  0  0  0  0  0  0  0  0  0
   -1.8949   -0.9380   -5.4330 H   0  0  0  0  0  0  0  0  0  0  0  0
   -2.6443    0.4599   -4.0132 N   0  0  0  0  0  0  0  0  0  0  0  0
   -2.1094    0.9299   -2.8197 C   0  0  0  0  0  0  0  0  0  0  0  0
   -2.5790    1.6706   -2.1793 H   0  0  0  0  0  0  0  0  0  0  0  0
    0.4418   -0.2069    1.0045 C   0  0  0  0  0  0  0  0  0  0  0  0
    1.6436   -0.1733    1.2338 O   0  0  0  0  0  0  0  0  0  0  0  0
   -0.4260    0.4505    1.8584 N   0  0  0  0  0  0  0  0  0  0  0  0
   -1.4155    0.3155    1.6761 H   0  0  0  0  0  0  0  0  0  0  0  0
   -0.0190    0.9458    3.1676 C   0  0  0  0  0  0  0  0  0  0  0  0
    0.7954    1.6713    3.0684 H   0  0  0  0  0  0  0  0  0  0  0  0
   -0.8601    1.4400    3.6632 H   0  0  0  0  0  0  0  0  0  0  0  0
    0.3210    0.1190    3.8000 H   0  0  0  0  0  0  0  0  0  0  0  0
  1  2  1  0  0  0  0
  2  3  1  0  0  0  0
  2  4  1  0  0  0  0
  2  5  1  0  0  0  0
  5  6  2  0  0  0  0
  5  7  1  0  0  0  0
  7  8  1  0  0  0  0
  7  9  1  0  0  0  0
  9 10  1  0  0  0  0
  9 11  1  0  0  0  0
  9 22  1  0  0  0  0
 11 12  1  0  0  0  0
 11 13  1  0  0  0  0
 11 14  1  0  0  0  0
 14 15  1  0  0  0  0
 14 20  2  0  0  0  0
 15 16  1  0  0  0  0
 15 17  1  0  0  0  0
 17 18  1  0  0  0  0
 17 19  2  0  0  0  0
 19 20  1  0  0  0  0
 20 21  1  0  0  0  0
 22 23  2  0  0  0  0
 22 24  1  0  0  0  0
 24 25  1  0  0  0  0
 24 26  1  0  0  0  0
 26 27  1  0  0  0  0
 26 28  1  0  0  0  0
 26 29  1  0  0  0  0
M  END
$$$$

  -OEChem-03222214043D

 29 29  0     1  0  0  0  0  0999 V2000
   -3.0528   -4.0942    0.6584 H   0  0  0  0  0  0  0  0  0  0  0  0
   -3.0061   -3.1655    0.0825 C   0  0  0  0  0  0  0  0  0  0  0  0
   -3.8134   -2.5064    0.4105 H   0  0  0  0  0  0  0  0  0  0  0  0
   -3.1439   -3.4008   -0.9755 H   0  0  0  0  0  0  0  0  0  0  0  0
   -1.6658   -2.4877    0.2940 C   0  0  0  0  0  0  0  0  0  0  0  0
   -0.8580   -2.9651    1.0698 O   0  0  0  0  0  0  0  0  0  0  0  0
   -1.3657   -1.3318   -0.3968 N   0  0  0  0  0  0  0  0  0  0  0  0
   -2.0250   -1.0444   -1.1173 H   0  0  0  0  0  0  0  0  0  0  0  0
   -0.0469   -0.6662   -0.3843 C   0  0  1  0  0  0  0  0  0  0  0  0
    0.6804   -1.4057   -0.7362 H   0  0  0  0  0  0  0  0  0  0  0  0
   -0.0098    0.5211   -1.3703 C   0  0  0  0  0  0  0  0  0  0  0  0
   -0.3190    1.4343   -0.8501 H   0  0  0  0  0  0  0  0  0  0  0  0
    1.0201    0.6755   -1.7095 H   0  0  0  0  0  0  0  0  0  0  0  0
   -0.9162    0.3214   -2.5619 C   0  0  0  0  0  0  0  0  0  0  0  0
   -0.8555   -0.6918   -3.4938 N   0  0  0  0  0  0  0  0  0  0  0  0
   -0.1596   -1.4351   -3.5321 H   0  0  0  0  0  0  0  0  0  0  0  0
   -1.8753   -0.5051   -4.4074 C   0  0  0  0  0  0  0  0  0  0  0  0
   -2.0762   -1.1461   -5.2614 H   0  0  0  0  0  0  0  0  0  0  0  0
   -2.5730    0.5583   -4.0870 N   0  0  0  0  0  0  0  0  0  0  0  0
   -1.9765    1.0959   -2.9519 C   0  0  0  0  0  0  0  0  0  0  0  0
   -2.3137    1.9921   -2.4398 H   0  0  0  0  0  0  0  0  0  0  0  0
    0.4419   -0.2038    1.0032 C   0  0  0  0  0  0  0  0  0  0  0  0
    1.6431   -0.1705    1.2353 O   0  0  0  0  0  0  0  0  0  0  0  0
   -0.4287    0.4470    1.8590 N   0  0  0  0  0  0  0  0  0  0  0  0
   -1.4178    0.3167    1.6716 H   0  0  0  0  0  0  0  0  0  0  0  0
   -0.0250    0.9333    3.1722 C   0  0  0  0  0  0  0  0  0  0  0  0
    0.7911    1.6575    3.0789 H   0  0  0  0  0  0  0  0  0  0  0  0
   -0.8665    1.4258    3.6685 H   0  0  0  0  0  0  0  0  0  0  0  0
    0.3116    0.1015    3.8000 H   0  0  0  0  0  0  0  0  0  0  0  0
  1  2  1  0  0  0  0
  2  3  1  0  0  0  0
  2  4  1  0  0  0  0
  2  5  1  0  0  0  0
  5  6  2  0  0  0  0
  5  7  1  0  0  0  0
  7  8  1  0  0  0  0
  7  9  1  0  0  0  0
  9 10  1  0  0  0  0
  9 11  1  0  0  0  0
  9 22  1  0  0  0  0
 11 12  1  0  0  0  0
 11 13  1  0  0  0  0
 11 14  1  0  0  0  0
 14 15  1  0  0  0  0
 14 20  2  0  0  0  0
 15 16  1  0  0  0  0
 15 17  1  0  0  0  0
 17 18  1  0  0  0  0
 17 19  2  0  0  0  0
 19 20  1  0  0  0  0
 20 21  1  0  0  0  0
 22 23  2  0  0  0  0
 22 24  1  0  0  0  0
 24 25  1  0  0  0  0
 24 26  1  0  0  0  0
 26 27  1  0  0  0  0
 26 28  1  0  0  0  0
 26 29  1  0  0  0  0
M  END
$$$$

  -OEChem-03222214043D

 29 29  0     1  0  0  0  0  0999 V2000
   -3.0591   -4.0804    0.7013 H   0  0  0  0  0  0  0  0  0  0  0  0
   -3.0097   -3.1552    0.1199 C   0  0  0  0  0  0  0  0  0  0  0  0
   -3.7966   -2.4801    0.4648 H   0  0  0  0  0  0  0  0  0  0  0  0
   -3.1781   -3.3924   -0.9332 H   0  0  0  0  0  0  0  0  0  0  0  0
   -1.6518   -2.5017    0.2945 C   0  0  0  0  0  0  0  0  0  0  0  0
   -0.8267   -2.9994    1.0385 O   0  0  0  0  0  0  0  0  0  0  0  0
   -1.3538   -1.3456   -0.3968 N   0  0  0  0  0  0  0  0  0  0  0  0
   -2.0373   -1.0230   -1.0787 H   0  0  0  0  0  0  0  0  0  0  0  0
   -0.0398   -0.6720   -0.3849 C   0  0  1  0  0  0  0  0  0  0  0  0
    0.6933   -1.4070   -0.7344 H   0  0  0  0  0  0  0  0  0  0  0  0
   -0.0094    0.5140   -1.3736 C   0  0  0  0  0  0  0  0  0  0  0  0
   -0.3146    1.4288   -0.8540 H   0  0  0  0  0  0  0  0  0  0  0  0
    1.0220    0.6633   -1.7102 H   0  0  0  0  0  0  0  0  0  0  0  0
   -0.9080    0.3266   -2.5765 C   0  0  0  0  0  0  0  0  0  0  0  0
   -1.0446   -0.7994   -3.3618 N   0  0  0  0  0  0  0  0  0  0  0  0
   -0.5003   -1.6573   -3.2828 H   0  0  0  0  0  0  0  0  0  0  0  0
   -1.9950   -0.5439   -4.3321 C   0  0  0  0  0  0  0  0  0  0  0  0
   -2.3052   -1.2419   -5.1047 H   0  0  0  0  0  0  0  0  0  0  0  0
   -2.4749    0.6665   -4.1787 N   0  0  0  0  0  0  0  0  0  0  0  0
   -1.8005    1.2257   -3.0987 C   0  0  0  0  0  0  0  0  0  0  0  0
   -1.9694    2.2278   -2.7157 H   0  0  0  0  0  0  0  0  0  0  0  0
    0.4412   -0.2051    1.0041 C   0  0  0  0  0  0  0  0  0  0  0  0
    1.6406   -0.1704    1.2448 O   0  0  0  0  0  0  0  0  0  0  0  0
   -0.4367    0.4407    1.8564 N   0  0  0  0  0  0  0  0  0  0  0  0
   -1.4246    0.3181    1.6581 H   0  0  0  0  0  0  0  0  0  0  0  0
   -0.0429    0.9331    3.1706 C   0  0  0  0  0  0  0  0  0  0  0  0
    0.7672    1.6645    3.0804 H   0  0  0  0  0  0  0  0  0  0  0  0
   -0.8911    1.4192    3.6618 H   0  0  0  0  0  0  0  0  0  0  0  0
    0.2981    0.1059    3.8021 H   0  0  0  0  0  0  0  0  0  0  0  0
  1  2  1  0  0  0  0
  2  3  1  0  0  0  0
  2  4  1  0  0  0  0
  2  5  1  0  0  0  0
  5  6  2  0  0  0  0
  5  7  1  0  0  0  0
  7  8  1  0  0  0  0
  7  9  1  0  0  0  0
  9 10  1  0  0  0  0
  9 11  1  0  0  0  0
  9 22  1  0  0  0  0
 11 12  1  0  0  0  0
 11 13  1  0  0  0  0
 11 14  1  0  0  0  0
 14 15  1  0  0  0  0
 14 20  2  0  0  0  0
 15 16  1  0  0  0  0
 15 17  1  0  0  0  0
 17 18  1  0  0  0  0
 17 19  2  0  0  0  0
 19 20  1  0  0  0  0
 20 21  1  0  0  0  0
 22 23  2  0  0  0  0
 22 24  1  0  0  0  0
 24 25  1  0  0  0  0
 24 26  1  0  0  0  0
 26 27  1  0  0  0  0
 26 28  1  0  0  0  0
 26 29  1  0  0  0  0
M  END
$$$$

  -OEChem-03222214043D

 29 29  0     1  0  0  0  0  0999 V2000
   -3.0457   -4.0881    0.7845 H   0  0  0  0  0  0  0  0  0  0  0  0
   -3.0050   -3.1707    0.1903 C   0  0  0  0  0  0  0  0  0  0  0  0
   -3.7694   -2.4810    0.5561 H   0  0  0  0  0  0  0  0  0  0  0  0
   -3.2156   -3.4179   -0.8526 H   0  0  0  0  0  0  0  0  0  0  0  0
   -1.6331   -2.5345    0.3081 C   0  0  0  0  0  0  0  0  0  0  0  0
   -0.7816   -3.0466    1.0109 O   0  0  0  0  0  0  0  0  0  0  0  0
   -1.3514   -1.3770   -0.3880 N   0  0  0  0  0  0  0  0  0  0  0  0
   -2.0734   -1.0128   -1.0061 H   0  0  0  0  0  0  0  0  0  0  0  0
   -0.0468   -0.6857   -0.3824 C   0  0  1  0  0  0  0  0  0  0  0  0
    0.6939   -1.4157   -0.7272 H   0  0  0  0  0  0  0  0  0  0  0  0
   -0.0212    0.4955   -1.3788 C   0  0  0  0  0  0  0  0  0  0  0  0
   -0.3291    1.4109   -0.8618 H   0  0  0  0  0  0  0  0  0  0  0  0
    1.0136    0.6450   -1.7055 H   0  0  0  0  0  0  0  0  0  0  0  0
   -0.9019    0.3267   -2.6003 C   0  0  0  0  0  0  0  0  0  0  0  0
   -1.2654   -0.8339   -3.2537 N   0  0  0  0  0  0  0  0  0  0  0  0
   -0.9035   -1.7671   -3.0621 H   0  0  0  0  0  0  0  0  0  0  0  0
   -2.1157   -0.5072   -4.2930 C   0  0  0  0  0  0  0  0  0  0  0  0
   -2.5478   -1.2143   -4.9957 H   0  0  0  0  0  0  0  0  0  0  0  0
   -2.3293    0.7856   -4.3045 N   0  0  0  0  0  0  0  0  0  0  0  0
   -1.5770    1.3185   -3.2633 C   0  0  0  0  0  0  0  0  0  0  0  0
   -1.5409    2.3729   -3.0052 H   0  0  0  0  0  0  0  0  0  0  0  0
    0.4308   -0.2073    1.0042 C   0  0  0  0  0  0  0  0  0  0  0  0
    1.6298   -0.1570    1.2427 O   0  0  0  0  0  0  0  0  0  0  0  0
   -0.4526    0.4299    1.8577 N   0  0  0  0  0  0  0  0  0  0  0  0
   -1.4400    0.3064    1.6585 H   0  0  0  0  0  0  0  0  0  0  0  0
   -0.0590    0.9446    3.1636 C   0  0  0  0  0  0  0  0  0  0  0  0
    0.7406    1.6856    3.0600 H   0  0  0  0  0  0  0  0  0  0  0  0
   -0.9110    1.4256    3.6534 H   0  0  0  0  0  0  0  0  0  0  0  0
    0.2966    0.1300    3.8033 H   0  0  0  0  0  0  0  0  0  0  0  0
  1  2  1  0  0  0  0
  2  3  1  0  0  0  0
  2  4  1  0  0  0  0
  2  5  1  0  0  0  0
  5  6  2  0  0  0  0
  5  7  1  0  0  0  0
  7  8  1  0  0  0  0
  7  9  1  0  0  0  0
  9 10  1  0  0  0  0
  9 11  1  0  0  0  0
  9 22  1  0  0  0  0
 11 12  1  0  0  0  0
 11 13  1  0  0  0  0
 11 14  1  0  0  0  0
 14 15  1  0  0  0  0
 14 20  2  0  0  0  0
 15 16  1  0  0  0  0
 15 17  1  0  0  0  0
 17 18  1  0  0  0  0
 17 19  2  0  0  0  0
 19 20  1  0  0  0  0
 20 21  1  0  0  0  0
 22 23  2  0  0  0  0
 22 24  1  0  0  0  0
 24 25  1  0  0  0  0
 24 26  1  0  0  0  0
 26 27  1  0  0  0  0
 26 28  1  0  0  0  0
 26 29  1  0  0  0  0
M  END
$$$$

  -OEChem-03222214043D

 29 29  0     1  0  0  0  0  0999 V2000
   -3.0123   -4.0929    0.9017 H   0  0  0  0  0  0  0  0  0  0  0  0
   -2.9899   -3.1847    0.2924 C   0  0  0  0  0  0  0  0  0  0  0  0
   -3.7217   -2.4773    0.6898 H   0  0  0  0  0  0  0  0  0  0  0  0
   -3.2616   -3.4433   -0.7337 H   0  0  0  0  0  0  0  0  0  0  0  0
   -1.6035   -2.5703    0.3252 C   0  0  0  0  0  0  0  0  0  0  0  0
   -0.7173   -3.0984    0.9704 O   0  0  0  0  0  0  0  0  0  0  0  0
   -1.3495   -1.4115   -0.3798 N   0  0  0  0  0  0  0  0  0  0  0  0
   -2.1193   -0.9974   -0.9003 H   0  0  0  0  0  0  0  0  0  0  0  0
   -0.0575   -0.6977   -0.3872 C   0  0  1  0  0  0  0  0  0  0  0  0
    0.6921   -1.4197   -0.7303 H   0  0  0  0  0  0  0  0  0  0  0  0
   -0.0409    0.4784   -1.3915 C   0  0  0  0  0  0  0  0  0  0  0  0
   -0.3596    1.3905   -0.8751 H   0  0  0  0  0  0  0  0  0  0  0  0
    0.9958    0.6371   -1.7077 H   0  0  0  0  0  0  0  0  0  0  0  0
   -0.9064    0.3260   -2.6283 C   0  0  0  0  0  0  0  0  0  0  0  0
   -1.5059   -0.7954   -3.1671 N   0  0  0  0  0  0  0  0  0  0  0  0
   -1.3403   -1.7572   -2.8743 H   0  0  0  0  0  0  0  0  0  0  0  0
   -2.2341   -0.4185   -4.2794 C   0  0  0  0  0  0  0  0  0  0  0  0
   -2.7908   -1.0944   -4.9225 H   0  0  0  0  0  0  0  0  0  0  0  0
   -2.1549    0.8782   -4.4457 N   0  0  0  0  0  0  0  0  0  0  0  0
   -1.3313    1.3535   -3.4310 C   0  0  0  0  0  0  0  0  0  0  0  0
   -1.0697    2.3980   -3.2893 H   0  0  0  0  0  0  0  0  0  0  0  0
    0.4176   -0.2059    0.9956 C   0  0  0  0  0  0  0  0  0  0  0  0
    1.6160   -0.1417    1.2330 O   0  0  0  0  0  0  0  0  0  0  0  0
   -0.4719    0.4189    1.8523 N   0  0  0  0  0  0  0  0  0  0  0  0
   -1.4589    0.2971    1.6512 H   0  0  0  0  0  0  0  0  0  0  0  0
   -0.0797    0.9427    3.1549 C   0  0  0  0  0  0  0  0  0  0  0  0
    0.7119    1.6917    3.0459 H   0  0  0  0  0  0  0  0  0  0  0  0
   -0.9351    1.4164    3.6460 H   0  0  0  0  0  0  0  0  0  0  0  0
    0.2864    0.1339    3.7962 H   0  0  0  0  0  0  0  0  0  0  0  0
  1  2  1  0  0  0  0
  2  3  1  0  0  0  0
  2  4  1  0  0  0  0
  2  5  1  0  0  0  0
  5  6  2  0  0  0  0
  5  7  1  0  0  0  0
  7  8  1  0  0  0  0
  7  9  1  0  0  0  0
  9 10  1  0  0  0  0
  9 11  1  0  0  0  0
  9 22  1  0  0  0  0
 11 12  1  0  0  0  0
 11 13  1  0  0  0  0
 11 14  1  0  0  0  0
 14 15  1  0  0  0  0
 14 20  2  0  0  0  0
 15 16  1  0  0  0  0
 15 17  1  0  0  0  0
 17 18  1  0  0  0  0
 17 19  2  0  0  0  0
 19 20  1  0  0  0  0
 20 21  1  0  0  0  0
 22 23  2  0  0  0  0
 22 24  1  0  0  0  0
 24 25  1  0  0  0  0
 24 26  1  0  0  0  0
 26 27  1  0  0  0  0
 26 28  1  0  0  0  0
 26 29  1  0  0  0  0
M  END
$$$$

  -OEChem-03222214043D

 29 29  0     1  0  0  0  0  0999 V2000
   -2.9719   -4.0960    1.0141 H   0  0  0  0  0  0  0  0  0  0  0  0
   -2.9747   -3.1980    0.3895 C   0  0  0  0  0  0  0  0  0  0  0  0
   -3.6752   -2.4764    0.8162 H   0  0  0  0  0  0  0  0  0  0  0  0
   -3.3075   -3.4705   -0.6147 H   0  0  0  0  0  0  0  0  0  0  0  0
   -1.5816   -2.5998    0.3326 C   0  0  0  0  0  0  0  0  0  0  0  0
   -0.6618   -3.1439    0.9139 O   0  0  0  0  0  0  0  0  0  0  0  0
   -1.3619   -1.4347   -0.3751 N   0  0  0  0  0  0  0  0  0  0  0  0
   -2.1727   -0.9711   -0.7769 H   0  0  0  0  0  0  0  0  0  0  0  0
   -0.0798   -0.7029   -0.3960 C   0  0  1  0  0  0  0  0  0  0  0  0
    0.6732   -1.4190   -0.7442 H   0  0  0  0  0  0  0  0  0  0  0  0
   -0.0681    0.4720   -1.4033 C   0  0  0  0  0  0  0  0  0  0  0  0
   -0.4015    1.3765   -0.8831 H   0  0  0  0  0  0  0  0  0  0  0  0
    0.9697    0.6463   -1.7084 H   0  0  0  0  0  0  0  0  0  0  0  0
   -0.9241    0.3353   -2.6499 C   0  0  0  0  0  0  0  0  0  0  0  0
   -1.7492   -0.6823   -3.0868 N   0  0  0  0  0  0  0  0  0  0  0  0
   -1.7817   -1.6240   -2.7010 H   0  0  0  0  0  0  0  0  0  0  0  0
   -2.3407   -0.2969   -4.2749 C   0  0  0  0  0  0  0  0  0  0  0  0
   -3.0154   -0.9094   -4.8666 H   0  0  0  0  0  0  0  0  0  0  0  0
   -1.9636    0.9168   -4.5888 N   0  0  0  0  0  0  0  0  0  0  0  0
   -1.0823    1.3198   -3.5919 C   0  0  0  0  0  0  0  0  0  0  0  0
   -0.5925    2.2887   -3.5603 H   0  0  0  0  0  0  0  0  0  0  0  0
    0.4042   -0.2096    0.9835 C   0  0  0  0  0  0  0  0  0  0  0  0
    1.6037   -0.1307    1.2099 O   0  0  0  0  0  0  0  0  0  0  0  0
   -0.4835    0.3996    1.8532 N   0  0  0  0  0  0  0  0  0  0  0  0
   -1.4715    0.2799    1.6575 H   0  0  0  0  0  0  0  0  0  0  0  0
   -0.0827    0.9351    3.1487 C   0  0  0  0  0  0  0  0  0  0  0  0
    0.6889    1.7025    3.0254 H   0  0  0  0  0  0  0  0  0  0  0  0
   -0.9411    1.3891    3.6528 H   0  0  0  0  0  0  0  0  0  0  0  0
    0.3136    0.1373    3.7857 H   0  0  0  0  0  0  0  0  0  0  0  0
  1  2  1  0  0  0  0
  2  3  1  0  0  0  0
  2  4  1  0  0  0  0
  2  5  1  0  0  0  0
  5  6  2  0  0  0  0
  5  7  1  0  0  0  0
  7  8  1  0  0  0  0
  7  9  1  0  0  0  0
  9 10  1  0  0  0  0
  9 11  1  0  0  0  0
  9 22  1  0  0  0  0
 11 12  1  0  0  0  0
 11 13  1  0  0  0  0
 11 14  1  0  0  0  0
 14 15  1  0  0  0  0
 14 20  2  0  0  0  0
 15 16  1  0  0  0  0
 15 17  1  0  0  0  0
 17 18  1  0  0  0  0
 17 19  2  0  0  0  0
 19 20  1  0  0  0  0
 20 21  1  0  0  0  0
 22 23  2  0  0  0  0
 22 24  1  0  0  0  0
 24 25  1  0  0  0  0
 24 26  1  0  0  0  0
 26 27  1  0  0  0  0
 26 28  1  0  0  0  0
 26 29  1  0  0  0  0
M  END
$$$$

  -OEChem-03222214043D

 29 29  0     1  0  0  0  0  0999 V2000
   -2.9313   -4.0969    1.0886 H   0  0  0  0  0  0  0  0  0  0  0  0
   -2.9614   -3.2003    0.4628 C   0  0  0  0  0  0  0  0  0  0  0  0
   -3.6313   -2.4723    0.9264 H   0  0  0  0  0  0  0  0  0  0  0  0
   -3.3517   -3.4724   -0.5206 H   0  0  0  0  0  0  0  0  0  0  0  0
   -1.5683   -2.6154    0.3256 C   0  0  0  0  0  0  0  0  0  0  0  0
   -0.6209   -3.1771    0.8424 O   0  0  0  0  0  0  0  0  0  0  0  0
   -1.3820   -1.4409   -0.3776 N   0  0  0  0  0  0  0  0  0  0  0  0
   -2.2176   -0.9389   -0.6618 H   0  0  0  0  0  0  0  0  0  0  0  0
   -0.1060   -0.6983   -0.4085 C   0  0  1  0  0  0  0  0  0  0  0  0
    0.6459   -1.4105   -0.7674 H   0  0  0  0  0  0  0  0  0  0  0  0
   -0.0955    0.4793   -1.4123 C   0  0  0  0  0  0  0  0  0  0  0  0
   -0.4435    1.3738   -0.8847 H   0  0  0  0  0  0  0  0  0  0  0  0
    0.9427    0.6699   -1.7066 H   0  0  0  0  0  0  0  0  0  0  0  0
   -0.9480    0.3578   -2.6632 C   0  0  0  0  0  0  0  0  0  0  0  0
   -1.9734   -0.4998   -3.0114 N   0  0  0  0  0  0  0  0  0  0  0  0
   -2.2136   -1.3618   -2.5285 H   0  0  0  0  0  0  0  0  0  0  0  0
   -2.4310   -0.1573   -4.2700 C   0  0  0  0  0  0  0  0  0  0  0  0
   -3.2137   -0.6780   -4.8144 H   0  0  0  0  0  0  0  0  0  0  0  0
   -1.7755    0.8827   -4.7185 N   0  0  0  0  0  0  0  0  0  0  0  0
   -0.8496    1.2090   -3.7348 C   0  0  0  0  0  0  0  0  0  0  0  0
   -0.1471    2.0344   -3.8037 H   0  0  0  0  0  0  0  0  0  0  0  0
    0.3929   -0.2156    0.9699 C   0  0  0  0  0  0  0  0  0  0  0  0
    1.5942   -0.1284    1.1822 O   0  0  0  0  0  0  0  0  0  0  0  0
   -0.4872    0.3775    1.8589 N   0  0  0  0  0  0  0  0  0  0  0  0
   -1.4774    0.2656    1.6718 H   0  0  0  0  0  0  0  0  0  0  0  0
   -0.0710    0.9155    3.1486 C   0  0  0  0  0  0  0  0  0  0  0  0
    0.6700    1.7103    3.0118 H   0  0  0  0  0  0  0  0  0  0  0  0
   -0.9309    1.3345    3.6797 H   0  0  0  0  0  0  0  0  0  0  0  0
    0.3694    0.1268    3.7678 H   0  0  0  0  0  0  0  0  0  0  0  0
  1  2  1  0  0  0  0
  2  3  1  0  0  0  0
  2  4  1  0  0  0  0
  2  5  1  0  0  0  0
  5  6  2  0  0  0  0
  5  7  1  0  0  0  0
  7  8  1  0  0  0  0
  7  9  1  0  0  0  0
  9 10  1  0  0  0  0
  9 11  1  0  0  0  0
  9 22  1  0  0  0  0
 11 12  1  0  0  0  0
 11 13  1  0  0  0  0
 11 14  1  0  0  0  0
 14 15  1  0  0  0  0
 14 20  2  0  0  0  0
 15 16  1  0  0  0  0
 15 17  1  0  0  0  0
 17 18  1  0  0  0  0
 17 19  2  0  0  0  0
 19 20  1  0  0  0  0
 20 21  1  0  0  0  0
 22 23  2  0  0  0  0
 22 24  1  0  0  0  0
 24 25  1  0  0  0  0
 24 26  1  0  0  0  0
 26 27  1  0  0  0  0
 26 28  1  0  0  0  0
 26 29  1  0  0  0  0
M  END
$$$$

  -OEChem-03222214043D

 29 29  0     1  0  0  0  0  0999 V2000
   -2.9092   -4.1049    1.0920 H   0  0  0  0  0  0  0  0  0  0  0  0
   -2.9551   -3.2014    0.4769 C   0  0  0  0  0  0  0  0  0  0  0  0
   -3.6164   -2.4804    0.9630 H   0  0  0  0  0  0  0  0  0  0  0  0
   -3.3650   -3.4642   -0.5011 H   0  0  0  0  0  0  0  0  0  0  0  0
   -1.5666   -2.6119    0.3156 C   0  0  0  0  0  0  0  0  0  0  0  0
   -0.6088   -3.1746    0.8122 O   0  0  0  0  0  0  0  0  0  0  0  0
   -1.3993   -1.4284   -0.3774 N   0  0  0  0  0  0  0  0  0  0  0  0
   -2.2427   -0.9139   -0.6013 H   0  0  0  0  0  0  0  0  0  0  0  0
   -0.1264   -0.6826   -0.4157 C   0  0  1  0  0  0  0  0  0  0  0  0
    0.6206   -1.3938   -0.7870 H   0  0  0  0  0  0  0  0  0  0  0  0
   -0.1146    0.4976   -1.4152 C   0  0  0  0  0  0  0  0  0  0  0  0
   -0.4668    1.3867   -0.8819 H   0  0  0  0  0  0  0  0  0  0  0  0
    0.9243    0.6932   -1.7038 H   0  0  0  0  0  0  0  0  0  0  0  0
   -0.9690    0.3862   -2.6668 C   0  0  0  0  0  0  0  0  0  0  0  0
   -2.1574   -0.2647   -2.9420 N   0  0  0  0  0  0  0  0  0  0  0  0
   -2.6206   -0.9456   -2.3496 H   0  0  0  0  0  0  0  0  0  0  0  0
   -2.5078   -0.0151   -4.2558 C   0  0  0  0  0  0  0  0  0  0  0  0
   -3.3850   -0.4154   -4.7564 H   0  0  0  0  0  0  0  0  0  0  0  0
   -1.6223    0.7677   -4.8166 N   0  0  0  0  0  0  0  0  0  0  0  0
   -0.6609    1.0194   -3.8452 C   0  0  0  0  0  0  0  0  0  0  0  0
    0.2156    1.6422   -3.9992 H   0  0  0  0  0  0  0  0  0  0  0  0
    0.3916   -0.2139    0.9608 C   0  0  0  0  0  0  0  0  0  0  0  0
    1.5957   -0.1233    1.1554 O   0  0  0  0  0  0  0  0  0  0  0  0
   -0.4764    0.3672    1.8695 N   0  0  0  0  0  0  0  0  0  0  0  0
   -1.4688    0.2509    1.6990 H   0  0  0  0  0  0  0  0  0  0  0  0
   -0.0419    0.8904    3.1591 C   0  0  0  0  0  0  0  0  0  0  0  0
    0.6936    1.6899    3.0210 H   0  0  0  0  0  0  0  0  0  0  0  0
   -0.8948    1.2992    3.7090 H   0  0  0  0  0  0  0  0  0  0  0  0
    0.4105    0.0953    3.7611 H   0  0  0  0  0  0  0  0  0  0  0  0
  1  2  1  0  0  0  0
  2  3  1  0  0  0  0
  2  4  1  0  0  0  0
  2  5  1  0  0  0  0
  5  6  2  0  0  0  0
  5  7  1  0  0  0  0
  7  8  1  0  0  0  0
  7  9  1  0  0  0  0
  9 10  1  0  0  0  0
  9 11  1  0  0  0  0
  9 22  1  0  0  0  0
 11 12  1  0  0  0  0
 11 13  1  0  0  0  0
 11 14  1  0  0  0  0
 14 15  1  0  0  0  0
 14 20  2  0  0  0  0
 15 16  1  0  0  0  0
 15 17  1  0  0  0  0
 17 18  1  0  0  0  0
 17 19  2  0  0  0  0
 19 20  1  0  0  0  0
 20 21  1  0  0  0  0
 22 23  2  0  0  0  0
 22 24  1  0  0  0  0
 24 25  1  0  0  0  0
 24 26  1  0  0  0  0
 26 27  1  0  0  0  0
 26 28  1  0  0  0  0
 26 29  1  0  0  0  0
M  END
$$$$

  -OEChem-03222214043D

 29 29  0     1  0  0  0  0  0999 V2000
   -2.9399   -4.2122    0.7739 H   0  0  0  0  0  0  0  0  0  0  0  0
   -2.9180   -3.3323    0.1243 C   0  0  0  0  0  0  0  0  0  0  0  0
   -3.8247   -2.7472    0.2948 H   0  0  0  0  0  0  0  0  0  0  0  0
   -2.8953   -3.6664   -0.9159 H   0  0  0  0  0  0  0  0  0  0  0  0
   -1.6920   -2.4919    0.4283 C   0  0  0  0  0  0  0  0  0  0  0  0
   -0.9418   -2.8232    1.3275 O   0  0  0  0  0  0  0  0  0  0  0  0
   -1.4491   -1.3505   -0.3118 N   0  0  0  0  0  0  0  0  0  0  0  0
   -1.9875   -1.2927   -1.1693 H   0  0  0  0  0  0  0  0  0  0  0  0
   -0.1294   -0.6944   -0.3669 C   0  0  1  0  0  0  0  0  0  0  0  0
    0.5762   -1.4475   -0.7349 H   0  0  0  0  0  0  0  0  0  0  0  0
   -0.0821    0.4990   -1.3540 C   0  0  0  0  0  0  0  0  0  0  0  0
   -0.3526    1.4091   -0.8077 H   0  0  0  0  0  0  0  0  0  0  0  0
    0.9546    0.6271   -1.6850 H   0  0  0  0  0  0  0  0  0  0  0  0
   -0.9960    0.4396   -2.5652 C   0  0  0  0  0  0  0  0  0  0  0  0
   -2.3308    0.0939   -2.6819 N   0  0  0  0  0  0  0  0  0  0  0  0
   -3.0011    0.0360   -1.9183 H   0  0  0  0  0  0  0  0  0  0  0  0
   -2.6822    0.1465   -4.0186 C   0  0  0  0  0  0  0  0  0  0  0  0
   -3.6776   -0.0404   -4.4120 H   0  0  0  0  0  0  0  0  0  0  0  0
   -1.6426    0.4688   -4.7448 N   0  0  0  0  0  0  0  0  0  0  0  0
   -0.5887    0.6520   -3.8577 C   0  0  0  0  0  0  0  0  0  0  0  0
    0.4223    0.9184   -4.1519 H   0  0  0  0  0  0  0  0  0  0  0  0
    0.4194   -0.2065    0.9924 C   0  0  0  0  0  0  0  0  0  0  0  0
    1.6303   -0.1652    1.1669 O   0  0  0  0  0  0  0  0  0  0  0  0
   -0.4106    0.4671    1.8710 N   0  0  0  0  0  0  0  0  0  0  0  0
   -1.4050    0.3033    1.7492 H   0  0  0  0  0  0  0  0  0  0  0  0
    0.0566    0.9857    3.1507 C   0  0  0  0  0  0  0  0  0  0  0  0
    0.8640    1.7103    2.9999 H   0  0  0  0  0  0  0  0  0  0  0  0
   -0.7612    1.4875    3.6764 H   0  0  0  0  0  0  0  0  0  0  0  0
    0.4279    0.1704    3.7807 H   0  0  0  0  0  0  0  0  0  0  0  0
  1  2  1  0  0  0  0
  2  3  1  0  0  0  0
  2  4  1  0  0  0  0
  2  5  1  0  0  0  0
  5  6  2  0  0  0  0
  5  7  1  0  0  0  0
  7  8  1  0  0  0  0
  7  9  1  0  0  0  0
  9 10  1  0  0  0  0
  9 11  1  0  0  0  0
  9 22  1  0  0  0  0
 11 12  1  0  0  0  0
 11 13  1  0  0  0  0
 11 14  1  0  0  0  0
 14 15  1  0  0  0  0
 14 20  2  0  0  0  0
 15 16  1  0  0  0  0
 15 17  1  0  0  0  0
 17 18  1  0  0  0  0
 17 19  2  0  0  0  0
 19 20  1  0  0  0  0
 20 21  1  0  0  0  0
 22 23  2  0  0  0  0
 22 24  1  0  0  0  0
 24 25  1  0  0  0  0
 24 26  1  0  0  0  0
 26 27  1  0  0  0  0
 26 28  1  0  0  0  0
 26 29  1  0  0  0  0
M  END
$$$$

  -OEChem-03222214043D

 29 29  0     1  0  0  0  0  0999 V2000
   -2.9817   -4.1730    0.6763 H   0  0  0  0  0  0  0  0  0  0  0  0
   -2.9439   -3.2781    0.0485 C   0  0  0  0  0  0  0  0  0  0  0  0
   -3.8418   -2.6827    0.2300 H   0  0  0  0  0  0  0  0  0  0  0  0
   -2.9229   -3.5869   -0.9994 H   0  0  0  0  0  0  0  0  0  0  0  0
   -1.7059   -2.4645    0.3755 C   0  0  0  0  0  0  0  0  0  0  0  0
   -0.9739   -2.8171    1.2817 O   0  0  0  0  0  0  0  0  0  0  0  0
   -1.4310   -1.3198   -0.3472 N   0  0  0  0  0  0  0  0  0  0  0  0
   -1.9739   -1.2186   -1.2001 H   0  0  0  0  0  0  0  0  0  0  0  0
   -0.1031   -0.6771   -0.3724 C   0  0  1  0  0  0  0  0  0  0  0  0
    0.6021   -1.4331   -0.7356 H   0  0  0  0  0  0  0  0  0  0  0  0
   -0.0427    0.5180   -1.3540 C   0  0  0  0  0  0  0  0  0  0  0  0
   -0.3126    1.4334   -0.8169 H   0  0  0  0  0  0  0  0  0  0  0  0
    0.9944    0.6389   -1.6862 H   0  0  0  0  0  0  0  0  0  0  0  0
   -0.9553    0.4250   -2.5604 C   0  0  0  0  0  0  0  0  0  0  0  0
   -2.3333    0.3264   -2.6125 N   0  0  0  0  0  0  0  0  0  0  0  0
   -2.9739    0.4644   -1.8329 H   0  0  0  0  0  0  0  0  0  0  0  0
   -2.7156    0.2544   -3.9399 C   0  0  0  0  0  0  0  0  0  0  0  0
   -3.7410    0.2003   -4.2946 H   0  0  0  0  0  0  0  0  0  0  0  0
   -1.6589    0.2694   -4.7128 N   0  0  0  0  0  0  0  0  0  0  0  0
   -0.5572    0.3801   -3.8716 C   0  0  0  0  0  0  0  0  0  0  0  0
    0.4745    0.4202   -4.2083 H   0  0  0  0  0  0  0  0  0  0  0  0
    0.4289   -0.2058    0.9988 C   0  0  0  0  0  0  0  0  0  0  0  0
    1.6372   -0.1775    1.1927 O   0  0  0  0  0  0  0  0  0  0  0  0
   -0.4074    0.4701    1.8695 N   0  0  0  0  0  0  0  0  0  0  0  0
   -1.4006    0.3110    1.7341 H   0  0  0  0  0  0  0  0  0  0  0  0
    0.0451    0.9637    3.1643 C   0  0  0  0  0  0  0  0  0  0  0  0
    0.8605    1.6837    3.0376 H   0  0  0  0  0  0  0  0  0  0  0  0
   -0.7760    1.4634    3.6869 H   0  0  0  0  0  0  0  0  0  0  0  0
    0.4003    0.1352    3.7862 H   0  0  0  0  0  0  0  0  0  0  0  0
  1  2  1  0  0  0  0
  2  3  1  0  0  0  0
  2  4  1  0  0  0  0
  2  5  1  0  0  0  0
  5  6  2  0  0  0  0
  5  7  1  0  0  0  0
  7  8  1  0  0  0  0
  7  9  1  0  0  0  0
  9 10  1  0  0  0  0
  9 11  1  0  0  0  0
  9 22  1  0  0  0  0
 11 12  1  0  0  0  0
 11 13  1  0  0  0  0
 11 14  1  0  0  0  0
 14 15  1  0  0  0  0
 14 20  2  0  0  0  0
 15 16  1  0  0  0  0
 15 17  1  0  0  0  0
 17 18  1  0  0  0  0
 17 19  2  0  0  0  0
 19 20  1  0  0  0  0
 20 21  1  0  0  0  0
 22 23  2  0  0  0  0
 22 24  1  0  0  0  0
 24 25  1  0  0  0  0
 24 26  1  0  0  0  0
 26 27  1  0  0  0  0
 26 28  1  0  0  0  0
 26 29  1  0  0  0  0
M  END
$$$$

  -OEChem-03222214043D

 29 29  0     1  0  0  0  0  0999 V2000
   -3.0161   -4.1325    0.6034 H   0  0  0  0  0  0  0  0  0  0  0  0
   -2.9662   -3.2244   -0.0043 C   0  0  0  0  0  0  0  0  0  0  0  0
   -3.8488   -2.6142    0.2012 H   0  0  0  0  0  0  0  0  0  0  0  0
   -2.9636   -3.5092   -1.0592 H   0  0  0  0  0  0  0  0  0  0  0  0
   -1.7073   -2.4452    0.3258 C   0  0  0  0  0  0  0  0  0  0  0  0
   -0.9753   -2.8292    1.2194 O   0  0  0  0  0  0  0  0  0  0  0  0
   -1.4100   -1.2957   -0.3791 N   0  0  0  0  0  0  0  0  0  0  0  0
   -1.9674   -1.1453   -1.2165 H   0  0  0  0  0  0  0  0  0  0  0  0
   -0.0776   -0.6597   -0.3785 C   0  0  1  0  0  0  0  0  0  0  0  0
    0.6287   -1.4159   -0.7386 H   0  0  0  0  0  0  0  0  0  0  0  0
   -0.0104    0.5360   -1.3552 C   0  0  0  0  0  0  0  0  0  0  0  0
   -0.2812    1.4570   -0.8282 H   0  0  0  0  0  0  0  0  0  0  0  0
    1.0265    0.6524   -1.6902 H   0  0  0  0  0  0  0  0  0  0  0  0
   -0.9224    0.4045   -2.5548 C   0  0  0  0  0  0  0  0  0  0  0  0
   -2.2934    0.5618   -2.6032 N   0  0  0  0  0  0  0  0  0  0  0  0
   -2.8871    0.9030   -1.8492 H   0  0  0  0  0  0  0  0  0  0  0  0
   -2.7084    0.3569   -3.9064 C   0  0  0  0  0  0  0  0  0  0  0  0
   -3.7337    0.4350   -4.2570 H   0  0  0  0  0  0  0  0  0  0  0  0
   -1.6812    0.0559   -4.6616 N   0  0  0  0  0  0  0  0  0  0  0  0
   -0.5601    0.0930   -3.8390 C   0  0  0  0  0  0  0  0  0  0  0  0
    0.4561   -0.1030   -4.1681 H   0  0  0  0  0  0  0  0  0  0  0  0
    0.4376   -0.2040    1.0036 C   0  0  0  0  0  0  0  0  0  0  0  0
    1.6433   -0.1798    1.2136 O   0  0  0  0  0  0  0  0  0  0  0  0
   -0.4088    0.4684    1.8673 N   0  0  0  0  0  0  0  0  0  0  0  0
   -1.4000    0.3101    1.7181 H   0  0  0  0  0  0  0  0  0  0  0  0
    0.0265    0.9511    3.1721 C   0  0  0  0  0  0  0  0  0  0  0  0
    0.8471    1.6677    3.0622 H   0  0  0  0  0  0  0  0  0  0  0  0
   -0.8002    1.4516    3.6851 H   0  0  0  0  0  0  0  0  0  0  0  0
    0.3680    0.1169    3.7941 H   0  0  0  0  0  0  0  0  0  0  0  0
  1  2  1  0  0  0  0
  2  3  1  0  0  0  0
  2  4  1  0  0  0  0
  2  5  1  0  0  0  0
  5  6  2  0  0  0  0
  5  7  1  0  0  0  0
  7  8  1  0  0  0  0
  7  9  1  0  0  0  0
  9 10  1  0  0  0  0
  9 11  1  0  0  0  0
  9 22  1  0  0  0  0
 11 12  1  0  0  0  0
 11 13  1  0  0  0  0
 11 14  1  0  0  0  0
 14 15  1  0  0  0  0
 14 20  2  0  0  0  0
 15 16  1  0  0  0  0
 15 17  1  0  0  0  0
 17 18  1  0  0  0  0
 17 19  2  0  0  0  0
 19 20  1  0  0  0  0
 20 21  1  0  0  0  0
 22 23  2  0  0  0  0
 22 24  1  0  0  0  0
 24 25  1  0  0  0  0
 24 26  1  0  0  0  0
 26 27  1  0  0  0  0
 26 28  1  0  0  0  0
 26 29  1  0  0  0  0
M  END
$$$$

  -OEChem-03222214043D

 29 29  0     1  0  0  0  0  0999 V2000
   -3.0343   -4.1103    0.5360 H   0  0  0  0  0  0  0  0  0  0  0  0
   -2.9831   -3.1811   -0.0388 C   0  0  0  0  0  0  0  0  0  0  0  0
   -3.8497   -2.5643    0.2102 H   0  0  0  0  0  0  0  0  0  0  0  0
   -3.0109   -3.4260   -1.1035 H   0  0  0  0  0  0  0  0  0  0  0  0
   -1.7033   -2.4358    0.2891 C   0  0  0  0  0  0  0  0  0  0  0  0
   -0.9681   -2.8488    1.1674 O   0  0  0  0  0  0  0  0  0  0  0  0
   -1.3889   -1.2829   -0.4014 N   0  0  0  0  0  0  0  0  0  0  0  0
   -1.9652   -1.0868   -1.2169 H   0  0  0  0  0  0  0  0  0  0  0  0
   -0.0559   -0.6476   -0.3820 C   0  0  1  0  0  0  0  0  0  0  0  0
    0.6549   -1.4008   -0.7401 H   0  0  0  0  0  0  0  0  0  0  0  0
    0.0086    0.5492   -1.3553 C   0  0  0  0  0  0  0  0  0  0  0  0
   -0.2677    1.4716   -0.8332 H   0  0  0  0  0  0  0  0  0  0  0  0
    1.0441    0.6686   -1.6928 H   0  0  0  0  0  0  0  0  0  0  0  0
   -0.9024    0.3884   -2.5497 C   0  0  0  0  0  0  0  0  0  0  0  0
   -2.2166    0.7908   -2.6638 N   0  0  0  0  0  0  0  0  0  0  0  0
   -2.7449    1.3291   -1.9792 H   0  0  0  0  0  0  0  0  0  0  0  0
   -2.6642    0.4557   -3.9286 C   0  0  0  0  0  0  0  0  0  0  0  0
   -3.6585    0.6595   -4.3163 H   0  0  0  0  0  0  0  0  0  0  0  0
   -1.7114   -0.1487   -4.5951 N   0  0  0  0  0  0  0  0  0  0  0  0
   -0.6016   -0.1840   -3.7574 C   0  0  0  0  0  0  0  0  0  0  0  0
    0.3609   -0.6124   -4.0204 H   0  0  0  0  0  0  0  0  0  0  0  0
    0.4457   -0.2002    1.0071 C   0  0  0  0  0  0  0  0  0  0  0  0
    1.6490   -0.1776    1.2299 O   0  0  0  0  0  0  0  0  0  0  0  0
   -0.4094    0.4680    1.8655 N   0  0  0  0  0  0  0  0  0  0  0  0
   -1.3995    0.3145    1.7034 H   0  0  0  0  0  0  0  0  0  0  0  0
    0.0133    0.9440    3.1769 C   0  0  0  0  0  0  0  0  0  0  0  0
    0.8381    1.6578    3.0789 H   0  0  0  0  0  0  0  0  0  0  0  0
   -0.8167    1.4459    3.6831 H   0  0  0  0  0  0  0  0  0  0  0  0
    0.3451    0.1057    3.7987 H   0  0  0  0  0  0  0  0  0  0  0  0
  1  2  1  0  0  0  0
  2  3  1  0  0  0  0
  2  4  1  0  0  0  0
  2  5  1  0  0  0  0
  5  6  2  0  0  0  0
  5  7  1  0  0  0  0
  7  8  1  0  0  0  0
  7  9  1  0  0  0  0
  9 10  1  0  0  0  0
  9 11  1  0  0  0  0
  9 22  1  0  0  0  0
 11 12  1  0  0  0  0
 11 13  1  0  0  0  0
 11 14  1  0  0  0  0
 14 15  1  0  0  0  0
 14 20  2  0  0  0  0
 15 16  1  0  0  0  0
 15 17  1  0  0  0  0
 17 18  1  0  0  0  0
 17 19  2  0  0  0  0
 19 20  1  0  0  0  0
 20 21  1  0  0  0  0
 22 23  2  0  0  0  0
 22 24  1  0  0  0  0
 24 25  1  0  0  0  0
 24 26  1  0  0  0  0
 26 27  1  0  0  0  0
 26 28  1  0  0  0  0
 26 29  1  0  0  0  0
M  END
$$$$

  -OEChem-03222214043D

 29 29  0     1  0  0  0  0  0999 V2000
   -3.0434   -4.0913    0.5281 H   0  0  0  0  0  0  0  0  0  0  0  0
   -2.9880   -3.1591   -0.0414 C   0  0  0  0  0  0  0  0  0  0  0  0
   -3.8398   -2.5301    0.2271 H   0  0  0  0  0  0  0  0  0  0  0  0
   -3.0390   -3.3955   -1.1071 H   0  0  0  0  0  0  0  0  0  0  0  0
   -1.6914   -2.4357    0.2683 C   0  0  0  0  0  0  0  0  0  0  0  0
   -0.9444   -2.8676    1.1273 O   0  0  0  0  0  0  0  0  0  0  0  0
   -1.3743   -1.2798   -0.4155 N   0  0  0  0  0  0  0  0  0  0  0  0
   -1.9711   -1.0527   -1.2082 H   0  0  0  0  0  0  0  0  0  0  0  0
   -0.0428   -0.6408   -0.3886 C   0  0  1  0  0  0  0  0  0  0  0  0
    0.6713   -1.3915   -0.7446 H   0  0  0  0  0  0  0  0  0  0  0  0
    0.0222    0.5571   -1.3602 C   0  0  0  0  0  0  0  0  0  0  0  0
   -0.2628    1.4760   -0.8369 H   0  0  0  0  0  0  0  0  0  0  0  0
    1.0577    0.6848   -1.6948 H   0  0  0  0  0  0  0  0  0  0  0  0
   -0.8841    0.3879   -2.5563 C   0  0  0  0  0  0  0  0  0  0  0  0
   -2.0878    1.0160   -2.7920 N   0  0  0  0  0  0  0  0  0  0  0  0
   -2.5149    1.7396   -2.2163 H   0  0  0  0  0  0  0  0  0  0  0  0
   -2.5849    0.5628   -3.9999 C   0  0  0  0  0  0  0  0  0  0  0  0
   -3.5166    0.8865   -4.4552 H   0  0  0  0  0  0  0  0  0  0  0  0
   -1.7678   -0.3230   -4.5158 N   0  0  0  0  0  0  0  0  0  0  0  0
   -0.6936   -0.4300   -3.6390 C   0  0  0  0  0  0  0  0  0  0  0  0
    0.1638   -1.0807   -3.7845 H   0  0  0  0  0  0  0  0  0  0  0  0
    0.4490   -0.1981    1.0051 C   0  0  0  0  0  0  0  0  0  0  0  0
    1.6507   -0.1726    1.2360 O   0  0  0  0  0  0  0  0  0  0  0  0
   -0.4139    0.4637    1.8605 N   0  0  0  0  0  0  0  0  0  0  0  0
   -1.4027    0.3111    1.6885 H   0  0  0  0  0  0  0  0  0  0  0  0
   -0.0032    0.9321    3.1786 C   0  0  0  0  0  0  0  0  0  0  0  0
    0.8213    1.6478    3.0921 H   0  0  0  0  0  0  0  0  0  0  0  0
   -0.8385    1.4298    3.6805 H   0  0  0  0  0  0  0  0  0  0  0  0
    0.3244    0.0907    3.7984 H   0  0  0  0  0  0  0  0  0  0  0  0
  1  2  1  0  0  0  0
  2  3  1  0  0  0  0
  2  4  1  0  0  0  0
  2  5  1  0  0  0  0
  5  6  2  0  0  0  0
  5  7  1  0  0  0  0
  7  8  1  0  0  0  0
  7  9  1  0  0  0  0
  9 10  1  0  0  0  0
  9 11  1  0  0  0  0
  9 22  1  0  0  0  0
 11 12  1  0  0  0  0
 11 13  1  0  0  0  0
 11 14  1  0  0  0  0
 14 15  1  0  0  0  0
 14 20  2  0  0  0  0
 15 16  1  0  0  0  0
 15 17  1  0  0  0  0
 17 18  1  0  0  0  0
 17 19  2  0  0  0  0
 19 20  1  0  0  0  0
 20 21  1  0  0  0  0
 22 23  2  0  0  0  0
 22 24  1  0  0  0  0
 24 25  1  0  0  0  0
 24 26  1  0  0  0  0
 26 27  1  0  0  0  0
 26 28  1  0  0  0  0
 26 29  1  0  0  0  0
M  END
$$$$

  -OEChem-03222214043D

 29 29  0     1  0  0  0  0  0999 V2000
   -3.0452   -4.0890    0.5390 H   0  0  0  0  0  0  0  0  0  0  0  0
   -2.9889   -3.1552   -0.0275 C   0  0  0  0  0  0  0  0  0  0  0  0
   -3.8291   -2.5179    0.2580 H   0  0  0  0  0  0  0  0  0  0  0  0
   -3.0607   -3.3867   -1.0932 H   0  0  0  0  0  0  0  0  0  0  0  0
   -1.6794   -2.4473    0.2626 C   0  0  0  0  0  0  0  0  0  0  0  0
   -0.9187   -2.8939    1.1020 O   0  0  0  0  0  0  0  0  0  0  0  0
   -1.3623   -1.2909   -0.4200 N   0  0  0  0  0  0  0  0  0  0  0  0
   -1.9817   -1.0367   -1.1866 H   0  0  0  0  0  0  0  0  0  0  0  0
   -0.0341   -0.6447   -0.3905 C   0  0  1  0  0  0  0  0  0  0  0  0
    0.6852   -1.3929   -0.7414 H   0  0  0  0  0  0  0  0  0  0  0  0
    0.0302    0.5505   -1.3664 C   0  0  0  0  0  0  0  0  0  0  0  0
   -0.2704    1.4631   -0.8410 H   0  0  0  0  0  0  0  0  0  0  0  0
    1.0661    0.6931   -1.6930 H   0  0  0  0  0  0  0  0  0  0  0  0
   -0.8664    0.3822   -2.5709 C   0  0  0  0  0  0  0  0  0  0  0  0
   -1.9083    1.1955   -2.9599 N   0  0  0  0  0  0  0  0  0  0  0  0
   -2.1952    2.0657   -2.5150 H   0  0  0  0  0  0  0  0  0  0  0  0
   -2.4732    0.6620   -4.1036 C   0  0  0  0  0  0  0  0  0  0  0  0
   -3.3132    1.0885   -4.6447 H   0  0  0  0  0  0  0  0  0  0  0  0
   -1.8504   -0.4423   -4.4375 N   0  0  0  0  0  0  0  0  0  0  0  0
   -0.8335   -0.6197   -3.5062 C   0  0  0  0  0  0  0  0  0  0  0  0
   -0.1284   -1.4459   -3.5077 H   0  0  0  0  0  0  0  0  0  0  0  0
    0.4496   -0.1984    1.0053 C   0  0  0  0  0  0  0  0  0  0  0  0
    1.6499   -0.1683    1.2427 O   0  0  0  0  0  0  0  0  0  0  0  0
   -0.4204    0.4593    1.8569 N   0  0  0  0  0  0  0  0  0  0  0  0
   -1.4081    0.3118    1.6748 H   0  0  0  0  0  0  0  0  0  0  0  0
   -0.0199    0.9309    3.1769 C   0  0  0  0  0  0  0  0  0  0  0  0
    0.8008    1.6514    3.0948 H   0  0  0  0  0  0  0  0  0  0  0  0
   -0.8609    1.4236    3.6737 H   0  0  0  0  0  0  0  0  0  0  0  0
    0.3089    0.0918    3.7992 H   0  0  0  0  0  0  0  0  0  0  0  0
  1  2  1  0  0  0  0
  2  3  1  0  0  0  0
  2  4  1  0  0  0  0
  2  5  1  0  0  0  0
  5  6  2  0  0  0  0
  5  7  1  0  0  0  0
  7  8  1  0  0  0  0
  7  9  1  0  0  0  0
  9 10  1  0  0  0  0
  9 11  1  0  0  0  0
  9 22  1  0  0  0  0
 11 12  1  0  0  0  0
 11 13  1  0  0  0  0
 11 14  1  0  0  0  0
 14 15  1  0  0  0  0
 14 20  2  0  0  0  0
 15 16  1  0  0  0  0
 15 17  1  0  0  0  0
 17 18  1  0  0  0  0
 17 19  2  0  0  0  0
 19 20  1  0  0  0  0
 20 21  1  0  0  0  0
 22 23  2  0  0  0  0
 22 24  1  0  0  0  0
 24 25  1  0  0  0  0
 24 26  1  0  0  0  0
 26 27  1  0  0  0  0
 26 28  1  0  0  0  0
 26 29  1  0  0  0  0
M  END
$$$$

  -OEChem-03222214043D

 29 29  0     1  0  0  0  0  0999 V2000
   -3.0353   -4.1028    0.5990 H   0  0  0  0  0  0  0  0  0  0  0  0
   -2.9881   -3.1701    0.0297 C   0  0  0  0  0  0  0  0  0  0  0  0
   -3.8138   -2.5251    0.3394 H   0  0  0  0  0  0  0  0  0  0  0  0
   -3.0936   -3.4020   -1.0330 H   0  0  0  0  0  0  0  0  0  0  0  0
   -1.6645   -2.4732    0.2801 C   0  0  0  0  0  0  0  0  0  0  0  0
   -0.8808   -2.9279    1.0936 O   0  0  0  0  0  0  0  0  0  0  0  0
   -1.3579   -1.3186   -0.4105 N   0  0  0  0  0  0  0  0  0  0  0  0
   -2.0085   -1.0393   -1.1417 H   0  0  0  0  0  0  0  0  0  0  0  0
   -0.0361   -0.6589   -0.3890 C   0  0  1  0  0  0  0  0  0  0  0  0
    0.6896   -1.4045   -0.7319 H   0  0  0  0  0  0  0  0  0  0  0  0
    0.0241    0.5275   -1.3765 C   0  0  0  0  0  0  0  0  0  0  0  0
   -0.2924    1.4351   -0.8523 H   0  0  0  0  0  0  0  0  0  0  0  0
    1.0611    0.6836   -1.6928 H   0  0  0  0  0  0  0  0  0  0  0  0
   -0.8597    0.3656   -2.5934 C   0  0  0  0  0  0  0  0  0  0  0  0
   -1.6930    1.3138   -3.1457 N   0  0  0  0  0  0  0  0  0  0  0  0
   -1.8125    2.2732   -2.8256 H   0  0  0  0  0  0  0  0  0  0  0  0
   -2.3217    0.7577   -4.2442 C   0  0  0  0  0  0  0  0  0  0  0  0
   -3.0394    1.2686   -4.8800 H   0  0  0  0  0  0  0  0  0  0  0  0
   -1.9301   -0.4834   -4.4039 N   0  0  0  0  0  0  0  0  0  0  0  0
   -1.0007   -0.7343   -3.4017 C   0  0  0  0  0  0  0  0  0  0  0  0
   -0.4742   -1.6750   -3.2679 H   0  0  0  0  0  0  0  0  0  0  0  0
    0.4426   -0.1990    1.0039 C   0  0  0  0  0  0  0  0  0  0  0  0
    1.6421   -0.1575    1.2434 O   0  0  0  0  0  0  0  0  0  0  0  0
   -0.4344    0.4548    1.8514 N   0  0  0  0  0  0  0  0  0  0  0  0
   -1.4211    0.3047    1.6658 H   0  0  0  0  0  0  0  0  0  0  0  0
   -0.0396    0.9364    3.1696 C   0  0  0  0  0  0  0  0  0  0  0  0
    0.7754    1.6629    3.0848 H   0  0  0  0  0  0  0  0  0  0  0  0
   -0.8851    1.4249    3.6631 H   0  0  0  0  0  0  0  0  0  0  0  0
    0.2953    0.1028    3.7960 H   0  0  0  0  0  0  0  0  0  0  0  0
  1  2  1  0  0  0  0
  2  3  1  0  0  0  0
  2  4  1  0  0  0  0
  2  5  1  0  0  0  0
  5  6  2  0  0  0  0
  5  7  1  0  0  0  0
  7  8  1  0  0  0  0
  7  9  1  0  0  0  0
  9 10  1  0  0  0  0
  9 11  1  0  0  0  0
  9 22  1  0  0  0  0
 11 12  1  0  0  0  0
 11 13  1  0  0  0  0
 11 14  1  0  0  0  0
 14 15  1  0  0  0  0
 14 20  2  0  0  0  0
 15 16  1  0  0  0  0
 15 17  1  0  0  0  0
 17 18  1  0  0  0  0
 17 19  2  0  0  0  0
 19 20  1  0  0  0  0
 20 21  1  0  0  0  0
 22 23  2  0  0  0  0
 22 24  1  0  0  0  0
 24 25  1  0  0  0  0
 24 26  1  0  0  0  0
 26 27  1  0  0  0  0
 26 28  1  0  0  0  0
 26 29  1  0  0  0  0
M  END
$$$$

  -OEChem-03222214043D

 29 29  0     1  0  0  0  0  0999 V2000
   -3.0207   -4.1301    0.6842 H   0  0  0  0  0  0  0  0  0  0  0  0
   -2.9875   -3.2006    0.1087 C   0  0  0  0  0  0  0  0  0  0  0  0
   -3.8013   -2.5514    0.4401 H   0  0  0  0  0  0  0  0  0  0  0  0
   -3.1268   -3.4383   -0.9489 H   0  0  0  0  0  0  0  0  0  0  0  0
   -1.6538   -2.5078    0.3141 C   0  0  0  0  0  0  0  0  0  0  0  0
   -0.8445   -2.9648    1.1005 O   0  0  0  0  0  0  0  0  0  0  0  0
   -1.3650   -1.3555   -0.3885 N   0  0  0  0  0  0  0  0  0  0  0  0
   -2.0503   -1.0547   -1.0776 H   0  0  0  0  0  0  0  0  0  0  0  0
   -0.0519   -0.6783   -0.3846 C   0  0  1  0  0  0  0  0  0  0  0  0
    0.6789   -1.4213   -0.7229 H   0  0  0  0  0  0  0  0  0  0  0  0
    0.0009    0.4977   -1.3867 C   0  0  0  0  0  0  0  0  0  0  0  0
   -0.3265    1.4034   -0.8652 H   0  0  0  0  0  0  0  0  0  0  0  0
    1.0394    0.6618   -1.6942 H   0  0  0  0  0  0  0  0  0  0  0  0
   -0.8705    0.3469   -2.6163 C   0  0  0  0  0  0  0  0  0  0  0  0
   -1.4589    1.3711   -3.3260 N   0  0  0  0  0  0  0  0  0  0  0  0
   -1.3924    2.3656   -3.1171 H   0  0  0  0  0  0  0  0  0  0  0  0
   -2.1397    0.8296   -4.4003 C   0  0  0  0  0  0  0  0  0  0  0  0
   -2.7077    1.3974   -5.1320 H   0  0  0  0  0  0  0  0  0  0  0  0
   -2.0041   -0.4743   -4.4055 N   0  0  0  0  0  0  0  0  0  0  0  0
   -1.1917   -0.7860   -3.3228 C   0  0  0  0  0  0  0  0  0  0  0  0
   -0.8616   -1.7896   -3.0709 H   0  0  0  0  0  0  0  0  0  0  0  0
    0.4313   -0.1999    1.0005 C   0  0  0  0  0  0  0  0  0  0  0  0
    1.6319   -0.1403    1.2307 O   0  0  0  0  0  0  0  0  0  0  0  0
   -0.4477    0.4497    1.8490 N   0  0  0  0  0  0  0  0  0  0  0  0
   -1.4344    0.2944    1.6682 H   0  0  0  0  0  0  0  0  0  0  0  0
   -0.0501    0.9537    3.1579 C   0  0  0  0  0  0  0  0  0  0  0  0
    0.7564    1.6880    3.0588 H   0  0  0  0  0  0  0  0  0  0  0  0
   -0.8980    1.4397    3.6499 H   0  0  0  0  0  0  0  0  0  0  0  0
    0.2977    0.1325    3.7935 H   0  0  0  0  0  0  0  0  0  0  0  0
  1  2  1  0  0  0  0
  2  3  1  0  0  0  0
  2  4  1  0  0  0  0
  2  5  1  0  0  0  0
  5  6  2  0  0  0  0
  5  7  1  0  0  0  0
  7  8  1  0  0  0  0
  7  9  1  0  0  0  0
  9 10  1  0  0  0  0
  9 11  1  0  0  0  0
  9 22  1  0  0  0  0
 11 12  1  0  0  0  0
 11 13  1  0  0  0  0
 11 14  1  0  0  0  0
 14 15  1  0  0  0  0
 14 20  2  0  0  0  0
 15 16  1  0  0  0  0
 15 17  1  0  0  0  0
 17 18  1  0  0  0  0
 17 19  2  0  0  0  0
 19 20  1  0  0  0  0
 20 21  1  0  0  0  0
 22 23  2  0  0  0  0
 22 24  1  0  0  0  0
 24 25  1  0  0  0  0
 24 26  1  0  0  0  0
 26 27  1  0  0  0  0
 26 28  1  0  0  0  0
 26 29  1  0  0  0  0
M  END
$$$$

  -OEChem-03222214043D

 29 29  0     1  0  0  0  0  0999 V2000
   -2.9990   -4.1548    0.8000 H   0  0  0  0  0  0  0  0  0  0  0  0
   -2.9825   -3.2354    0.2079 C   0  0  0  0  0  0  0  0  0  0  0  0
   -3.7815   -2.5769    0.5564 H   0  0  0  0  0  0  0  0  0  0  0  0
   -3.1597   -3.4901   -0.8399 H   0  0  0  0  0  0  0  0  0  0  0  0
   -1.6395   -2.5457    0.3543 C   0  0  0  0  0  0  0  0  0  0  0  0
   -0.7990   -3.0021    1.1077 O   0  0  0  0  0  0  0  0  0  0  0  0
   -1.3776   -1.3957   -0.3627 N   0  0  0  0  0  0  0  0  0  0  0  0
   -2.1014   -1.0743   -1.0005 H   0  0  0  0  0  0  0  0  0  0  0  0
   -0.0760   -0.6985   -0.3832 C   0  0  1  0  0  0  0  0  0  0  0  0
    0.6596   -1.4382   -0.7186 H   0  0  0  0  0  0  0  0  0  0  0  0
   -0.0310    0.4661   -1.4002 C   0  0  0  0  0  0  0  0  0  0  0  0
   -0.3614    1.3736   -0.8840 H   0  0  0  0  0  0  0  0  0  0  0  0
    1.0097    0.6295   -1.7003 H   0  0  0  0  0  0  0  0  0  0  0  0
   -0.8898    0.3325   -2.6436 C   0  0  0  0  0  0  0  0  0  0  0  0
   -1.2062    1.3691   -3.4956 N   0  0  0  0  0  0  0  0  0  0  0  0
   -0.9330    2.3438   -3.3842 H   0  0  0  0  0  0  0  0  0  0  0  0
   -1.9441    0.8697   -4.5521 C   0  0  0  0  0  0  0  0  0  0  0  0
   -2.3461    1.4604   -5.3706 H   0  0  0  0  0  0  0  0  0  0  0  0
   -2.0918   -0.4257   -4.4217 N   0  0  0  0  0  0  0  0  0  0  0  0
   -1.4117   -0.7781   -3.2633 C   0  0  0  0  0  0  0  0  0  0  0  0
   -1.3037   -1.7999   -2.9124 H   0  0  0  0  0  0  0  0  0  0  0  0
    0.4147   -0.2009    0.9927 C   0  0  0  0  0  0  0  0  0  0  0  0
    1.6167   -0.1143    1.2063 O   0  0  0  0  0  0  0  0  0  0  0  0
   -0.4649    0.4417    1.8462 N   0  0  0  0  0  0  0  0  0  0  0  0
   -1.4514    0.2695    1.6802 H   0  0  0  0  0  0  0  0  0  0  0  0
   -0.0578    0.9741    3.1407 C   0  0  0  0  0  0  0  0  0  0  0  0
    0.7356    1.7187    3.0178 H   0  0  0  0  0  0  0  0  0  0  0  0
   -0.9064    1.4555    3.6358 H   0  0  0  0  0  0  0  0  0  0  0  0
    0.3115    0.1696    3.7854 H   0  0  0  0  0  0  0  0  0  0  0  0
  1  2  1  0  0  0  0
  2  3  1  0  0  0  0
  2  4  1  0  0  0  0
  2  5  1  0  0  0  0
  5  6  2  0  0  0  0
  5  7  1  0  0  0  0
  7  8  1  0  0  0  0
  7  9  1  0  0  0  0
  9 10  1  0  0  0  0
  9 11  1  0  0  0  0
  9 22  1  0  0  0  0
 11 12  1  0  0  0  0
 11 13  1  0  0  0  0
 11 14  1  0  0  0  0
 14 15  1  0  0  0  0
 14 20  2  0  0  0  0
 15 16  1  0  0  0  0
 15 17  1  0  0  0  0
 17 18  1  0  0  0  0
 17 19  2  0  0  0  0
 19 20  1  0  0  0  0
 20 21  1  0  0  0  0
 22 23  2  0  0  0  0
 22 24  1  0  0  0  0
 24 25  1  0  0  0  0
 24 26  1  0  0  0  0
 26 27  1  0  0  0  0
 26 28  1  0  0  0  0
 26 29  1  0  0  0  0
M  END
$$$$

  -OEChem-03222214043D

 29 29  0     1  0  0  0  0  0999 V2000
   -2.8448   -4.2436    1.0363 H   0  0  0  0  0  0  0  0  0  0  0  0
   -2.8964   -3.3366    0.4272 C   0  0  0  0  0  0  0  0  0  0  0  0
   -3.6580   -2.6744    0.8454 H   0  0  0  0  0  0  0  0  0  0  0  0
   -3.1819   -3.6135   -0.5906 H   0  0  0  0  0  0  0  0  0  0  0  0
   -1.5493   -2.6394    0.4159 C   0  0  0  0  0  0  0  0  0  0  0  0
   -0.6199   -3.0989    1.0541 O   0  0  0  0  0  0  0  0  0  0  0  0
   -1.3861   -1.4769   -0.3108 N   0  0  0  0  0  0  0  0  0  0  0  0
   -2.2076   -1.1053   -0.7769 H   0  0  0  0  0  0  0  0  0  0  0  0
   -0.1301   -0.7098   -0.3897 C   0  0  1  0  0  0  0  0  0  0  0  0
    0.6242   -1.4263   -0.7347 H   0  0  0  0  0  0  0  0  0  0  0  0
   -0.1222    0.4469   -1.4257 C   0  0  0  0  0  0  0  0  0  0  0  0
   -0.1919    1.3890   -0.8709 H   0  0  0  0  0  0  0  0  0  0  0  0
    0.8584    0.4440   -1.9138 H   0  0  0  0  0  0  0  0  0  0  0  0
   -1.1880    0.5243   -2.5084 C   0  0  0  0  0  0  0  0  0  0  0  0
   -1.2104    1.5407   -3.4411 N   0  0  0  0  0  0  0  0  0  0  0  0
   -0.5707    2.3323   -3.4784 H   0  0  0  0  0  0  0  0  0  0  0  0
   -2.2408    1.3187   -4.3334 C   0  0  0  0  0  0  0  0  0  0  0  0
   -2.5038    1.9699   -5.1624 H   0  0  0  0  0  0  0  0  0  0  0  0
   -2.8572    0.2041   -4.0309 N   0  0  0  0  0  0  0  0  0  0  0  0
   -2.1969   -0.3141   -2.9254 C   0  0  0  0  0  0  0  0  0  0  0  0
   -2.4546   -1.2713   -2.4880 H   0  0  0  0  0  0  0  0  0  0  0  0
    0.3822   -0.1907    0.9710 C   0  0  0  0  0  0  0  0  0  0  0  0
    1.5846   -0.0428    1.1453 O   0  0  0  0  0  0  0  0  0  0  0  0
   -0.5004    0.3972    1.8603 N   0  0  0  0  0  0  0  0  0  0  0  0
   -1.4853    0.2019    1.7134 H   0  0  0  0  0  0  0  0  0  0  0  0
   -0.0809    0.9540    3.1404 C   0  0  0  0  0  0  0  0  0  0  0  0
    0.6584    1.7479    2.9906 H   0  0  0  0  0  0  0  0  0  0  0  0
   -0.9400    1.3799    3.6673 H   0  0  0  0  0  0  0  0  0  0  0  0
    0.3620    0.1742    3.7689 H   0  0  0  0  0  0  0  0  0  0  0  0
  1  2  1  0  0  0  0
  2  3  1  0  0  0  0
  2  4  1  0  0  0  0
  2  5  1  0  0  0  0
  5  6  2  0  0  0  0
  5  7  1  0  0  0  0
  7  8  1  0  0  0  0
  7  9  1  0  0  0  0
  9 10  1  0  0  0  0
  9 11  1  0  0  0  0
  9 22  1  0  0  0  0
 11 12  1  0  0  0  0
 11 13  1  0  0  0  0
 11 14  1  0  0  0  0
 14 15  1  0  0  0  0
 14 20  2  0  0  0  0
 15 16  1  0  0  0  0
 15 17  1  0  0  0  0
 17 18  1  0  0  0  0
 17 19  2  0  0  0  0
 19 20  1  0  0  0  0
 20 21  1  0  0  0  0
 22 23  2  0  0  0  0
 22 24  1  0  0  0  0
 24 25  1  0  0  0  0
 24 26  1  0  0  0  0
 26 27  1  0  0  0  0
 26 28  1  0  0  0  0
 26 29  1  0  0  0  0
M  END
$$$$

  -OEChem-03222214043D

 29 29  0     1  0  0  0  0  0999 V2000
   -2.8016   -4.2565    1.1140 H   0  0  0  0  0  0  0  0  0  0  0  0
   -2.8742   -3.3573    0.4956 C   0  0  0  0  0  0  0  0  0  0  0  0
   -3.6257   -2.6928    0.9281 H   0  0  0  0  0  0  0  0  0  0  0  0
   -3.1881   -3.6474   -0.5102 H   0  0  0  0  0  0  0  0  0  0  0  0
   -1.5302   -2.6564    0.4370 C   0  0  0  0  0  0  0  0  0  0  0  0
   -0.5792   -3.1121    1.0457 O   0  0  0  0  0  0  0  0  0  0  0  0
   -1.3938   -1.4947   -0.2967 N   0  0  0  0  0  0  0  0  0  0  0  0
   -2.2320   -1.1249   -0.7288 H   0  0  0  0  0  0  0  0  0  0  0  0
   -0.1470   -0.7168   -0.4014 C   0  0  1  0  0  0  0  0  0  0  0  0
    0.6053   -1.4325   -0.7528 H   0  0  0  0  0  0  0  0  0  0  0  0
   -0.1499    0.4343   -1.4444 C   0  0  0  0  0  0  0  0  0  0  0  0
   -0.1998    1.3842   -0.9010 H   0  0  0  0  0  0  0  0  0  0  0  0
    0.8261    0.4112   -1.9410 H   0  0  0  0  0  0  0  0  0  0  0  0
   -1.2192    0.5180   -2.5246 C   0  0  0  0  0  0  0  0  0  0  0  0
   -1.0672    1.3394   -3.6232 N   0  0  0  0  0  0  0  0  0  0  0  0
   -0.2752    1.9532   -3.8056 H   0  0  0  0  0  0  0  0  0  0  0  0
   -2.1631    1.2034   -4.4518 C   0  0  0  0  0  0  0  0  0  0  0  0
   -2.3126    1.7372   -5.3860 H   0  0  0  0  0  0  0  0  0  0  0  0
   -2.9988    0.3343   -3.9424 N   0  0  0  0  0  0  0  0  0  0  0  0
   -2.4233   -0.1074   -2.7591 C   0  0  0  0  0  0  0  0  0  0  0  0
   -2.8960   -0.8519   -2.1310 H   0  0  0  0  0  0  0  0  0  0  0  0
    0.3867   -0.1886    0.9478 C   0  0  0  0  0  0  0  0  0  0  0  0
    1.5913   -0.0351    1.1008 O   0  0  0  0  0  0  0  0  0  0  0  0
   -0.4821    0.3948    1.8534 N   0  0  0  0  0  0  0  0  0  0  0  0
   -1.4691    0.2002    1.7224 H   0  0  0  0  0  0  0  0  0  0  0  0
   -0.0417    0.9590    3.1234 C   0  0  0  0  0  0  0  0  0  0  0  0
    0.6954    1.7516    2.9571 H   0  0  0  0  0  0  0  0  0  0  0  0
   -0.8919    1.3886    3.6619 H   0  0  0  0  0  0  0  0  0  0  0  0
    0.4104    0.1825    3.7494 H   0  0  0  0  0  0  0  0  0  0  0  0
  1  2  1  0  0  0  0
  2  3  1  0  0  0  0
  2  4  1  0  0  0  0
  2  5  1  0  0  0  0
  5  6  2  0  0  0  0
  5  7  1  0  0  0  0
  7  8  1  0  0  0  0
  7  9  1  0  0  0  0
  9 10  1  0  0  0  0
  9 11  1  0  0  0  0
  9 22  1  0  0  0  0
 11 12  1  0  0  0  0
 11 13  1  0  0  0  0
 11 14  1  0  0  0  0
 14 15  1  0  0  0  0
 14 20  2  0  0  0  0
 15 16  1  0  0  0  0
 15 17  1  0  0  0  0
 17 18  1  0  0  0  0
 17 19  2  0  0  0  0
 19 20  1  0  0  0  0
 20 21  1  0  0  0  0
 22 23  2  0  0  0  0
 22 24  1  0  0  0  0
 24 25  1  0  0  0  0
 24 26  1  0  0  0  0
 26 27  1  0  0  0  0
 26 28  1  0  0  0  0
 26 29  1  0  0  0  0
M  END
$$$$

  -OEChem-03222214043D

 29 29  0     1  0  0  0  0  0999 V2000
   -2.7620   -4.3373    0.9467 H   0  0  0  0  0  0  0  0  0  0  0  0
   -2.8048   -3.4591    0.2962 C   0  0  0  0  0  0  0  0  0  0  0  0
   -3.6994   -2.8820    0.5419 H   0  0  0  0  0  0  0  0  0  0  0  0
   -2.8688   -3.7942   -0.7419 H   0  0  0  0  0  0  0  0  0  0  0  0
   -1.5665   -2.6052    0.4908 C   0  0  0  0  0  0  0  0  0  0  0  0
   -0.7389   -2.9193    1.3267 O   0  0  0  0  0  0  0  0  0  0  0  0
   -1.3895   -1.4759   -0.2844 N   0  0  0  0  0  0  0  0  0  0  0  0
   -2.0238   -1.3939   -1.0722 H   0  0  0  0  0  0  0  0  0  0  0  0
   -0.1182   -0.7307   -0.3682 C   0  0  1  0  0  0  0  0  0  0  0  0
    0.6346   -1.4606   -0.6865 H   0  0  0  0  0  0  0  0  0  0  0  0
   -0.0958    0.4179   -1.4161 C   0  0  0  0  0  0  0  0  0  0  0  0
   -0.1290    1.3793   -0.8915 H   0  0  0  0  0  0  0  0  0  0  0  0
    0.8758    0.3736   -1.9193 H   0  0  0  0  0  0  0  0  0  0  0  0
   -1.1808    0.4751   -2.4772 C   0  0  0  0  0  0  0  0  0  0  0  0
   -0.9949    0.9960   -3.7407 N   0  0  0  0  0  0  0  0  0  0  0  0
   -0.1140    1.3289   -4.1285 H   0  0  0  0  0  0  0  0  0  0  0  0
   -2.2011    0.9892   -4.4144 C   0  0  0  0  0  0  0  0  0  0  0  0
   -2.3480    1.3170   -5.4396 H   0  0  0  0  0  0  0  0  0  0  0  0
   -3.1454    0.5282   -3.6321 N   0  0  0  0  0  0  0  0  0  0  0  0
   -2.5346    0.2435   -2.4192 C   0  0  0  0  0  0  0  0  0  0  0  0
   -3.0795   -0.0852   -1.5404 H   0  0  0  0  0  0  0  0  0  0  0  0
    0.3793   -0.1655    0.9806 C   0  0  0  0  0  0  0  0  0  0  0  0
    1.5821   -0.0321    1.1666 O   0  0  0  0  0  0  0  0  0  0  0  0
   -0.5075    0.4711    1.8304 N   0  0  0  0  0  0  0  0  0  0  0  0
   -1.4903    0.2631    1.6835 H   0  0  0  0  0  0  0  0  0  0  0  0
   -0.0997    1.0556    3.1016 C   0  0  0  0  0  0  0  0  0  0  0  0
    0.6510    1.8369    2.9422 H   0  0  0  0  0  0  0  0  0  0  0  0
   -0.9611    1.5045    3.6051 H   0  0  0  0  0  0  0  0  0  0  0  0
    0.3246    0.2873    3.7566 H   0  0  0  0  0  0  0  0  0  0  0  0
  1  2  1  0  0  0  0
  2  3  1  0  0  0  0
  2  4  1  0  0  0  0
  2  5  1  0  0  0  0
  5  6  2  0  0  0  0
  5  7  1  0  0  0  0
  7  8  1  0  0  0  0
  7  9  1  0  0  0  0
  9 10  1  0  0  0  0
  9 11  1  0  0  0  0
  9 22  1  0  0  0  0
 11 12  1  0  0  0  0
 11 13  1  0  0  0  0
 11 14  1  0  0  0  0
 14 15  1  0  0  0  0
 14 20  2  0  0  0  0
 15 16  1  0  0  0  0
 15 17  1  0  0  0  0
 17 18  1  0  0  0  0
 17 19  2  0  0  0  0
 19 20  1  0  0  0  0
 20 21  1  0  0  0  0
 22 23  2  0  0  0  0
 22 24  1  0  0  0  0
 24 25  1  0  0  0  0
 24 26  1  0  0  0  0
 26 27  1  0  0  0  0
 26 28  1  0  0  0  0
 26 29  1  0  0  0  0
M  END
$$$$

  -OEChem-03222214043D

 29 29  0     1  0  0  0  0  0999 V2000
   -2.8830   -4.2788    0.8185 H   0  0  0  0  0  0  0  0  0  0  0  0
   -2.8971   -3.3720    0.2071 C   0  0  0  0  0  0  0  0  0  0  0  0
   -3.7623   -2.7683    0.4917 H   0  0  0  0  0  0  0  0  0  0  0  0
   -2.9901   -3.6585   -0.8433 H   0  0  0  0  0  0  0  0  0  0  0  0
   -1.6206   -2.5804    0.4192 C   0  0  0  0  0  0  0  0  0  0  0  0
   -0.8070   -2.9509    1.2458 O   0  0  0  0  0  0  0  0  0  0  0  0
   -1.3947   -1.4388   -0.3239 N   0  0  0  0  0  0  0  0  0  0  0  0
   -2.0287   -1.2976   -1.1052 H   0  0  0  0  0  0  0  0  0  0  0  0
   -0.0983   -0.7327   -0.3770 C   0  0  1  0  0  0  0  0  0  0  0  0
    0.6352   -1.4750   -0.7112 H   0  0  0  0  0  0  0  0  0  0  0  0
   -0.0549    0.4327   -1.4024 C   0  0  0  0  0  0  0  0  0  0  0  0
   -0.0854    1.3860   -0.8627 H   0  0  0  0  0  0  0  0  0  0  0  0
    0.9122    0.3960   -1.9143 H   0  0  0  0  0  0  0  0  0  0  0  0
   -1.1613    0.4819   -2.4366 C   0  0  0  0  0  0  0  0  0  0  0  0
   -0.9944    0.7121   -3.7853 N   0  0  0  0  0  0  0  0  0  0  0  0
   -0.1059    0.8049   -4.2746 H   0  0  0  0  0  0  0  0  0  0  0  0
   -2.2395    0.7981   -4.3794 C   0  0  0  0  0  0  0  0  0  0  0  0
   -2.4174    0.9485   -5.4406 H   0  0  0  0  0  0  0  0  0  0  0  0
   -3.1777    0.6704   -3.4725 N   0  0  0  0  0  0  0  0  0  0  0  0
   -2.5223    0.5197   -2.2587 C   0  0  0  0  0  0  0  0  0  0  0  0
   -3.0254    0.4547   -1.2986 H   0  0  0  0  0  0  0  0  0  0  0  0
    0.4099   -0.2143    0.9860 C   0  0  0  0  0  0  0  0  0  0  0  0
    1.6154   -0.1255    1.1800 O   0  0  0  0  0  0  0  0  0  0  0  0
   -0.4597    0.4325    1.8461 N   0  0  0  0  0  0  0  0  0  0  0  0
   -1.4477    0.2564    1.6931 H   0  0  0  0  0  0  0  0  0  0  0  0
   -0.0386    0.9755    3.1317 C   0  0  0  0  0  0  0  0  0  0  0  0
    0.7533    1.7193    2.9943 H   0  0  0  0  0  0  0  0  0  0  0  0
   -0.8821    1.4611    3.6315 H   0  0  0  0  0  0  0  0  0  0  0  0
    0.3368    0.1761    3.7791 H   0  0  0  0  0  0  0  0  0  0  0  0
  1  2  1  0  0  0  0
  2  3  1  0  0  0  0
  2  4  1  0  0  0  0
  2  5  1  0  0  0  0
  5  6  2  0  0  0  0
  5  7  1  0  0  0  0
  7  8  1  0  0  0  0
  7  9  1  0  0  0  0
  9 10  1  0  0  0  0
  9 11  1  0  0  0  0
  9 22  1  0  0  0  0
 11 12  1  0  0  0  0
 11 13  1  0  0  0  0
 11 14  1  0  0  0  0
 14 15  1  0  0  0  0
 14 20  2  0  0  0  0
 15 16  1  0  0  0  0
 15 17  1  0  0  0  0
 17 18  1  0  0  0  0
 17 19  2  0  0  0  0
 19 20  1  0  0  0  0
 20 21  1  0  0  0  0
 22 23  2  0  0  0  0
 22 24  1  0  0  0  0
 24 25  1  0  0  0  0
 24 26  1  0  0  0  0
 26 27  1  0  0  0  0
 26 28  1  0  0  0  0
 26 29  1  0  0  0  0
M  END
$$$$

  -OEChem-03222214043D

 29 29  0     1  0  0  0  0  0999 V2000
   -2.9464   -4.2180    0.7695 H   0  0  0  0  0  0  0  0  0  0  0  0
   -2.9285   -3.3143    0.1536 C   0  0  0  0  0  0  0  0  0  0  0  0
   -3.7832   -2.6884    0.4212 H   0  0  0  0  0  0  0  0  0  0  0  0
   -3.0120   -3.6037   -0.8969 H   0  0  0  0  0  0  0  0  0  0  0  0
   -1.6364   -2.5531    0.3823 C   0  0  0  0  0  0  0  0  0  0  0  0
   -0.8341   -2.9511    1.2073 O   0  0  0  0  0  0  0  0  0  0  0  0
   -1.3815   -1.4083   -0.3456 N   0  0  0  0  0  0  0  0  0  0  0  0
   -2.0168   -1.2273   -1.1186 H   0  0  0  0  0  0  0  0  0  0  0  0
   -0.0758   -0.7173   -0.3749 C   0  0  1  0  0  0  0  0  0  0  0  0
    0.6550   -1.4610   -0.7107 H   0  0  0  0  0  0  0  0  0  0  0  0
   -0.0284    0.4540   -1.3904 C   0  0  0  0  0  0  0  0  0  0  0  0
   -0.0735    1.4033   -0.8450 H   0  0  0  0  0  0  0  0  0  0  0  0
    0.9375    0.4352   -1.9058 H   0  0  0  0  0  0  0  0  0  0  0  0
   -1.1487    0.4727   -2.4065 C   0  0  0  0  0  0  0  0  0  0  0  0
   -1.0277    0.4030   -3.7770 N   0  0  0  0  0  0  0  0  0  0  0  0
   -0.1644    0.2665   -4.3001 H   0  0  0  0  0  0  0  0  0  0  0  0
   -2.2824    0.5549   -4.3373 C   0  0  0  0  0  0  0  0  0  0  0  0
   -2.5013    0.5226   -5.4009 H   0  0  0  0  0  0  0  0  0  0  0  0
   -3.1748    0.7411   -3.3944 N   0  0  0  0  0  0  0  0  0  0  0  0
   -2.4780    0.7366   -2.1936 C   0  0  0  0  0  0  0  0  0  0  0  0
   -2.9257    0.9171   -1.2207 H   0  0  0  0  0  0  0  0  0  0  0  0
    0.4217   -0.2161    0.9974 C   0  0  0  0  0  0  0  0  0  0  0  0
    1.6255   -0.1413    1.2066 O   0  0  0  0  0  0  0  0  0  0  0  0
   -0.4519    0.4344    1.8504 N   0  0  0  0  0  0  0  0  0  0  0  0
   -1.4395    0.2664    1.6859 H   0  0  0  0  0  0  0  0  0  0  0  0
   -0.0409    0.9605    3.1459 C   0  0  0  0  0  0  0  0  0  0  0  0
    0.7501    1.7079    3.0238 H   0  0  0  0  0  0  0  0  0  0  0  0
   -0.8890    1.4368    3.6472 H   0  0  0  0  0  0  0  0  0  0  0  0
    0.3328    0.1528    3.7841 H   0  0  0  0  0  0  0  0  0  0  0  0
  1  2  1  0  0  0  0
  2  3  1  0  0  0  0
  2  4  1  0  0  0  0
  2  5  1  0  0  0  0
  5  6  2  0  0  0  0
  5  7  1  0  0  0  0
  7  8  1  0  0  0  0
  7  9  1  0  0  0  0
  9 10  1  0  0  0  0
  9 11  1  0  0  0  0
  9 22  1  0  0  0  0
 11 12  1  0  0  0  0
 11 13  1  0  0  0  0
 11 14  1  0  0  0  0
 14 15  1  0  0  0  0
 14 20  2  0  0  0  0
 15 16  1  0  0  0  0
 15 17  1  0  0  0  0
 17 18  1  0  0  0  0
 17 19  2  0  0  0  0
 19 20  1  0  0  0  0
 20 21  1  0  0  0  0
 22 23  2  0  0  0  0
 22 24  1  0  0  0  0
 24 25  1  0  0  0  0
 24 26  1  0  0  0  0
 26 27  1  0  0  0  0
 26 28  1  0  0  0  0
 26 29  1  0  0  0  0
M  END
$$$$

  -OEChem-03222214043D

 29 29  0     1  0  0  0  0  0999 V2000
   -2.9772   -4.1821    0.7190 H   0  0  0  0  0  0  0  0  0  0  0  0
   -2.9572   -3.2588    0.1330 C   0  0  0  0  0  0  0  0  0  0  0  0
   -3.7882   -2.6233    0.4480 H   0  0  0  0  0  0  0  0  0  0  0  0
   -3.0797   -3.5104   -0.9231 H   0  0  0  0  0  0  0  0  0  0  0  0
   -1.6417   -2.5342    0.3464 C   0  0  0  0  0  0  0  0  0  0  0  0
   -0.8338   -2.9641    1.1496 O   0  0  0  0  0  0  0  0  0  0  0  0
   -1.3730   -1.3818   -0.3637 N   0  0  0  0  0  0  0  0  0  0  0  0
   -2.0255   -1.1520   -1.1098 H   0  0  0  0  0  0  0  0  0  0  0  0
   -0.0642   -0.6949   -0.3764 C   0  0  1  0  0  0  0  0  0  0  0  0
    0.6671   -1.4358   -0.7180 H   0  0  0  0  0  0  0  0  0  0  0  0
   -0.0198    0.4824   -1.3827 C   0  0  0  0  0  0  0  0  0  0  0  0
   -0.0769    1.4271   -0.8302 H   0  0  0  0  0  0  0  0  0  0  0  0
    0.9441    0.4797   -1.9021 H   0  0  0  0  0  0  0  0  0  0  0  0
   -1.1482    0.4784   -2.3874 C   0  0  0  0  0  0  0  0  0  0  0  0
   -1.0800    0.1256   -3.7166 N   0  0  0  0  0  0  0  0  0  0  0  0
   -0.2552   -0.2115   -4.2105 H   0  0  0  0  0  0  0  0  0  0  0  0
   -2.3240    0.3249   -4.2853 C   0  0  0  0  0  0  0  0  0  0  0  0
   -2.5783    0.1202   -5.3214 H   0  0  0  0  0  0  0  0  0  0  0  0
   -3.1575    0.7932   -3.3869 N   0  0  0  0  0  0  0  0  0  0  0  0
   -2.4304    0.9304   -2.2115 C   0  0  0  0  0  0  0  0  0  0  0  0
   -2.8261    1.3288   -1.2819 H   0  0  0  0  0  0  0  0  0  0  0  0
    0.4293   -0.2110    1.0033 C   0  0  0  0  0  0  0  0  0  0  0  0
    1.6324   -0.1468    1.2196 O   0  0  0  0  0  0  0  0  0  0  0  0
   -0.4444    0.4335    1.8608 N   0  0  0  0  0  0  0  0  0  0  0  0
   -1.4320    0.2708    1.6914 H   0  0  0  0  0  0  0  0  0  0  0  0
   -0.0346    0.9400    3.1646 C   0  0  0  0  0  0  0  0  0  0  0  0
    0.7723    1.6723    3.0560 H   0  0  0  0  0  0  0  0  0  0  0  0
   -0.8771    1.4289    3.6628 H   0  0  0  0  0  0  0  0  0  0  0  0
    0.3175    0.1197    3.7989 H   0  0  0  0  0  0  0  0  0  0  0  0
  1  2  1  0  0  0  0
  2  3  1  0  0  0  0
  2  4  1  0  0  0  0
  2  5  1  0  0  0  0
  5  6  2  0  0  0  0
  5  7  1  0  0  0  0
  7  8  1  0  0  0  0
  7  9  1  0  0  0  0
  9 10  1  0  0  0  0
  9 11  1  0  0  0  0
  9 22  1  0  0  0  0
 11 12  1  0  0  0  0
 11 13  1  0  0  0  0
 11 14  1  0  0  0  0
 14 15  1  0  0  0  0
 14 20  2  0  0  0  0
 15 16  1  0  0  0  0
 15 17  1  0  0  0  0
 17 18  1  0  0  0  0
 17 19  2  0  0  0  0
 19 20  1  0  0  0  0
 20 21  1  0  0  0  0
 22 23  2  0  0  0  0
 22 24  1  0  0  0  0
 24 25  1  0  0  0  0
 24 26  1  0  0  0  0
 26 27  1  0  0  0  0
 26 28  1  0  0  0  0
 26 29  1  0  0  0  0
M  END
$$$$

  -OEChem-03222214043D

 29 29  0     1  0  0  0  0  0999 V2000
   -3.0083   -4.1433    0.7104 H   0  0  0  0  0  0  0  0  0  0  0  0
   -2.9750   -3.2235    0.1196 C   0  0  0  0  0  0  0  0  0  0  0  0
   -3.7929   -2.5715    0.4356 H   0  0  0  0  0  0  0  0  0  0  0  0
   -3.1071   -3.4781   -0.9347 H   0  0  0  0  0  0  0  0  0  0  0  0
   -1.6456   -2.5220    0.3230 C   0  0  0  0  0  0  0  0  0  0  0  0
   -0.8297   -2.9785    1.1032 O   0  0  0  0  0  0  0  0  0  0  0  0
   -1.3684   -1.3643   -0.3744 N   0  0  0  0  0  0  0  0  0  0  0  0
   -2.0358   -1.0949   -1.0943 H   0  0  0  0  0  0  0  0  0  0  0  0
   -0.0573   -0.6820   -0.3773 C   0  0  1  0  0  0  0  0  0  0  0  0
    0.6725   -1.4215   -0.7244 H   0  0  0  0  0  0  0  0  0  0  0  0
   -0.0156    0.5005   -1.3762 C   0  0  0  0  0  0  0  0  0  0  0  0
   -0.0731    1.4422   -0.8190 H   0  0  0  0  0  0  0  0  0  0  0  0
    0.9453    0.5022   -1.9009 H   0  0  0  0  0  0  0  0  0  0  0  0
   -1.1501    0.4869   -2.3732 C   0  0  0  0  0  0  0  0  0  0  0  0
   -1.1683   -0.1221   -3.6082 N   0  0  0  0  0  0  0  0  0  0  0  0
   -0.4109   -0.6588   -4.0280 H   0  0  0  0  0  0  0  0  0  0  0  0
   -2.3872    0.1402   -4.2052 C   0  0  0  0  0  0  0  0  0  0  0  0
   -2.6946   -0.2168   -5.1842 H   0  0  0  0  0  0  0  0  0  0  0  0
   -3.1242    0.8795   -3.4107 N   0  0  0  0  0  0  0  0  0  0  0  0
   -2.3559    1.1308   -2.2802 C   0  0  0  0  0  0  0  0  0  0  0  0
   -2.6725    1.7390   -1.4378 H   0  0  0  0  0  0  0  0  0  0  0  0
    0.4353   -0.2119    1.0076 C   0  0  0  0  0  0  0  0  0  0  0  0
    1.6379   -0.1581    1.2295 O   0  0  0  0  0  0  0  0  0  0  0  0
   -0.4373    0.4285    1.8695 N   0  0  0  0  0  0  0  0  0  0  0  0
   -1.4262    0.2868    1.6890 H   0  0  0  0  0  0  0  0  0  0  0  0
   -0.0302    0.9296    3.1765 C   0  0  0  0  0  0  0  0  0  0  0  0
    0.7725    1.6673    3.0724 H   0  0  0  0  0  0  0  0  0  0  0  0
   -0.8756    1.4109    3.6772 H   0  0  0  0  0  0  0  0  0  0  0  0
    0.3259    0.1080    3.8070 H   0  0  0  0  0  0  0  0  0  0  0  0
  1  2  1  0  0  0  0
  2  3  1  0  0  0  0
  2  4  1  0  0  0  0
  2  5  1  0  0  0  0
  5  6  2  0  0  0  0
  5  7  1  0  0  0  0
  7  8  1  0  0  0  0
  7  9  1  0  0  0  0
  9 10  1  0  0  0  0
  9 11  1  0  0  0  0
  9 22  1  0  0  0  0
 11 12  1  0  0  0  0
 11 13  1  0  0  0  0
 11 14  1  0  0  0  0
 14 15  1  0  0  0  0
 14 20  2  0  0  0  0
 15 16  1  0  0  0  0
 15 17  1  0  0  0  0
 17 18  1  0  0  0  0
 17 19  2  0  0  0  0
 19 20  1  0  0  0  0
 20 21  1  0  0  0  0
 22 23  2  0  0  0  0
 22 24  1  0  0  0  0
 24 25  1  0  0  0  0
 24 26  1  0  0  0  0
 26 27  1  0  0  0  0
 26 28  1  0  0  0  0
 26 29  1  0  0  0  0
M  END
$$$$

  -OEChem-03222214043D

 29 29  0     1  0  0  0  0  0999 V2000
   -3.0260   -4.1167    0.7157 H   0  0  0  0  0  0  0  0  0  0  0  0
   -2.9881   -3.1931    0.1310 C   0  0  0  0  0  0  0  0  0  0  0  0
   -3.7873   -2.5293    0.4698 H   0  0  0  0  0  0  0  0  0  0  0  0
   -3.1471   -3.4371   -0.9221 H   0  0  0  0  0  0  0  0  0  0  0  0
   -1.6418   -2.5177    0.3094 C   0  0  0  0  0  0  0  0  0  0  0  0
   -0.8129   -3.0004    1.0594 O   0  0  0  0  0  0  0  0  0  0  0  0
   -1.3614   -1.3566   -0.3808 N   0  0  0  0  0  0  0  0  0  0  0  0
   -2.0506   -1.0467   -1.0630 H   0  0  0  0  0  0  0  0  0  0  0  0
   -0.0518   -0.6727   -0.3804 C   0  0  1  0  0  0  0  0  0  0  0  0
    0.6800   -1.4083   -0.7315 H   0  0  0  0  0  0  0  0  0  0  0  0
   -0.0148    0.5137   -1.3741 C   0  0  0  0  0  0  0  0  0  0  0  0
   -0.0690    1.4542   -0.8142 H   0  0  0  0  0  0  0  0  0  0  0  0
    0.9437    0.5149   -1.9032 H   0  0  0  0  0  0  0  0  0  0  0  0
   -1.1505    0.4995   -2.3701 C   0  0  0  0  0  0  0  0  0  0  0  0
   -1.2844   -0.3235   -3.4666 N   0  0  0  0  0  0  0  0  0  0  0  0
   -0.6172   -1.0280   -3.7776 H   0  0  0  0  0  0  0  0  0  0  0  0
   -2.4623    0.0009   -4.1126 C   0  0  0  0  0  0  0  0  0  0  0  0
   -2.8347   -0.4788   -5.0133 H   0  0  0  0  0  0  0  0  0  0  0  0
   -3.0707    0.9705   -3.4723 N   0  0  0  0  0  0  0  0  0  0  0  0
   -2.2540    1.3103   -2.3996 C   0  0  0  0  0  0  0  0  0  0  0  0
   -2.4688    2.0956   -1.6809 H   0  0  0  0  0  0  0  0  0  0  0  0
    0.4377   -0.2091    1.0072 C   0  0  0  0  0  0  0  0  0  0  0  0
    1.6396   -0.1573    1.2327 O   0  0  0  0  0  0  0  0  0  0  0  0
   -0.4376    0.4253    1.8707 N   0  0  0  0  0  0  0  0  0  0  0  0
   -1.4260    0.2839    1.6875 H   0  0  0  0  0  0  0  0  0  0  0  0
   -0.0332    0.9168    3.1819 C   0  0  0  0  0  0  0  0  0  0  0  0
    0.7708    1.6542    3.0849 H   0  0  0  0  0  0  0  0  0  0  0  0
   -0.8792    1.3955    3.6839 H   0  0  0  0  0  0  0  0  0  0  0  0
    0.3204    0.0899    3.8069 H   0  0  0  0  0  0  0  0  0  0  0  0
  1  2  1  0  0  0  0
  2  3  1  0  0  0  0
  2  4  1  0  0  0  0
  2  5  1  0  0  0  0
  5  6  2  0  0  0  0
  5  7  1  0  0  0  0
  7  8  1  0  0  0  0
  7  9  1  0  0  0  0
  9 10  1  0  0  0  0
  9 11  1  0  0  0  0
  9 22  1  0  0  0  0
 11 12  1  0  0  0  0
 11 13  1  0  0  0  0
 11 14  1  0  0  0  0
 14 15  1  0  0  0  0
 14 20  2  0  0  0  0
 15 16  1  0  0  0  0
 15 17  1  0  0  0  0
 17 18  1  0  0  0  0
 17 19  2  0  0  0  0
 19 20  1  0  0  0  0
 20 21  1  0  0  0  0
 22 23  2  0  0  0  0
 22 24  1  0  0  0  0
 24 25  1  0  0  0  0
 24 26  1  0  0  0  0
 26 27  1  0  0  0  0
 26 28  1  0  0  0  0
 26 29  1  0  0  0  0
M  END
$$$$

  -OEChem-03222214043D

 29 29  0     1  0  0  0  0  0999 V2000
   -3.0257   -4.1023    0.7570 H   0  0  0  0  0  0  0  0  0  0  0  0
   -2.9906   -3.1807    0.1689 C   0  0  0  0  0  0  0  0  0  0  0  0
   -3.7663   -2.5022    0.5320 H   0  0  0  0  0  0  0  0  0  0  0  0
   -3.1879   -3.4240   -0.8776 H   0  0  0  0  0  0  0  0  0  0  0  0
   -1.6274   -2.5290    0.3028 C   0  0  0  0  0  0  0  0  0  0  0  0
   -0.7785   -3.0330    1.0154 O   0  0  0  0  0  0  0  0  0  0  0  0
   -1.3528   -1.3648   -0.3845 N   0  0  0  0  0  0  0  0  0  0  0  0
   -2.0687   -1.0156   -1.0185 H   0  0  0  0  0  0  0  0  0  0  0  0
   -0.0482   -0.6725   -0.3832 C   0  0  1  0  0  0  0  0  0  0  0  0
    0.6887   -1.4030   -0.7348 H   0  0  0  0  0  0  0  0  0  0  0  0
   -0.0185    0.5163   -1.3746 C   0  0  0  0  0  0  0  0  0  0  0  0
   -0.0664    1.4568   -0.8143 H   0  0  0  0  0  0  0  0  0  0  0  0
    0.9396    0.5113   -1.9047 H   0  0  0  0  0  0  0  0  0  0  0  0
   -1.1483    0.5119   -2.3799 C   0  0  0  0  0  0  0  0  0  0  0  0
   -1.4347   -0.4626   -3.3126 N   0  0  0  0  0  0  0  0  0  0  0  0
   -0.8854   -1.3014   -3.4948 H   0  0  0  0  0  0  0  0  0  0  0  0
   -2.5531   -0.0705   -4.0239 C   0  0  0  0  0  0  0  0  0  0  0  0
   -3.0088   -0.6323   -4.8346 H   0  0  0  0  0  0  0  0  0  0  0  0
   -2.9894    1.0798   -3.5705 N   0  0  0  0  0  0  0  0  0  0  0  0
   -2.1158    1.4649   -2.5592 C   0  0  0  0  0  0  0  0  0  0  0  0
   -2.1978    2.3839   -1.9864 H   0  0  0  0  0  0  0  0  0  0  0  0
    0.4364   -0.2093    1.0065 C   0  0  0  0  0  0  0  0  0  0  0  0
    1.6371   -0.1566    1.2375 O   0  0  0  0  0  0  0  0  0  0  0  0
   -0.4438    0.4171    1.8711 N   0  0  0  0  0  0  0  0  0  0  0  0
   -1.4317    0.2879    1.6773 H   0  0  0  0  0  0  0  0  0  0  0  0
   -0.0467    0.9085    3.1848 C   0  0  0  0  0  0  0  0  0  0  0  0
    0.7565    1.6473    3.0925 H   0  0  0  0  0  0  0  0  0  0  0  0
   -0.8962    1.3854    3.6828 H   0  0  0  0  0  0  0  0  0  0  0  0
    0.3050    0.0820    3.8113 H   0  0  0  0  0  0  0  0  0  0  0  0
  1  2  1  0  0  0  0
  2  3  1  0  0  0  0
  2  4  1  0  0  0  0
  2  5  1  0  0  0  0
  5  6  2  0  0  0  0
  5  7  1  0  0  0  0
  7  8  1  0  0  0  0
  7  9  1  0  0  0  0
  9 10  1  0  0  0  0
  9 11  1  0  0  0  0
  9 22  1  0  0  0  0
 11 12  1  0  0  0  0
 11 13  1  0  0  0  0
 11 14  1  0  0  0  0
 14 15  1  0  0  0  0
 14 20  2  0  0  0  0
 15 16  1  0  0  0  0
 15 17  1  0  0  0  0
 17 18  1  0  0  0  0
 17 19  2  0  0  0  0
 19 20  1  0  0  0  0
 20 21  1  0  0  0  0
 22 23  2  0  0  0  0
 22 24  1  0  0  0  0
 24 25  1  0  0  0  0
 24 26  1  0  0  0  0
 26 27  1  0  0  0  0
 26 28  1  0  0  0  0
 26 29  1  0  0  0  0
M  END
$$$$

  -OEChem-03222214043D

 29 29  0     1  0  0  0  0  0999 V2000
   -3.0085   -4.1044    0.8241 H   0  0  0  0  0  0  0  0  0  0  0  0
   -2.9808   -3.1878    0.2278 C   0  0  0  0  0  0  0  0  0  0  0  0
   -3.7343   -2.4960    0.6117 H   0  0  0  0  0  0  0  0  0  0  0  0
   -3.2171   -3.4363   -0.8096 H   0  0  0  0  0  0  0  0  0  0  0  0
   -1.6052   -2.5544    0.3098 C   0  0  0  0  0  0  0  0  0  0  0  0
   -0.7334   -3.0755    0.9806 O   0  0  0  0  0  0  0  0  0  0  0  0
   -1.3442   -1.3886   -0.3803 N   0  0  0  0  0  0  0  0  0  0  0  0
   -2.0924   -1.0005   -0.9511 H   0  0  0  0  0  0  0  0  0  0  0  0
   -0.0488   -0.6810   -0.3829 C   0  0  1  0  0  0  0  0  0  0  0  0
    0.6963   -1.4046   -0.7317 H   0  0  0  0  0  0  0  0  0  0  0  0
   -0.0252    0.5066   -1.3780 C   0  0  0  0  0  0  0  0  0  0  0  0
   -0.0679    1.4488   -0.8197 H   0  0  0  0  0  0  0  0  0  0  0  0
    0.9362    0.4945   -1.9024 H   0  0  0  0  0  0  0  0  0  0  0  0
   -1.1411    0.5185   -2.4029 C   0  0  0  0  0  0  0  0  0  0  0  0
   -1.6154   -0.5299   -3.1654 N   0  0  0  0  0  0  0  0  0  0  0  0
   -1.2125   -1.4648   -3.2157 H   0  0  0  0  0  0  0  0  0  0  0  0
   -2.6584   -0.0687   -3.9460 C   0  0  0  0  0  0  0  0  0  0  0  0
   -3.2157   -0.6646   -4.6633 H   0  0  0  0  0  0  0  0  0  0  0  0
   -2.8811    1.1969   -3.6898 N   0  0  0  0  0  0  0  0  0  0  0  0
   -1.9395    1.5799   -2.7407 C   0  0  0  0  0  0  0  0  0  0  0  0
   -1.8575    2.5776   -2.3193 H   0  0  0  0  0  0  0  0  0  0  0  0
    0.4291   -0.2099    1.0063 C   0  0  0  0  0  0  0  0  0  0  0  0
    1.6282   -0.1490    1.2421 O   0  0  0  0  0  0  0  0  0  0  0  0
   -0.4588    0.4070    1.8698 N   0  0  0  0  0  0  0  0  0  0  0  0
   -1.4458    0.2820    1.6688 H   0  0  0  0  0  0  0  0  0  0  0  0
   -0.0679    0.9115    3.1803 C   0  0  0  0  0  0  0  0  0  0  0  0
    0.7236    1.6621    3.0832 H   0  0  0  0  0  0  0  0  0  0  0  0
   -0.9240    1.3777    3.6771 H   0  0  0  0  0  0  0  0  0  0  0  0
    0.2975    0.0937    3.8103 H   0  0  0  0  0  0  0  0  0  0  0  0
  1  2  1  0  0  0  0
  2  3  1  0  0  0  0
  2  4  1  0  0  0  0
  2  5  1  0  0  0  0
  5  6  2  0  0  0  0
  5  7  1  0  0  0  0
  7  8  1  0  0  0  0
  7  9  1  0  0  0  0
  9 10  1  0  0  0  0
  9 11  1  0  0  0  0
  9 22  1  0  0  0  0
 11 12  1  0  0  0  0
 11 13  1  0  0  0  0
 11 14  1  0  0  0  0
 14 15  1  0  0  0  0
 14 20  2  0  0  0  0
 15 16  1  0  0  0  0
 15 17  1  0  0  0  0
 17 18  1  0  0  0  0
 17 19  2  0  0  0  0
 19 20  1  0  0  0  0
 20 21  1  0  0  0  0
 22 23  2  0  0  0  0
 22 24  1  0  0  0  0
 24 25  1  0  0  0  0
 24 26  1  0  0  0  0
 26 27  1  0  0  0  0
 26 28  1  0  0  0  0
 26 29  1  0  0  0  0
M  END
$$$$

  -OEChem-03222214043D

 29 29  0     1  0  0  0  0  0999 V2000
   -2.9633   -4.1221    0.9296 H   0  0  0  0  0  0  0  0  0  0  0  0
   -2.9569   -3.2143    0.3193 C   0  0  0  0  0  0  0  0  0  0  0  0
   -3.6837   -2.5097    0.7304 H   0  0  0  0  0  0  0  0  0  0  0  0
   -3.2476   -3.4751   -0.7010 H   0  0  0  0  0  0  0  0  0  0  0  0
   -1.5725   -2.5942    0.3230 C   0  0  0  0  0  0  0  0  0  0  0  0
   -0.6670   -3.1289    0.9356 O   0  0  0  0  0  0  0  0  0  0  0  0
   -1.3423   -1.4242   -0.3719 N   0  0  0  0  0  0  0  0  0  0  0  0
   -2.1334   -0.9923   -0.8440 H   0  0  0  0  0  0  0  0  0  0  0  0
   -0.0612   -0.6923   -0.3838 C   0  0  1  0  0  0  0  0  0  0  0  0
    0.6937   -1.4072   -0.7296 H   0  0  0  0  0  0  0  0  0  0  0  0
   -0.0450    0.4914   -1.3857 C   0  0  0  0  0  0  0  0  0  0  0  0
   -0.0927    1.4338   -0.8290 H   0  0  0  0  0  0  0  0  0  0  0  0
    0.9225    0.4799   -1.8985 H   0  0  0  0  0  0  0  0  0  0  0  0
   -1.1409    0.5213   -2.4354 C   0  0  0  0  0  0  0  0  0  0  0  0
   -1.8194   -0.5203   -3.0378 N   0  0  0  0  0  0  0  0  0  0  0  0
   -1.5834   -1.5087   -2.9601 H   0  0  0  0  0  0  0  0  0  0  0  0
   -2.7634    0.0052   -3.8996 C   0  0  0  0  0  0  0  0  0  0  0  0
   -3.4283   -0.5767   -4.5318 H   0  0  0  0  0  0  0  0  0  0  0  0
   -2.7400    1.3136   -3.8418 N   0  0  0  0  0  0  0  0  0  0  0  0
   -1.7347    1.6491   -2.9413 C   0  0  0  0  0  0  0  0  0  0  0  0
   -1.4658    2.6657   -2.6693 H   0  0  0  0  0  0  0  0  0  0  0  0
    0.4143   -0.2112    1.0032 C   0  0  0  0  0  0  0  0  0  0  0  0
    1.6129   -0.1291    1.2341 O   0  0  0  0  0  0  0  0  0  0  0  0
   -0.4794    0.3893    1.8728 N   0  0  0  0  0  0  0  0  0  0  0  0
   -1.4659    0.2648    1.6710 H   0  0  0  0  0  0  0  0  0  0  0  0
   -0.0882    0.9160    3.1747 C   0  0  0  0  0  0  0  0  0  0  0  0
    0.6876    1.6810    3.0626 H   0  0  0  0  0  0  0  0  0  0  0  0
   -0.9495    1.3709    3.6733 H   0  0  0  0  0  0  0  0  0  0  0  0
    0.2987    0.1126    3.8105 H   0  0  0  0  0  0  0  0  0  0  0  0
  1  2  1  0  0  0  0
  2  3  1  0  0  0  0
  2  4  1  0  0  0  0
  2  5  1  0  0  0  0
  5  6  2  0  0  0  0
  5  7  1  0  0  0  0
  7  8  1  0  0  0  0
  7  9  1  0  0  0  0
  9 10  1  0  0  0  0
  9 11  1  0  0  0  0
  9 22  1  0  0  0  0
 11 12  1  0  0  0  0
 11 13  1  0  0  0  0
 11 14  1  0  0  0  0
 14 15  1  0  0  0  0
 14 20  2  0  0  0  0
 15 16  1  0  0  0  0
 15 17  1  0  0  0  0
 17 18  1  0  0  0  0
 17 19  2  0  0  0  0
 19 20  1  0  0  0  0
 20 21  1  0  0  0  0
 22 23  2  0  0  0  0
 22 24  1  0  0  0  0
 24 25  1  0  0  0  0
 24 26  1  0  0  0  0
 26 27  1  0  0  0  0
 26 28  1  0  0  0  0
 26 29  1  0  0  0  0
M  END
$$$$

  -OEChem-03222214043D

 29 29  0     1  0  0  0  0  0999 V2000
   -2.8990   -4.1436    1.0404 H   0  0  0  0  0  0  0  0  0  0  0  0
   -2.9261   -3.2433    0.4197 C   0  0  0  0  0  0  0  0  0  0  0  0
   -3.6249   -2.5314    0.8652 H   0  0  0  0  0  0  0  0  0  0  0  0
   -3.2774   -3.5160   -0.5782 H   0  0  0  0  0  0  0  0  0  0  0  0
   -1.5414   -2.6296    0.3342 C   0  0  0  0  0  0  0  0  0  0  0  0
   -0.6009   -3.1737    0.8821 O   0  0  0  0  0  0  0  0  0  0  0  0
   -1.3513   -1.4539   -0.3646 N   0  0  0  0  0  0  0  0  0  0  0  0
   -2.1791   -0.9856   -0.7243 H   0  0  0  0  0  0  0  0  0  0  0  0
   -0.0834   -0.6994   -0.3886 C   0  0  1  0  0  0  0  0  0  0  0  0
    0.6778   -1.4063   -0.7380 H   0  0  0  0  0  0  0  0  0  0  0  0
   -0.0744    0.4818   -1.3950 C   0  0  0  0  0  0  0  0  0  0  0  0
   -0.1319    1.4227   -0.8359 H   0  0  0  0  0  0  0  0  0  0  0  0
    0.8991    0.4775   -1.8969 H   0  0  0  0  0  0  0  0  0  0  0  0
   -1.1552    0.5270   -2.4620 C   0  0  0  0  0  0  0  0  0  0  0  0
   -2.0347   -0.4383   -2.9138 N   0  0  0  0  0  0  0  0  0  0  0  0
   -1.9739   -1.4350   -2.7122 H   0  0  0  0  0  0  0  0  0  0  0  0
   -2.8621    0.1238   -3.8675 C   0  0  0  0  0  0  0  0  0  0  0  0
   -3.6309   -0.4069   -4.4221 H   0  0  0  0  0  0  0  0  0  0  0  0
   -2.5799    1.3942   -4.0097 N   0  0  0  0  0  0  0  0  0  0  0  0
   -1.5229    1.6578   -3.1460 C   0  0  0  0  0  0  0  0  0  0  0  0
   -1.0580    2.6318   -3.0239 H   0  0  0  0  0  0  0  0  0  0  0  0
    0.3988   -0.2131    0.9949 C   0  0  0  0  0  0  0  0  0  0  0  0
    1.5979   -0.1176    1.2172 O   0  0  0  0  0  0  0  0  0  0  0  0
   -0.4948    0.3700    1.8767 N   0  0  0  0  0  0  0  0  0  0  0  0
   -1.4822    0.2555    1.6750 H   0  0  0  0  0  0  0  0  0  0  0  0
   -0.0974    0.9122    3.1704 C   0  0  0  0  0  0  0  0  0  0  0  0
    0.6461    1.7061    3.0425 H   0  0  0  0  0  0  0  0  0  0  0  0
   -0.9650    1.3338    3.6869 H   0  0  0  0  0  0  0  0  0  0  0  0
    0.3327    0.1251    3.7986 H   0  0  0  0  0  0  0  0  0  0  0  0
  1  2  1  0  0  0  0
  2  3  1  0  0  0  0
  2  4  1  0  0  0  0
  2  5  1  0  0  0  0
  5  6  2  0  0  0  0
  5  7  1  0  0  0  0
  7  8  1  0  0  0  0
  7  9  1  0  0  0  0
  9 10  1  0  0  0  0
  9 11  1  0  0  0  0
  9 22  1  0  0  0  0
 11 12  1  0  0  0  0
 11 13  1  0  0  0  0
 11 14  1  0  0  0  0
 14 15  1  0  0  0  0
 14 20  2  0  0  0  0
 15 16  1  0  0  0  0
 15 17  1  0  0  0  0
 17 18  1  0  0  0  0
 17 19  2  0  0  0  0
 19 20  1  0  0  0  0
 20 21  1  0  0  0  0
 22 23  2  0  0  0  0
 22 24  1  0  0  0  0
 24 25  1  0  0  0  0
 24 26  1  0  0  0  0
 26 27  1  0  0  0  0
 26 28  1  0  0  0  0
 26 29  1  0  0  0  0
M  END
$$$$

  -OEChem-03222214043D

 29 29  0     1  0  0  0  0  0999 V2000
   -2.8363   -4.1610    1.1196 H   0  0  0  0  0  0  0  0  0  0  0  0
   -2.8974   -3.2596    0.5026 C   0  0  0  0  0  0  0  0  0  0  0  0
   -3.5681   -2.5472    0.9890 H   0  0  0  0  0  0  0  0  0  0  0  0
   -3.3067   -3.5305   -0.4735 H   0  0  0  0  0  0  0  0  0  0  0  0
   -1.5181   -2.6497    0.3369 C   0  0  0  0  0  0  0  0  0  0  0  0
   -0.5494   -3.2023    0.8235 O   0  0  0  0  0  0  0  0  0  0  0  0
   -1.3678   -1.4661   -0.3597 N   0  0  0  0  0  0  0  0  0  0  0  0
   -2.2191   -0.9689   -0.6032 H   0  0  0  0  0  0  0  0  0  0  0  0
   -0.1098   -0.6950   -0.3972 C   0  0  1  0  0  0  0  0  0  0  0  0
    0.6527   -1.3957   -0.7569 H   0  0  0  0  0  0  0  0  0  0  0  0
   -0.1079    0.4861   -1.4040 C   0  0  0  0  0  0  0  0  0  0  0  0
   -0.1823    1.4212   -0.8378 H   0  0  0  0  0  0  0  0  0  0  0  0
    0.8702    0.4995   -1.8972 H   0  0  0  0  0  0  0  0  0  0  0  0
   -1.1823    0.5426   -2.4779 C   0  0  0  0  0  0  0  0  0  0  0  0
   -2.2415   -0.2899   -2.7854 N   0  0  0  0  0  0  0  0  0  0  0  0
   -2.3560   -1.2452   -2.4541 H   0  0  0  0  0  0  0  0  0  0  0  0
   -2.9499    0.2607   -3.8372 C   0  0  0  0  0  0  0  0  0  0  0  0
   -3.8137   -0.1918   -4.3161 H   0  0  0  0  0  0  0  0  0  0  0  0
   -2.4210    1.4066   -4.1823 N   0  0  0  0  0  0  0  0  0  0  0  0
   -1.3243    1.5931   -3.3494 C   0  0  0  0  0  0  0  0  0  0  0  0
   -0.6725    2.4613   -3.3793 H   0  0  0  0  0  0  0  0  0  0  0  0
    0.3870   -0.2136    0.9829 C   0  0  0  0  0  0  0  0  0  0  0  0
    1.5877   -0.1074    1.1906 O   0  0  0  0  0  0  0  0  0  0  0  0
   -0.4997    0.3511    1.8836 N   0  0  0  0  0  0  0  0  0  0  0  0
   -1.4892    0.2460    1.6885 H   0  0  0  0  0  0  0  0  0  0  0  0
   -0.0880    0.8916    3.1734 C   0  0  0  0  0  0  0  0  0  0  0  0
    0.6251    1.7113    3.0357 H   0  0  0  0  0  0  0  0  0  0  0  0
   -0.9556    1.2773    3.7170 H   0  0  0  0  0  0  0  0  0  0  0  0
    0.3836    0.1123    3.7813 H   0  0  0  0  0  0  0  0  0  0  0  0
  1  2  1  0  0  0  0
  2  3  1  0  0  0  0
  2  4  1  0  0  0  0
  2  5  1  0  0  0  0
  5  6  2  0  0  0  0
  5  7  1  0  0  0  0
  7  8  1  0  0  0  0
  7  9  1  0  0  0  0
  9 10  1  0  0  0  0
  9 11  1  0  0  0  0
  9 22  1  0  0  0  0
 11 12  1  0  0  0  0
 11 13  1  0  0  0  0
 11 14  1  0  0  0  0
 14 15  1  0  0  0  0
 14 20  2  0  0  0  0
 15 16  1  0  0  0  0
 15 17  1  0  0  0  0
 17 18  1  0  0  0  0
 17 19  2  0  0  0  0
 19 20  1  0  0  0  0
 20 21  1  0  0  0  0
 22 23  2  0  0  0  0
 22 24  1  0  0  0  0
 24 25  1  0  0  0  0
 24 26  1  0  0  0  0
 26 27  1  0  0  0  0
 26 28  1  0  0  0  0
 26 29  1  0  0  0  0
M  END
$$$$

  -OEChem-03222214043D

 29 29  0     1  0  0  0  0  0999 V2000
   -2.7959   -4.1735    1.1489 H   0  0  0  0  0  0  0  0  0  0  0  0
   -2.8816   -3.2666    0.5430 C   0  0  0  0  0  0  0  0  0  0  0  0
   -3.5338   -2.5599    1.0612 H   0  0  0  0  0  0  0  0  0  0  0  0
   -3.3275   -3.5294   -0.4191 H   0  0  0  0  0  0  0  0  0  0  0  0
   -1.5104   -2.6534    0.3296 C   0  0  0  0  0  0  0  0  0  0  0  0
   -0.5235   -3.2100    0.7732 O   0  0  0  0  0  0  0  0  0  0  0  0
   -1.3904   -1.4587   -0.3549 N   0  0  0  0  0  0  0  0  0  0  0  0
   -2.2509   -0.9473   -0.5116 H   0  0  0  0  0  0  0  0  0  0  0  0
   -0.1387   -0.6791   -0.4023 C   0  0  1  0  0  0  0  0  0  0  0  0
    0.6194   -1.3768   -0.7770 H   0  0  0  0  0  0  0  0  0  0  0  0
   -0.1423    0.5033   -1.4062 C   0  0  0  0  0  0  0  0  0  0  0  0
   -0.2337    1.4306   -0.8300 H   0  0  0  0  0  0  0  0  0  0  0  0
    0.8396    0.5357   -1.8911 H   0  0  0  0  0  0  0  0  0  0  0  0
   -1.2158    0.5698   -2.4811 C   0  0  0  0  0  0  0  0  0  0  0  0
   -2.4234   -0.0789   -2.6632 N   0  0  0  0  0  0  0  0  0  0  0  0
   -2.7282   -0.9170   -2.1779 H   0  0  0  0  0  0  0  0  0  0  0  0
   -3.0189    0.4050   -3.8134 C   0  0  0  0  0  0  0  0  0  0  0  0
   -3.9628    0.0569   -4.2234 H   0  0  0  0  0  0  0  0  0  0  0  0
   -2.2732    1.3367   -4.3487 N   0  0  0  0  0  0  0  0  0  0  0  0
   -1.1523    1.4465   -3.5356 C   0  0  0  0  0  0  0  0  0  0  0  0
   -0.3366    2.1424   -3.7092 H   0  0  0  0  0  0  0  0  0  0  0  0
    0.3822   -0.2126    0.9743 C   0  0  0  0  0  0  0  0  0  0  0  0
    1.5859   -0.1017    1.1598 O   0  0  0  0  0  0  0  0  0  0  0  0
   -0.4888    0.3349    1.9008 N   0  0  0  0  0  0  0  0  0  0  0  0
   -1.4816    0.2301    1.7251 H   0  0  0  0  0  0  0  0  0  0  0  0
   -0.0515    0.8641    3.1872 C   0  0  0  0  0  0  0  0  0  0  0  0
    0.6564    1.6873    3.0432 H   0  0  0  0  0  0  0  0  0  0  0  0
   -0.9085    1.2421    3.7527 H   0  0  0  0  0  0  0  0  0  0  0  0
    0.4354    0.0802    3.7770 H   0  0  0  0  0  0  0  0  0  0  0  0
  1  2  1  0  0  0  0
  2  3  1  0  0  0  0
  2  4  1  0  0  0  0
  2  5  1  0  0  0  0
  5  6  2  0  0  0  0
  5  7  1  0  0  0  0
  7  8  1  0  0  0  0
  7  9  1  0  0  0  0
  9 10  1  0  0  0  0
  9 11  1  0  0  0  0
  9 22  1  0  0  0  0
 11 12  1  0  0  0  0
 11 13  1  0  0  0  0
 11 14  1  0  0  0  0
 14 15  1  0  0  0  0
 14 20  2  0  0  0  0
 15 16  1  0  0  0  0
 15 17  1  0  0  0  0
 17 18  1  0  0  0  0
 17 19  2  0  0  0  0
 19 20  1  0  0  0  0
 20 21  1  0  0  0  0
 22 23  2  0  0  0  0
 22 24  1  0  0  0  0
 24 25  1  0  0  0  0
 24 26  1  0  0  0  0
 26 27  1  0  0  0  0
 26 28  1  0  0  0  0
 26 29  1  0  0  0  0
M  END
$$$$

  -OEChem-03222214043D

 29 29  0     1  0  0  0  0  0999 V2000
   -2.8475   -4.2869    0.8075 H   0  0  0  0  0  0  0  0  0  0  0  0
   -2.8639   -3.3958    0.1732 C   0  0  0  0  0  0  0  0  0  0  0  0
   -3.7802   -2.8367    0.3763 H   0  0  0  0  0  0  0  0  0  0  0  0
   -2.8601   -3.7114   -0.8728 H   0  0  0  0  0  0  0  0  0  0  0  0
   -1.6516   -2.5298    0.4603 C   0  0  0  0  0  0  0  0  0  0  0  0
   -0.8769   -2.8512    1.3418 O   0  0  0  0  0  0  0  0  0  0  0  0
   -1.4471   -1.3787   -0.2765 N   0  0  0  0  0  0  0  0  0  0  0  0
   -2.0006   -1.3289   -1.1258 H   0  0  0  0  0  0  0  0  0  0  0  0
   -0.1433   -0.6931   -0.3538 C   0  0  1  0  0  0  0  0  0  0  0  0
    0.5710   -1.4339   -0.7301 H   0  0  0  0  0  0  0  0  0  0  0  0
   -0.1244    0.5027   -1.3470 C   0  0  0  0  0  0  0  0  0  0  0  0
   -0.1348    1.4309   -0.7648 H   0  0  0  0  0  0  0  0  0  0  0  0
    0.8327    0.4840   -1.8799 H   0  0  0  0  0  0  0  0  0  0  0  0
   -1.2541    0.6395   -2.3565 C   0  0  0  0  0  0  0  0  0  0  0  0
   -2.5884    0.2747   -2.3122 N   0  0  0  0  0  0  0  0  0  0  0  0
   -3.1158    0.0505   -1.4712 H   0  0  0  0  0  0  0  0  0  0  0  0
   -3.1661    0.5602   -3.5358 C   0  0  0  0  0  0  0  0  0  0  0  0
   -4.2144    0.4162   -3.7822 H   0  0  0  0  0  0  0  0  0  0  0  0
   -2.2677    1.0433   -4.3547 N   0  0  0  0  0  0  0  0  0  0  0  0
   -1.0775    1.0937   -3.6393 C   0  0  0  0  0  0  0  0  0  0  0  0
   -0.1315    1.4377   -4.0474 H   0  0  0  0  0  0  0  0  0  0  0  0
    0.4173   -0.2036    1.0009 C   0  0  0  0  0  0  0  0  0  0  0  0
    1.6297   -0.1426    1.1581 O   0  0  0  0  0  0  0  0  0  0  0  0
   -0.4118    0.4442    1.8995 N   0  0  0  0  0  0  0  0  0  0  0  0
   -1.4053    0.2715    1.7862 H   0  0  0  0  0  0  0  0  0  0  0  0
    0.0637    0.9574    3.1782 C   0  0  0  0  0  0  0  0  0  0  0  0
    0.8518    1.7022    3.0243 H   0  0  0  0  0  0  0  0  0  0  0  0
   -0.7568    1.4335    3.7233 H   0  0  0  0  0  0  0  0  0  0  0  0
    0.4628    0.1427    3.7917 H   0  0  0  0  0  0  0  0  0  0  0  0
  1  2  1  0  0  0  0
  2  3  1  0  0  0  0
  2  4  1  0  0  0  0
  2  5  1  0  0  0  0
  5  6  2  0  0  0  0
  5  7  1  0  0  0  0
  7  8  1  0  0  0  0
  7  9  1  0  0  0  0
  9 10  1  0  0  0  0
  9 11  1  0  0  0  0
  9 22  1  0  0  0  0
 11 12  1  0  0  0  0
 11 13  1  0  0  0  0
 11 14  1  0  0  0  0
 14 15  1  0  0  0  0
 14 20  2  0  0  0  0
 15 16  1  0  0  0  0
 15 17  1  0  0  0  0
 17 18  1  0  0  0  0
 17 19  2  0  0  0  0
 19 20  1  0  0  0  0
 20 21  1  0  0  0  0
 22 23  2  0  0  0  0
 22 24  1  0  0  0  0
 24 25  1  0  0  0  0
 24 26  1  0  0  0  0
 26 27  1  0  0  0  0
 26 28  1  0  0  0  0
 26 29  1  0  0  0  0
M  END
$$$$

  -OEChem-03222214043D

 29 29  0     1  0  0  0  0  0999 V2000
   -2.8958   -4.2493    0.6944 H   0  0  0  0  0  0  0  0  0  0  0  0
   -2.9116   -3.3259    0.1082 C   0  0  0  0  0  0  0  0  0  0  0  0
   -3.8109   -2.7614    0.3652 H   0  0  0  0  0  0  0  0  0  0  0  0
   -2.9414   -3.5861   -0.9526 H   0  0  0  0  0  0  0  0  0  0  0  0
   -1.6752   -2.4989    0.4065 C   0  0  0  0  0  0  0  0  0  0  0  0
   -0.9085   -2.8540    1.2825 O   0  0  0  0  0  0  0  0  0  0  0  0
   -1.4391   -1.3412   -0.3094 N   0  0  0  0  0  0  0  0  0  0  0  0
   -2.0094   -1.2344   -1.1442 H   0  0  0  0  0  0  0  0  0  0  0  0
   -0.1257   -0.6700   -0.3591 C   0  0  1  0  0  0  0  0  0  0  0  0
    0.5831   -1.4180   -0.7315 H   0  0  0  0  0  0  0  0  0  0  0  0
   -0.0831    0.5245   -1.3502 C   0  0  0  0  0  0  0  0  0  0  0  0
   -0.0957    1.4568   -0.7749 H   0  0  0  0  0  0  0  0  0  0  0  0
    0.8772    0.4978   -1.8767 H   0  0  0  0  0  0  0  0  0  0  0  0
   -1.2106    0.6340   -2.3615 C   0  0  0  0  0  0  0  0  0  0  0  0
   -2.5772    0.4997   -2.1990 N   0  0  0  0  0  0  0  0  0  0  0  0
   -3.0727    0.4723   -1.3098 H   0  0  0  0  0  0  0  0  0  0  0  0
   -3.1843    0.6456   -3.4328 C   0  0  0  0  0  0  0  0  0  0  0  0
   -4.2557    0.6191   -3.6115 H   0  0  0  0  0  0  0  0  0  0  0  0
   -2.2773    0.8263   -4.3591 N   0  0  0  0  0  0  0  0  0  0  0  0
   -1.0478    0.8239   -3.7100 C   0  0  0  0  0  0  0  0  0  0  0  0
   -0.0897    0.9462   -4.2068 H   0  0  0  0  0  0  0  0  0  0  0  0
    0.4256   -0.2025    1.0063 C   0  0  0  0  0  0  0  0  0  0  0  0
    1.6370   -0.1542    1.1750 O   0  0  0  0  0  0  0  0  0  0  0  0
   -0.4048    0.4455    1.9035 N   0  0  0  0  0  0  0  0  0  0  0  0
   -1.3981    0.2765    1.7835 H   0  0  0  0  0  0  0  0  0  0  0  0
    0.0654    0.9318    3.1949 C   0  0  0  0  0  0  0  0  0  0  0  0
    0.8734    1.6587    3.0608 H   0  0  0  0  0  0  0  0  0  0  0  0
   -0.7506    1.4214    3.7347 H   0  0  0  0  0  0  0  0  0  0  0  0
    0.4368    0.1008    3.8040 H   0  0  0  0  0  0  0  0  0  0  0  0
  1  2  1  0  0  0  0
  2  3  1  0  0  0  0
  2  4  1  0  0  0  0
  2  5  1  0  0  0  0
  5  6  2  0  0  0  0
  5  7  1  0  0  0  0
  7  8  1  0  0  0  0
  7  9  1  0  0  0  0
  9 10  1  0  0  0  0
  9 11  1  0  0  0  0
  9 22  1  0  0  0  0
 11 12  1  0  0  0  0
 11 13  1  0  0  0  0
 11 14  1  0  0  0  0
 14 15  1  0  0  0  0
 14 20  2  0  0  0  0
 15 16  1  0  0  0  0
 15 17  1  0  0  0  0
 17 18  1  0  0  0  0
 17 19  2  0  0  0  0
 19 20  1  0  0  0  0
 20 21  1  0  0  0  0
 22 23  2  0  0  0  0
 22 24  1  0  0  0  0
 24 25  1  0  0  0  0
 24 26  1  0  0  0  0
 26 27  1  0  0  0  0
 26 28  1  0  0  0  0
 26 29  1  0  0  0  0
M  END
$$$$

  -OEChem-03222214043D

 29 29  0     1  0  0  0  0  0999 V2000
   -2.9698   -4.1799    0.6401 H   0  0  0  0  0  0  0  0  0  0  0  0
   -2.9503   -3.2571    0.0531 C   0  0  0  0  0  0  0  0  0  0  0  0
   -3.8274   -2.6580    0.3087 H   0  0  0  0  0  0  0  0  0  0  0  0
   -2.9891   -3.5162   -1.0078 H   0  0  0  0  0  0  0  0  0  0  0  0
   -1.6838   -2.4777    0.3516 C   0  0  0  0  0  0  0  0  0  0  0  0
   -0.9212   -2.8683    1.2163 O   0  0  0  0  0  0  0  0  0  0  0  0
   -1.4144   -1.3184   -0.3480 N   0  0  0  0  0  0  0  0  0  0  0  0
   -2.0035   -1.1510   -1.1607 H   0  0  0  0  0  0  0  0  0  0  0  0
   -0.0935   -0.6593   -0.3687 C   0  0  1  0  0  0  0  0  0  0  0  0
    0.6161   -1.4100   -0.7343 H   0  0  0  0  0  0  0  0  0  0  0  0
   -0.0363    0.5364   -1.3544 C   0  0  0  0  0  0  0  0  0  0  0  0
   -0.0478    1.4736   -0.7872 H   0  0  0  0  0  0  0  0  0  0  0  0
    0.9230    0.5018   -1.8823 H   0  0  0  0  0  0  0  0  0  0  0  0
   -1.1669    0.6116   -2.3604 C   0  0  0  0  0  0  0  0  0  0  0  0
   -2.5240    0.7268   -2.1299 N   0  0  0  0  0  0  0  0  0  0  0  0
   -2.9667    0.9031   -1.2297 H   0  0  0  0  0  0  0  0  0  0  0  0
   -3.1755    0.7414   -3.3495 C   0  0  0  0  0  0  0  0  0  0  0  0
   -4.2485    0.8435   -3.4858 H   0  0  0  0  0  0  0  0  0  0  0  0
   -2.3070    0.6135   -4.3216 N   0  0  0  0  0  0  0  0  0  0  0  0
   -1.0529    0.5411   -3.7244 C   0  0  0  0  0  0  0  0  0  0  0  0
   -0.1167    0.4341   -4.2645 H   0  0  0  0  0  0  0  0  0  0  0  0
    0.4358   -0.2065    1.0091 C   0  0  0  0  0  0  0  0  0  0  0  0
    1.6440   -0.1624    1.2001 O   0  0  0  0  0  0  0  0  0  0  0  0
   -0.4087    0.4430    1.8918 N   0  0  0  0  0  0  0  0  0  0  0  0
   -1.3992    0.2683    1.7570 H   0  0  0  0  0  0  0  0  0  0  0  0
    0.0397    0.9242    3.1928 C   0  0  0  0  0  0  0  0  0  0  0  0
    0.8495    1.6520    3.0749 H   0  0  0  0  0  0  0  0  0  0  0  0
   -0.7856    1.4116    3.7206 H   0  0  0  0  0  0  0  0  0  0  0  0
    0.4013    0.0911    3.8047 H   0  0  0  0  0  0  0  0  0  0  0  0
  1  2  1  0  0  0  0
  2  3  1  0  0  0  0
  2  4  1  0  0  0  0
  2  5  1  0  0  0  0
  5  6  2  0  0  0  0
  5  7  1  0  0  0  0
  7  8  1  0  0  0  0
  7  9  1  0  0  0  0
  9 10  1  0  0  0  0
  9 11  1  0  0  0  0
  9 22  1  0  0  0  0
 11 12  1  0  0  0  0
 11 13  1  0  0  0  0
 11 14  1  0  0  0  0
 14 15  1  0  0  0  0
 14 20  2  0  0  0  0
 15 16  1  0  0  0  0
 15 17  1  0  0  0  0
 17 18  1  0  0  0  0
 17 19  2  0  0  0  0
 19 20  1  0  0  0  0
 20 21  1  0  0  0  0
 22 23  2  0  0  0  0
 22 24  1  0  0  0  0
 24 25  1  0  0  0  0
 24 26  1  0  0  0  0
 26 27  1  0  0  0  0
 26 28  1  0  0  0  0
 26 29  1  0  0  0  0
M  END
$$$$

  -OEChem-03222214043D

 29 29  0     1  0  0  0  0  0999 V2000
   -3.0072   -4.1420    0.5897 H   0  0  0  0  0  0  0  0  0  0  0  0
   -2.9745   -3.2079    0.0216 C   0  0  0  0  0  0  0  0  0  0  0  0
   -3.8334   -2.5942    0.3025 H   0  0  0  0  0  0  0  0  0  0  0  0
   -3.0355   -3.4436   -1.0438 H   0  0  0  0  0  0  0  0  0  0  0  0
   -1.6863   -2.4632    0.3156 C   0  0  0  0  0  0  0  0  0  0  0  0
   -0.9251   -2.8795    1.1697 O   0  0  0  0  0  0  0  0  0  0  0  0
   -1.3953   -1.3038   -0.3741 N   0  0  0  0  0  0  0  0  0  0  0  0
   -2.0009   -1.0918   -1.1645 H   0  0  0  0  0  0  0  0  0  0  0  0
   -0.0711   -0.6497   -0.3739 C   0  0  1  0  0  0  0  0  0  0  0  0
    0.6412   -1.4015   -0.7318 H   0  0  0  0  0  0  0  0  0  0  0  0
   -0.0070    0.5428   -1.3605 C   0  0  0  0  0  0  0  0  0  0  0  0
   -0.0195    1.4865   -0.8044 H   0  0  0  0  0  0  0  0  0  0  0  0
    0.9512    0.5014   -1.8894 H   0  0  0  0  0  0  0  0  0  0  0  0
   -1.1389    0.5830   -2.3634 C   0  0  0  0  0  0  0  0  0  0  0  0
   -2.4497    0.9546   -2.1443 N   0  0  0  0  0  0  0  0  0  0  0  0
   -2.8325    1.3331   -1.2796 H   0  0  0  0  0  0  0  0  0  0  0  0
   -3.1372    0.8507   -3.3395 C   0  0  0  0  0  0  0  0  0  0  0  0
   -4.1870    1.0921   -3.4819 H   0  0  0  0  0  0  0  0  0  0  0  0
   -2.3357    0.4136   -4.2794 N   0  0  0  0  0  0  0  0  0  0  0  0
   -1.0841    0.2574   -3.6932 C   0  0  0  0  0  0  0  0  0  0  0  0
   -0.1940   -0.0828   -4.2143 H   0  0  0  0  0  0  0  0  0  0  0  0
    0.4412   -0.2023    1.0118 C   0  0  0  0  0  0  0  0  0  0  0  0
    1.6470   -0.1599    1.2179 O   0  0  0  0  0  0  0  0  0  0  0  0
   -0.4129    0.4487    1.8846 N   0  0  0  0  0  0  0  0  0  0  0  0
   -1.4015    0.2723    1.7390 H   0  0  0  0  0  0  0  0  0  0  0  0
    0.0198    0.9201    3.1946 C   0  0  0  0  0  0  0  0  0  0  0  0
    0.8362    1.6429    3.0928 H   0  0  0  0  0  0  0  0  0  0  0  0
   -0.8094    1.4104    3.7132 H   0  0  0  0  0  0  0  0  0  0  0  0
    0.3666    0.0812    3.8072 H   0  0  0  0  0  0  0  0  0  0  0  0
  1  2  1  0  0  0  0
  2  3  1  0  0  0  0
  2  4  1  0  0  0  0
  2  5  1  0  0  0  0
  5  6  2  0  0  0  0
  5  7  1  0  0  0  0
  7  8  1  0  0  0  0
  7  9  1  0  0  0  0
  9 10  1  0  0  0  0
  9 11  1  0  0  0  0
  9 22  1  0  0  0  0
 11 12  1  0  0  0  0
 11 13  1  0  0  0  0
 11 14  1  0  0  0  0
 14 15  1  0  0  0  0
 14 20  2  0  0  0  0
 15 16  1  0  0  0  0
 15 17  1  0  0  0  0
 17 18  1  0  0  0  0
 17 19  2  0  0  0  0
 19 20  1  0  0  0  0
 20 21  1  0  0  0  0
 22 23  2  0  0  0  0
 22 24  1  0  0  0  0
 24 25  1  0  0  0  0
 24 26  1  0  0  0  0
 26 27  1  0  0  0  0
 26 28  1  0  0  0  0
 26 29  1  0  0  0  0
M  END
$$$$

  -OEChem-03222214043D

 29 29  0     1  0  0  0  0  0999 V2000
   -3.0346   -4.1099    0.5823 H   0  0  0  0  0  0  0  0  0  0  0  0
   -2.9883   -3.1774    0.0125 C   0  0  0  0  0  0  0  0  0  0  0  0
   -3.8297   -2.5441    0.3030 H   0  0  0  0  0  0  0  0  0  0  0  0
   -3.0677   -3.4129   -1.0517 H   0  0  0  0  0  0  0  0  0  0  0  0
   -1.6801   -2.4617    0.2903 C   0  0  0  0  0  0  0  0  0  0  0  0
   -0.9108   -2.9020    1.1250 O   0  0  0  0  0  0  0  0  0  0  0  0
   -1.3772   -1.3022   -0.3933 N   0  0  0  0  0  0  0  0  0  0  0  0
   -2.0030   -1.0522   -1.1565 H   0  0  0  0  0  0  0  0  0  0  0  0
   -0.0522   -0.6481   -0.3818 C   0  0  1  0  0  0  0  0  0  0  0  0
    0.6640   -1.3980   -0.7355 H   0  0  0  0  0  0  0  0  0  0  0  0
    0.0137    0.5465   -1.3648 C   0  0  0  0  0  0  0  0  0  0  0  0
    0.0017    1.4920   -0.8117 H   0  0  0  0  0  0  0  0  0  0  0  0
    0.9702    0.5034   -1.8970 H   0  0  0  0  0  0  0  0  0  0  0  0
   -1.1195    0.5694   -2.3640 C   0  0  0  0  0  0  0  0  0  0  0  0
   -2.3453    1.1843   -2.2262 N   0  0  0  0  0  0  0  0  0  0  0  0
   -2.6451    1.7647   -1.4447 H   0  0  0  0  0  0  0  0  0  0  0  0
   -3.0744    0.9632   -3.3799 C   0  0  0  0  0  0  0  0  0  0  0  0
   -4.0781    1.3340   -3.5680 H   0  0  0  0  0  0  0  0  0  0  0  0
   -2.3772    0.2327   -4.2157 N   0  0  0  0  0  0  0  0  0  0  0  0
   -1.1486   -0.0030   -3.6082 C   0  0  0  0  0  0  0  0  0  0  0  0
   -0.3355   -0.5703   -4.0514 H   0  0  0  0  0  0  0  0  0  0  0  0
    0.4454   -0.2033    1.0098 C   0  0  0  0  0  0  0  0  0  0  0  0
    1.6485   -0.1601    1.2306 O   0  0  0  0  0  0  0  0  0  0  0  0
   -0.4193    0.4459    1.8733 N   0  0  0  0  0  0  0  0  0  0  0  0
   -1.4067    0.2783    1.7095 H   0  0  0  0  0  0  0  0  0  0  0  0
   -0.0040    0.9174    3.1890 C   0  0  0  0  0  0  0  0  0  0  0  0
    0.8111    1.6432    3.0980 H   0  0  0  0  0  0  0  0  0  0  0  0
   -0.8410    1.4041    3.6986 H   0  0  0  0  0  0  0  0  0  0  0  0
    0.3385    0.0791    3.8049 H   0  0  0  0  0  0  0  0  0  0  0  0
  1  2  1  0  0  0  0
  2  3  1  0  0  0  0
  2  4  1  0  0  0  0
  2  5  1  0  0  0  0
  5  6  2  0  0  0  0
  5  7  1  0  0  0  0
  7  8  1  0  0  0  0
  7  9  1  0  0  0  0
  9 10  1  0  0  0  0
  9 11  1  0  0  0  0
  9 22  1  0  0  0  0
 11 12  1  0  0  0  0
 11 13  1  0  0  0  0
 11 14  1  0  0  0  0
 14 15  1  0  0  0  0
 14 20  2  0  0  0  0
 15 16  1  0  0  0  0
 15 17  1  0  0  0  0
 17 18  1  0  0  0  0
 17 19  2  0  0  0  0
 19 20  1  0  0  0  0
 20 21  1  0  0  0  0
 22 23  2  0  0  0  0
 22 24  1  0  0  0  0
 24 25  1  0  0  0  0
 24 26  1  0  0  0  0
 26 27  1  0  0  0  0
 26 28  1  0  0  0  0
 26 29  1  0  0  0  0
M  END
$$$$

  -OEChem-03222214043D

 29 29  0     1  0  0  0  0  0999 V2000
   -3.0393   -4.0996    0.5947 H   0  0  0  0  0  0  0  0  0  0  0  0
   -2.9926   -3.1657    0.0276 C   0  0  0  0  0  0  0  0  0  0  0  0
   -3.8194   -2.5225    0.3381 H   0  0  0  0  0  0  0  0  0  0  0  0
   -3.0973   -3.3953   -1.0356 H   0  0  0  0  0  0  0  0  0  0  0  0
   -1.6694   -2.4687    0.2804 C   0  0  0  0  0  0  0  0  0  0  0  0
   -0.8854   -2.9262    1.0921 O   0  0  0  0  0  0  0  0  0  0  0  0
   -1.3665   -1.3081   -0.4016 N   0  0  0  0  0  0  0  0  0  0  0  0
   -2.0167   -1.0274   -1.1330 H   0  0  0  0  0  0  0  0  0  0  0  0
   -0.0442   -0.6481   -0.3870 C   0  0  1  0  0  0  0  0  0  0  0  0
    0.6764   -1.3952   -0.7374 H   0  0  0  0  0  0  0  0  0  0  0  0
    0.0214    0.5460   -1.3703 C   0  0  0  0  0  0  0  0  0  0  0  0
    0.0026    1.4899   -0.8150 H   0  0  0  0  0  0  0  0  0  0  0  0
    0.9796    0.5087   -1.8998 H   0  0  0  0  0  0  0  0  0  0  0  0
   -1.1074    0.5642   -2.3742 C   0  0  0  0  0  0  0  0  0  0  0  0
   -2.2107    1.3893   -2.3809 N   0  0  0  0  0  0  0  0  0  0  0  0
   -2.4074    2.1413   -1.7226 H   0  0  0  0  0  0  0  0  0  0  0  0
   -2.9850    1.0704   -3.4809 C   0  0  0  0  0  0  0  0  0  0  0  0
   -3.9188    1.5554   -3.7517 H   0  0  0  0  0  0  0  0  0  0  0  0
   -2.4298    0.0882   -4.1490 N   0  0  0  0  0  0  0  0  0  0  0  0
   -1.2460   -0.2211   -3.4887 C   0  0  0  0  0  0  0  0  0  0  0  0
   -0.5421   -0.9868   -3.8017 H   0  0  0  0  0  0  0  0  0  0  0  0
    0.4448   -0.2022    1.0070 C   0  0  0  0  0  0  0  0  0  0  0  0
    1.6463   -0.1571    1.2354 O   0  0  0  0  0  0  0  0  0  0  0  0
   -0.4266    0.4424    1.8671 N   0  0  0  0  0  0  0  0  0  0  0  0
   -1.4135    0.2834    1.6918 H   0  0  0  0  0  0  0  0  0  0  0  0
   -0.0216    0.9106    3.1870 C   0  0  0  0  0  0  0  0  0  0  0  0
    0.7928    1.6381    3.1034 H   0  0  0  0  0  0  0  0  0  0  0  0
   -0.8632    1.3939    3.6922 H   0  0  0  0  0  0  0  0  0  0  0  0
    0.3182    0.0708    3.8025 H   0  0  0  0  0  0  0  0  0  0  0  0
  1  2  1  0  0  0  0
  2  3  1  0  0  0  0
  2  4  1  0  0  0  0
  2  5  1  0  0  0  0
  5  6  2  0  0  0  0
  5  7  1  0  0  0  0
  7  8  1  0  0  0  0
  7  9  1  0  0  0  0
  9 10  1  0  0  0  0
  9 11  1  0  0  0  0
  9 22  1  0  0  0  0
 11 12  1  0  0  0  0
 11 13  1  0  0  0  0
 11 14  1  0  0  0  0
 14 15  1  0  0  0  0
 14 20  2  0  0  0  0
 15 16  1  0  0  0  0
 15 17  1  0  0  0  0
 17 18  1  0  0  0  0
 17 19  2  0  0  0  0
 19 20  1  0  0  0  0
 20 21  1  0  0  0  0
 22 23  2  0  0  0  0
 22 24  1  0  0  0  0
 24 25  1  0  0  0  0
 24 26  1  0  0  0  0
 26 27  1  0  0  0  0
 26 28  1  0  0  0  0
 26 29  1  0  0  0  0
M  END
$$$$

  -OEChem-03222214043D

 29 29  0     1  0  0  0  0  0999 V2000
   -3.0318   -4.1096    0.6318 H   0  0  0  0  0  0  0  0  0  0  0  0
   -2.9911   -3.1749    0.0653 C   0  0  0  0  0  0  0  0  0  0  0  0
   -3.8054   -2.5261    0.3964 H   0  0  0  0  0  0  0  0  0  0  0  0
   -3.1224   -3.4015   -0.9958 H   0  0  0  0  0  0  0  0  0  0  0  0
   -1.6570   -2.4881    0.2873 C   0  0  0  0  0  0  0  0  0  0  0  0
   -0.8528   -2.9569    1.0723 O   0  0  0  0  0  0  0  0  0  0  0  0
   -1.3644   -1.3259   -0.3961 N   0  0  0  0  0  0  0  0  0  0  0  0
   -2.0432   -1.0189   -1.0896 H   0  0  0  0  0  0  0  0  0  0  0  0
   -0.0481   -0.6540   -0.3863 C   0  0  1  0  0  0  0  0  0  0  0  0
    0.6774   -1.3981   -0.7335 H   0  0  0  0  0  0  0  0  0  0  0  0
    0.0153    0.5352   -1.3766 C   0  0  0  0  0  0  0  0  0  0  0  0
   -0.0167    1.4770   -0.8185 H   0  0  0  0  0  0  0  0  0  0  0  0
    0.9784    0.5088   -1.8972 H   0  0  0  0  0  0  0  0  0  0  0  0
   -1.1028    0.5569   -2.3936 C   0  0  0  0  0  0  0  0  0  0  0  0
   -2.0433    1.5454   -2.5831 N   0  0  0  0  0  0  0  0  0  0  0  0
   -2.1119    2.4214   -2.0680 H   0  0  0  0  0  0  0  0  0  0  0  0
   -2.8661    1.1698   -3.6286 C   0  0  0  0  0  0  0  0  0  0  0  0
   -3.7048    1.7492   -4.0046 H   0  0  0  0  0  0  0  0  0  0  0  0
   -2.4904    0.0040   -4.0975 N   0  0  0  0  0  0  0  0  0  0  0  0
   -1.3752   -0.3764   -3.3606 C   0  0  0  0  0  0  0  0  0  0  0  0
   -0.8112   -1.2913   -3.5172 H   0  0  0  0  0  0  0  0  0  0  0  0
    0.4394   -0.2022    1.0064 C   0  0  0  0  0  0  0  0  0  0  0  0
    1.6410   -0.1448    1.2327 O   0  0  0  0  0  0  0  0  0  0  0  0
   -0.4365    0.4353    1.8673 N   0  0  0  0  0  0  0  0  0  0  0  0
   -1.4229    0.2740    1.6900 H   0  0  0  0  0  0  0  0  0  0  0  0
   -0.0352    0.9100    3.1859 C   0  0  0  0  0  0  0  0  0  0  0  0
    0.7722    1.6450    3.1007 H   0  0  0  0  0  0  0  0  0  0  0  0
   -0.8811    1.3866    3.6900 H   0  0  0  0  0  0  0  0  0  0  0  0
    0.3126    0.0748    3.8029 H   0  0  0  0  0  0  0  0  0  0  0  0
  1  2  1  0  0  0  0
  2  3  1  0  0  0  0
  2  4  1  0  0  0  0
  2  5  1  0  0  0  0
  5  6  2  0  0  0  0
  5  7  1  0  0  0  0
  7  8  1  0  0  0  0
  7  9  1  0  0  0  0
  9 10  1  0  0  0  0
  9 11  1  0  0  0  0
  9 22  1  0  0  0  0
 11 12  1  0  0  0  0
 11 13  1  0  0  0  0
 11 14  1  0  0  0  0
 14 15  1  0  0  0  0
 14 20  2  0  0  0  0
 15 16  1  0  0  0  0
 15 17  1  0  0  0  0
 17 18  1  0  0  0  0
 17 19  2  0  0  0  0
 19 20  1  0  0  0  0
 20 21  1  0  0  0  0
 22 23  2  0  0  0  0
 22 24  1  0  0  0  0
 24 25  1  0  0  0  0
 24 26  1  0  0  0  0
 26 27  1  0  0  0  0
 26 28  1  0  0  0  0
 26 29  1  0  0  0  0
M  END
$$$$

  -OEChem-03222214043D

 29 29  0     1  0  0  0  0  0999 V2000
   -3.0047   -4.1245    0.7242 H   0  0  0  0  0  0  0  0  0  0  0  0
   -2.9797   -3.1931    0.1515 C   0  0  0  0  0  0  0  0  0  0  0  0
   -3.7687   -2.5325    0.5183 H   0  0  0  0  0  0  0  0  0  0  0  0
   -3.1658   -3.4229   -0.9005 H   0  0  0  0  0  0  0  0  0  0  0  0
   -1.6278   -2.5227    0.3052 C   0  0  0  0  0  0  0  0  0  0  0  0
   -0.7911   -3.0012    1.0494 O   0  0  0  0  0  0  0  0  0  0  0  0
   -1.3567   -1.3605   -0.3878 N   0  0  0  0  0  0  0  0  0  0  0  0
   -2.0766   -1.0221   -1.0223 H   0  0  0  0  0  0  0  0  0  0  0  0
   -0.0518   -0.6671   -0.3912 C   0  0  1  0  0  0  0  0  0  0  0  0
    0.6830   -1.4036   -0.7349 H   0  0  0  0  0  0  0  0  0  0  0  0
   -0.0001    0.5176   -1.3893 C   0  0  0  0  0  0  0  0  0  0  0  0
   -0.0530    1.4549   -0.8250 H   0  0  0  0  0  0  0  0  0  0  0  0
    0.9691    0.5108   -1.8997 H   0  0  0  0  0  0  0  0  0  0  0  0
   -1.1071    0.5472   -2.4211 C   0  0  0  0  0  0  0  0  0  0  0  0
   -1.8513    1.6423   -2.8021 N   0  0  0  0  0  0  0  0  0  0  0  0
   -1.7678    2.5872   -2.4315 H   0  0  0  0  0  0  0  0  0  0  0  0
   -2.7238    1.2543   -3.8017 C   0  0  0  0  0  0  0  0  0  0  0  0
   -3.4450    1.9039   -4.2899 H   0  0  0  0  0  0  0  0  0  0  0  0
   -2.5577   -0.0179   -4.0725 N   0  0  0  0  0  0  0  0  0  0  0  0
   -1.5306   -0.4619   -3.2494 C   0  0  0  0  0  0  0  0  0  0  0  0
   -1.1265   -1.4700   -3.2556 H   0  0  0  0  0  0  0  0  0  0  0  0
    0.4295   -0.2007    0.9987 C   0  0  0  0  0  0  0  0  0  0  0  0
    1.6297   -0.1300    1.2281 O   0  0  0  0  0  0  0  0  0  0  0  0
   -0.4565    0.4256    1.8574 N   0  0  0  0  0  0  0  0  0  0  0  0
   -1.4415    0.2662    1.6710 H   0  0  0  0  0  0  0  0  0  0  0  0
   -0.0655    0.9048    3.1773 C   0  0  0  0  0  0  0  0  0  0  0  0
    0.7365    1.6458    3.0952 H   0  0  0  0  0  0  0  0  0  0  0  0
   -0.9176    1.3749    3.6774 H   0  0  0  0  0  0  0  0  0  0  0  0
    0.2860    0.0725    3.7962 H   0  0  0  0  0  0  0  0  0  0  0  0
  1  2  1  0  0  0  0
  2  3  1  0  0  0  0
  2  4  1  0  0  0  0
  2  5  1  0  0  0  0
  5  6  2  0  0  0  0
  5  7  1  0  0  0  0
  7  8  1  0  0  0  0
  7  9  1  0  0  0  0
  9 10  1  0  0  0  0
  9 11  1  0  0  0  0
  9 22  1  0  0  0  0
 11 12  1  0  0  0  0
 11 13  1  0  0  0  0
 11 14  1  0  0  0  0
 14 15  1  0  0  0  0
 14 20  2  0  0  0  0
 15 16  1  0  0  0  0
 15 17  1  0  0  0  0
 17 18  1  0  0  0  0
 17 19  2  0  0  0  0
 19 20  1  0  0  0  0
 20 21  1  0  0  0  0
 22 23  2  0  0  0  0
 22 24  1  0  0  0  0
 24 25  1  0  0  0  0
 24 26  1  0  0  0  0
 26 27  1  0  0  0  0
 26 28  1  0  0  0  0
 26 29  1  0  0  0  0
M  END
$$$$

  -OEChem-03222214043D

 29 29  0     1  0  0  0  0  0999 V2000
   -2.9656   -4.1625    0.8205 H   0  0  0  0  0  0  0  0  0  0  0  0
   -2.9605   -3.2377    0.2367 C   0  0  0  0  0  0  0  0  0  0  0  0
   -3.7405   -2.5752    0.6190 H   0  0  0  0  0  0  0  0  0  0  0  0
   -3.1763   -3.4801   -0.8068 H   0  0  0  0  0  0  0  0  0  0  0  0
   -1.6068   -2.5616    0.3418 C   0  0  0  0  0  0  0  0  0  0  0  0
   -0.7396   -3.0391    1.0506 O   0  0  0  0  0  0  0  0  0  0  0  0
   -1.3670   -1.3982   -0.3609 N   0  0  0  0  0  0  0  0  0  0  0  0
   -2.1238   -1.0419   -0.9389 H   0  0  0  0  0  0  0  0  0  0  0  0
   -0.0767   -0.6806   -0.3859 C   0  0  1  0  0  0  0  0  0  0  0  0
    0.6651   -1.4111   -0.7279 H   0  0  0  0  0  0  0  0  0  0  0  0
   -0.0367    0.4938   -1.3986 C   0  0  0  0  0  0  0  0  0  0  0  0
   -0.1027    1.4310   -0.8354 H   0  0  0  0  0  0  0  0  0  0  0  0
    0.9384    0.4948   -1.8969 H   0  0  0  0  0  0  0  0  0  0  0  0
   -1.1276    0.5372   -2.4507 C   0  0  0  0  0  0  0  0  0  0  0  0
   -1.6394    1.6795   -3.0282 N   0  0  0  0  0  0  0  0  0  0  0  0
   -1.3786    2.6376   -2.8016 H   0  0  0  0  0  0  0  0  0  0  0  0
   -2.5597    1.3160   -3.9932 C   0  0  0  0  0  0  0  0  0  0  0  0
   -3.1367    2.0078   -4.6005 H   0  0  0  0  0  0  0  0  0  0  0  0
   -2.6377    0.0098   -4.0678 N   0  0  0  0  0  0  0  0  0  0  0  0
   -1.7250   -0.4861   -3.1462 C   0  0  0  0  0  0  0  0  0  0  0  0
   -1.5123   -1.5418   -3.0056 H   0  0  0  0  0  0  0  0  0  0  0  0
    0.4131   -0.1978    0.9955 C   0  0  0  0  0  0  0  0  0  0  0  0
    1.6144   -0.1004    1.2085 O   0  0  0  0  0  0  0  0  0  0  0  0
   -0.4736    0.4158    1.8627 N   0  0  0  0  0  0  0  0  0  0  0  0
   -1.4585    0.2437    1.6880 H   0  0  0  0  0  0  0  0  0  0  0  0
   -0.0741    0.9196    3.1708 C   0  0  0  0  0  0  0  0  0  0  0  0
    0.7090    1.6781    3.0679 H   0  0  0  0  0  0  0  0  0  0  0  0
   -0.9297    1.3758    3.6778 H   0  0  0  0  0  0  0  0  0  0  0  0
    0.3058    0.1034    3.7944 H   0  0  0  0  0  0  0  0  0  0  0  0
  1  2  1  0  0  0  0
  2  3  1  0  0  0  0
  2  4  1  0  0  0  0
  2  5  1  0  0  0  0
  5  6  2  0  0  0  0
  5  7  1  0  0  0  0
  7  8  1  0  0  0  0
  7  9  1  0  0  0  0
  9 10  1  0  0  0  0
  9 11  1  0  0  0  0
  9 22  1  0  0  0  0
 11 12  1  0  0  0  0
 11 13  1  0  0  0  0
 11 14  1  0  0  0  0
 14 15  1  0  0  0  0
 14 20  2  0  0  0  0
 15 16  1  0  0  0  0
 15 17  1  0  0  0  0
 17 18  1  0  0  0  0
 17 19  2  0  0  0  0
 19 20  1  0  0  0  0
 20 21  1  0  0  0  0
 22 23  2  0  0  0  0
 22 24  1  0  0  0  0
 24 25  1  0  0  0  0
 24 26  1  0  0  0  0
 26 27  1  0  0  0  0
 26 28  1  0  0  0  0
 26 29  1  0  0  0  0
M  END
$$$$

  -OEChem-03222214043D

 29 29  0     1  0  0  0  0  0999 V2000
   -2.9036   -4.2094    0.9388 H   0  0  0  0  0  0  0  0  0  0  0  0
   -2.9310   -3.2939    0.3409 C   0  0  0  0  0  0  0  0  0  0  0  0
   -3.7029   -2.6337    0.7428 H   0  0  0  0  0  0  0  0  0  0  0  0
   -3.1841   -3.5552   -0.6894 H   0  0  0  0  0  0  0  0  0  0  0  0
   -1.5812   -2.6033    0.3835 C   0  0  0  0  0  0  0  0  0  0  0  0
   -0.6797   -3.0699    1.0557 O   0  0  0  0  0  0  0  0  0  0  0  0
   -1.3822   -1.4400   -0.3329 N   0  0  0  0  0  0  0  0  0  0  0  0
   -2.1738   -1.0767   -0.8561 H   0  0  0  0  0  0  0  0  0  0  0  0
   -0.1088   -0.6962   -0.3857 C   0  0  1  0  0  0  0  0  0  0  0  0
    0.6390   -1.4200   -0.7288 H   0  0  0  0  0  0  0  0  0  0  0  0
   -0.0829    0.4682   -1.4118 C   0  0  0  0  0  0  0  0  0  0  0  0
   -0.1584    1.4056   -0.8501 H   0  0  0  0  0  0  0  0  0  0  0  0
    0.8975    0.4744   -1.8999 H   0  0  0  0  0  0  0  0  0  0  0  0
   -1.1577    0.5308   -2.4832 C   0  0  0  0  0  0  0  0  0  0  0  0
   -1.4164    1.6512   -3.2447 N   0  0  0  0  0  0  0  0  0  0  0  0
   -0.9629    2.5583   -3.1506 H   0  0  0  0  0  0  0  0  0  0  0  0
   -2.3879    1.3472   -4.1787 C   0  0  0  0  0  0  0  0  0  0  0  0
   -2.8042    2.0455   -4.8994 H   0  0  0  0  0  0  0  0  0  0  0  0
   -2.7358    0.0894   -4.0666 N   0  0  0  0  0  0  0  0  0  0  0  0
   -1.9528   -0.4383   -3.0489 C   0  0  0  0  0  0  0  0  0  0  0  0
   -1.9630   -1.4867   -2.7695 H   0  0  0  0  0  0  0  0  0  0  0  0
    0.3936   -0.1936    0.9848 C   0  0  0  0  0  0  0  0  0  0  0  0
    1.5961   -0.0730    1.1783 O   0  0  0  0  0  0  0  0  0  0  0  0
   -0.4898    0.4076    1.8642 N   0  0  0  0  0  0  0  0  0  0  0  0
   -1.4755    0.2272    1.7034 H   0  0  0  0  0  0  0  0  0  0  0  0
   -0.0780    0.9391    3.1577 C   0  0  0  0  0  0  0  0  0  0  0  0
    0.6829    1.7163    3.0298 H   0  0  0  0  0  0  0  0  0  0  0  0
   -0.9351    1.3799    3.6757 H   0  0  0  0  0  0  0  0  0  0  0  0
    0.3354    0.1416    3.7841 H   0  0  0  0  0  0  0  0  0  0  0  0
  1  2  1  0  0  0  0
  2  3  1  0  0  0  0
  2  4  1  0  0  0  0
  2  5  1  0  0  0  0
  5  6  2  0  0  0  0
  5  7  1  0  0  0  0
  7  8  1  0  0  0  0
  7  9  1  0  0  0  0
  9 10  1  0  0  0  0
  9 11  1  0  0  0  0
  9 22  1  0  0  0  0
 11 12  1  0  0  0  0
 11 13  1  0  0  0  0
 11 14  1  0  0  0  0
 14 15  1  0  0  0  0
 14 20  2  0  0  0  0
 15 16  1  0  0  0  0
 15 17  1  0  0  0  0
 17 18  1  0  0  0  0
 17 19  2  0  0  0  0
 19 20  1  0  0  0  0
 20 21  1  0  0  0  0
 22 23  2  0  0  0  0
 22 24  1  0  0  0  0
 24 25  1  0  0  0  0
 24 26  1  0  0  0  0
 26 27  1  0  0  0  0
 26 28  1  0  0  0  0
 26 29  1  0  0  0  0
M  END
$$$$

  -OEChem-03222214043D

 29 29  0     1  0  0  0  0  0999 V2000
   -2.7107   -4.3061    1.1020 H   0  0  0  0  0  0  0  0  0  0  0  0
   -2.8043   -3.4008    0.4952 C   0  0  0  0  0  0  0  0  0  0  0  0
   -3.5513   -2.7473    0.9517 H   0  0  0  0  0  0  0  0  0  0  0  0
   -3.1383   -3.6823   -0.5065 H   0  0  0  0  0  0  0  0  0  0  0  0
   -1.4676   -2.6881    0.4132 C   0  0  0  0  0  0  0  0  0  0  0  0
   -0.4983   -3.1436    0.9924 O   0  0  0  0  0  0  0  0  0  0  0  0
   -1.3600   -1.5163   -0.3093 N   0  0  0  0  0  0  0  0  0  0  0  0
   -2.2142   -1.1471   -0.7069 H   0  0  0  0  0  0  0  0  0  0  0  0
   -0.1305   -0.7115   -0.4137 C   0  0  1  0  0  0  0  0  0  0  0  0
    0.6420   -1.4008   -0.7741 H   0  0  0  0  0  0  0  0  0  0  0  0
   -0.1662    0.4637   -1.4341 C   0  0  0  0  0  0  0  0  0  0  0  0
    0.0617    1.3897   -0.8946 H   0  0  0  0  0  0  0  0  0  0  0  0
    0.6647    0.3026   -2.1290 H   0  0  0  0  0  0  0  0  0  0  0  0
   -1.4006    0.7597   -2.2757 C   0  0  0  0  0  0  0  0  0  0  0  0
   -1.4150    1.8073   -3.1744 N   0  0  0  0  0  0  0  0  0  0  0  0
   -0.6536    2.4633   -3.3399 H   0  0  0  0  0  0  0  0  0  0  0  0
   -2.6341    1.8400   -3.8216 C   0  0  0  0  0  0  0  0  0  0  0  0
   -2.9259    2.5674   -4.5742 H   0  0  0  0  0  0  0  0  0  0  0  0
   -3.3898    0.8616   -3.3917 N   0  0  0  0  0  0  0  0  0  0  0  0
   -2.6359    0.1761   -2.4497 C   0  0  0  0  0  0  0  0  0  0  0  0
   -3.0093   -0.7087   -1.9499 H   0  0  0  0  0  0  0  0  0  0  0  0
    0.3857   -0.1947    0.9474 C   0  0  0  0  0  0  0  0  0  0  0  0
    1.5864   -0.0233    1.1117 O   0  0  0  0  0  0  0  0  0  0  0  0
   -0.4990    0.3539    1.8595 N   0  0  0  0  0  0  0  0  0  0  0  0
   -1.4837    0.1603    1.7108 H   0  0  0  0  0  0  0  0  0  0  0  0
   -0.0773    0.9126    3.1381 C   0  0  0  0  0  0  0  0  0  0  0  0
    0.6209    1.7419    2.9829 H   0  0  0  0  0  0  0  0  0  0  0  0
   -0.9432    1.2908    3.6898 H   0  0  0  0  0  0  0  0  0  0  0  0
    0.4152    0.1463    3.7461 H   0  0  0  0  0  0  0  0  0  0  0  0
  1  2  1  0  0  0  0
  2  3  1  0  0  0  0
  2  4  1  0  0  0  0
  2  5  1  0  0  0  0
  5  6  2  0  0  0  0
  5  7  1  0  0  0  0
  7  8  1  0  0  0  0
  7  9  1  0  0  0  0
  9 10  1  0  0  0  0
  9 11  1  0  0  0  0
  9 22  1  0  0  0  0
 11 12  1  0  0  0  0
 11 13  1  0  0  0  0
 11 14  1  0  0  0  0
 14 15  1  0  0  0  0
 14 20  2  0  0  0  0
 15 16  1  0  0  0  0
 15 17  1  0  0  0  0
 17 18  1  0  0  0  0
 17 19  2  0  0  0  0
 19 20  1  0  0  0  0
 20 21  1  0  0  0  0
 22 23  2  0  0  0  0
 22 24  1  0  0  0  0
 24 25  1  0  0  0  0
 24 26  1  0  0  0  0
 26 27  1  0  0  0  0
 26 28  1  0  0  0  0
 26 29  1  0  0  0  0
M  END
$$$$

  -OEChem-03222214043D

 29 29  0     1  0  0  0  0  0999 V2000
   -2.5768   -4.4271    0.9206 H   0  0  0  0  0  0  0  0  0  0  0  0
   -2.6668   -3.5408    0.2860 C   0  0  0  0  0  0  0  0  0  0  0  0
   -3.5662   -2.9913    0.5739 H   0  0  0  0  0  0  0  0  0  0  0  0
   -2.7607   -3.8622   -0.7541 H   0  0  0  0  0  0  0  0  0  0  0  0
   -1.4452   -2.6564    0.4494 C   0  0  0  0  0  0  0  0  0  0  0  0
   -0.5770   -2.9639    1.2454 O   0  0  0  0  0  0  0  0  0  0  0  0
   -1.3314   -1.5052   -0.3057 N   0  0  0  0  0  0  0  0  0  0  0  0
   -1.9970   -1.4214   -1.0675 H   0  0  0  0  0  0  0  0  0  0  0  0
   -0.0974   -0.7025   -0.4027 C   0  0  1  0  0  0  0  0  0  0  0  0
    0.6884   -1.3825   -0.7507 H   0  0  0  0  0  0  0  0  0  0  0  0
   -0.1613    0.4785   -1.4163 C   0  0  0  0  0  0  0  0  0  0  0  0
    0.0844    1.4131   -0.8994 H   0  0  0  0  0  0  0  0  0  0  0  0
    0.6453    0.3078   -2.1369 H   0  0  0  0  0  0  0  0  0  0  0  0
   -1.4273    0.7424   -2.2176 C   0  0  0  0  0  0  0  0  0  0  0  0
   -1.4473    1.5604   -3.3285 N   0  0  0  0  0  0  0  0  0  0  0  0
   -0.6397    2.0121   -3.7539 H   0  0  0  0  0  0  0  0  0  0  0  0
   -2.7451    1.6739   -3.7873 C   0  0  0  0  0  0  0  0  0  0  0  0
   -3.0533    2.2407   -4.6614 H   0  0  0  0  0  0  0  0  0  0  0  0
   -3.5518    0.9955   -3.0104 N   0  0  0  0  0  0  0  0  0  0  0  0
   -2.7554    0.4429   -2.0174 C   0  0  0  0  0  0  0  0  0  0  0  0
   -3.1614   -0.1188   -1.1838 H   0  0  0  0  0  0  0  0  0  0  0  0
    0.3912   -0.1484    0.9551 C   0  0  0  0  0  0  0  0  0  0  0  0
    1.5899    0.0230    1.1361 O   0  0  0  0  0  0  0  0  0  0  0  0
   -0.5111    0.4252    1.8332 N   0  0  0  0  0  0  0  0  0  0  0  0
   -1.4882    0.1944    1.6826 H   0  0  0  0  0  0  0  0  0  0  0  0
   -0.1151    0.9894    3.1174 C   0  0  0  0  0  0  0  0  0  0  0  0
    0.6084    1.7991    2.9752 H   0  0  0  0  0  0  0  0  0  0  0  0
   -0.9881    1.3962    3.6367 H   0  0  0  0  0  0  0  0  0  0  0  0
    0.3383    0.2188    3.7498 H   0  0  0  0  0  0  0  0  0  0  0  0
  1  2  1  0  0  0  0
  2  3  1  0  0  0  0
  2  4  1  0  0  0  0
  2  5  1  0  0  0  0
  5  6  2  0  0  0  0
  5  7  1  0  0  0  0
  7  8  1  0  0  0  0
  7  9  1  0  0  0  0
  9 10  1  0  0  0  0
  9 11  1  0  0  0  0
  9 22  1  0  0  0  0
 11 12  1  0  0  0  0
 11 13  1  0  0  0  0
 11 14  1  0  0  0  0
 14 15  1  0  0  0  0
 14 20  2  0  0  0  0
 15 16  1  0  0  0  0
 15 17  1  0  0  0  0
 17 18  1  0  0  0  0
 17 19  2  0  0  0  0
 19 20  1  0  0  0  0
 20 21  1  0  0  0  0
 22 23  2  0  0  0  0
 22 24  1  0  0  0  0
 24 25  1  0  0  0  0
 24 26  1  0  0  0  0
 26 27  1  0  0  0  0
 26 28  1  0  0  0  0
 26 29  1  0  0  0  0
M  END
$$$$

  -OEChem-03222214043D

 29 29  0     1  0  0  0  0  0999 V2000
   -2.8193   -4.3193    0.8527 H   0  0  0  0  0  0  0  0  0  0  0  0
   -2.8490   -3.4176    0.2341 C   0  0  0  0  0  0  0  0  0  0  0  0
   -3.7102   -2.8145    0.5319 H   0  0  0  0  0  0  0  0  0  0  0  0
   -2.9633   -3.7132   -0.8115 H   0  0  0  0  0  0  0  0  0  0  0  0
   -1.5708   -2.6201    0.4127 C   0  0  0  0  0  0  0  0  0  0  0  0
   -0.7308   -2.9926    1.2115 O   0  0  0  0  0  0  0  0  0  0  0  0
   -1.3734   -1.4711   -0.3279 N   0  0  0  0  0  0  0  0  0  0  0  0
   -2.0341   -1.3183   -1.0848 H   0  0  0  0  0  0  0  0  0  0  0  0
   -0.0934   -0.7371   -0.3932 C   0  0  1  0  0  0  0  0  0  0  0  0
    0.6605   -1.4555   -0.7341 H   0  0  0  0  0  0  0  0  0  0  0  0
   -0.0870    0.4468   -1.4034 C   0  0  0  0  0  0  0  0  0  0  0  0
    0.1865    1.3736   -0.8862 H   0  0  0  0  0  0  0  0  0  0  0  0
    0.7173    0.2472   -2.1188 H   0  0  0  0  0  0  0  0  0  0  0  0
   -1.3496    0.7309   -2.1967 C   0  0  0  0  0  0  0  0  0  0  0  0
   -1.3741    1.2748   -3.4634 N   0  0  0  0  0  0  0  0  0  0  0  0
   -0.5630    1.4941   -4.0389 H   0  0  0  0  0  0  0  0  0  0  0  0
   -2.6880    1.4853   -3.8360 C   0  0  0  0  0  0  0  0  0  0  0  0
   -3.0110    1.8830   -4.7940 H   0  0  0  0  0  0  0  0  0  0  0  0
   -3.4903    1.1326   -2.8617 N   0  0  0  0  0  0  0  0  0  0  0  0
   -2.6727    0.7029   -1.8260 C   0  0  0  0  0  0  0  0  0  0  0  0
   -3.0420    0.4077   -0.8490 H   0  0  0  0  0  0  0  0  0  0  0  0
    0.4039   -0.2192    0.9748 C   0  0  0  0  0  0  0  0  0  0  0  0
    1.6073   -0.1108    1.1725 O   0  0  0  0  0  0  0  0  0  0  0  0
   -0.4787    0.3997    1.8421 N   0  0  0  0  0  0  0  0  0  0  0  0
   -1.4638    0.2147    1.6827 H   0  0  0  0  0  0  0  0  0  0  0  0
   -0.0694    0.9417    3.1318 C   0  0  0  0  0  0  0  0  0  0  0  0
    0.7112    1.6986    3.0003 H   0  0  0  0  0  0  0  0  0  0  0  0
   -0.9216    1.4113    3.6323 H   0  0  0  0  0  0  0  0  0  0  0  0
    0.3171    0.1448    3.7760 H   0  0  0  0  0  0  0  0  0  0  0  0
  1  2  1  0  0  0  0
  2  3  1  0  0  0  0
  2  4  1  0  0  0  0
  2  5  1  0  0  0  0
  5  6  2  0  0  0  0
  5  7  1  0  0  0  0
  7  8  1  0  0  0  0
  7  9  1  0  0  0  0
  9 10  1  0  0  0  0
  9 11  1  0  0  0  0
  9 22  1  0  0  0  0
 11 12  1  0  0  0  0
 11 13  1  0  0  0  0
 11 14  1  0  0  0  0
 14 15  1  0  0  0  0
 14 20  2  0  0  0  0
 15 16  1  0  0  0  0
 15 17  1  0  0  0  0
 17 18  1  0  0  0  0
 17 19  2  0  0  0  0
 19 20  1  0  0  0  0
 20 21  1  0  0  0  0
 22 23  2  0  0  0  0
 22 24  1  0  0  0  0
 24 25  1  0  0  0  0
 24 26  1  0  0  0  0
 26 27  1  0  0  0  0
 26 28  1  0  0  0  0
 26 29  1  0  0  0  0
M  END
$$$$

  -OEChem-03222214043D

 29 29  0     1  0  0  0  0  0999 V2000
   -2.8955   -4.2550    0.7927 H   0  0  0  0  0  0  0  0  0  0  0  0
   -2.8963   -3.3469    0.1830 C   0  0  0  0  0  0  0  0  0  0  0  0
   -3.7410   -2.7219    0.4826 H   0  0  0  0  0  0  0  0  0  0  0  0
   -3.0136   -3.6284   -0.8663 H   0  0  0  0  0  0  0  0  0  0  0  0
   -1.5967   -2.5887    0.3754 C   0  0  0  0  0  0  0  0  0  0  0  0
   -0.7689   -2.9936    1.1712 O   0  0  0  0  0  0  0  0  0  0  0  0
   -1.3637   -1.4376   -0.3502 N   0  0  0  0  0  0  0  0  0  0  0  0
   -2.0278   -1.2375   -1.0943 H   0  0  0  0  0  0  0  0  0  0  0  0
   -0.0704   -0.7237   -0.3880 C   0  0  1  0  0  0  0  0  0  0  0  0
    0.6779   -1.4496   -0.7251 H   0  0  0  0  0  0  0  0  0  0  0  0
   -0.0473    0.4606   -1.3942 C   0  0  0  0  0  0  0  0  0  0  0  0
    0.2076    1.3889   -0.8702 H   0  0  0  0  0  0  0  0  0  0  0  0
    0.7638    0.2756   -2.1056 H   0  0  0  0  0  0  0  0  0  0  0  0
   -1.3223    0.7113   -2.1726 C   0  0  0  0  0  0  0  0  0  0  0  0
   -1.4195    0.9621   -3.5242 N   0  0  0  0  0  0  0  0  0  0  0  0
   -0.6522    0.9625   -4.1941 H   0  0  0  0  0  0  0  0  0  0  0  0
   -2.7413    1.2263   -3.8309 C   0  0  0  0  0  0  0  0  0  0  0  0
   -3.1224    1.4375   -4.8262 H   0  0  0  0  0  0  0  0  0  0  0  0
   -3.4715    1.1811   -2.7426 N   0  0  0  0  0  0  0  0  0  0  0  0
   -2.5968    0.9047   -1.7005 C   0  0  0  0  0  0  0  0  0  0  0  0
   -2.8854    0.8520   -0.6549 H   0  0  0  0  0  0  0  0  0  0  0  0
    0.4157   -0.2230    0.9897 C   0  0  0  0  0  0  0  0  0  0  0  0
    1.6177   -0.1344    1.2045 O   0  0  0  0  0  0  0  0  0  0  0  0
   -0.4694    0.4048    1.8481 N   0  0  0  0  0  0  0  0  0  0  0  0
   -1.4547    0.2290    1.6791 H   0  0  0  0  0  0  0  0  0  0  0  0
   -0.0669    0.9352    3.1447 C   0  0  0  0  0  0  0  0  0  0  0  0
    0.7196    1.6876    3.0246 H   0  0  0  0  0  0  0  0  0  0  0  0
   -0.9198    1.4067    3.6421 H   0  0  0  0  0  0  0  0  0  0  0  0
    0.3097    0.1312    3.7859 H   0  0  0  0  0  0  0  0  0  0  0  0
  1  2  1  0  0  0  0
  2  3  1  0  0  0  0
  2  4  1  0  0  0  0
  2  5  1  0  0  0  0
  5  6  2  0  0  0  0
  5  7  1  0  0  0  0
  7  8  1  0  0  0  0
  7  9  1  0  0  0  0
  9 10  1  0  0  0  0
  9 11  1  0  0  0  0
  9 22  1  0  0  0  0
 11 12  1  0  0  0  0
 11 13  1  0  0  0  0
 11 14  1  0  0  0  0
 14 15  1  0  0  0  0
 14 20  2  0  0  0  0
 15 16  1  0  0  0  0
 15 17  1  0  0  0  0
 17 18  1  0  0  0  0
 17 19  2  0  0  0  0
 19 20  1  0  0  0  0
 20 21  1  0  0  0  0
 22 23  2  0  0  0  0
 22 24  1  0  0  0  0
 24 25  1  0  0  0  0
 24 26  1  0  0  0  0
 26 27  1  0  0  0  0
 26 28  1  0  0  0  0
 26 29  1  0  0  0  0
M  END
$$$$

  -OEChem-03222214043D

 29 29  0     1  0  0  0  0  0999 V2000
   -2.9488   -4.1962    0.7594 H   0  0  0  0  0  0  0  0  0  0  0  0
   -2.9302   -3.2826    0.1583 C   0  0  0  0  0  0  0  0  0  0  0  0
   -3.7525   -2.6362    0.4742 H   0  0  0  0  0  0  0  0  0  0  0  0
   -3.0685   -3.5504   -0.8919 H   0  0  0  0  0  0  0  0  0  0  0  0
   -1.6067   -2.5646    0.3417 C   0  0  0  0  0  0  0  0  0  0  0  0
   -0.7792   -3.0036    1.1196 O   0  0  0  0  0  0  0  0  0  0  0  0
   -1.3502   -1.4104   -0.3703 N   0  0  0  0  0  0  0  0  0  0  0  0
   -2.0293   -1.1579   -1.0849 H   0  0  0  0  0  0  0  0  0  0  0  0
   -0.0494   -0.7085   -0.3890 C   0  0  1  0  0  0  0  0  0  0  0  0
    0.6965   -1.4364   -0.7271 H   0  0  0  0  0  0  0  0  0  0  0  0
   -0.0194    0.4791   -1.3886 C   0  0  0  0  0  0  0  0  0  0  0  0
    0.2214    1.4062   -0.8558 H   0  0  0  0  0  0  0  0  0  0  0  0
    0.7940    0.3112   -2.1015 H   0  0  0  0  0  0  0  0  0  0  0  0
   -1.3053    0.7039   -2.1518 C   0  0  0  0  0  0  0  0  0  0  0  0
   -1.4829    0.6664   -3.5172 N   0  0  0  0  0  0  0  0  0  0  0  0
   -0.7706    0.4528   -4.2133 H   0  0  0  0  0  0  0  0  0  0  0  0
   -2.7986    0.9859   -3.7964 C   0  0  0  0  0  0  0  0  0  0  0  0
   -3.2365    1.0221   -4.7901 H   0  0  0  0  0  0  0  0  0  0  0  0
   -3.4454    1.2339   -2.6825 N   0  0  0  0  0  0  0  0  0  0  0  0
   -2.5201    1.1017   -1.6552 C   0  0  0  0  0  0  0  0  0  0  0  0
   -2.7325    1.2786   -0.6050 H   0  0  0  0  0  0  0  0  0  0  0  0
    0.4273   -0.2232    0.9970 C   0  0  0  0  0  0  0  0  0  0  0  0
    1.6275   -0.1479    1.2261 O   0  0  0  0  0  0  0  0  0  0  0  0
   -0.4617    0.4066    1.8500 N   0  0  0  0  0  0  0  0  0  0  0  0
   -1.4465    0.2430    1.6666 H   0  0  0  0  0  0  0  0  0  0  0  0
   -0.0711    0.9215    3.1566 C   0  0  0  0  0  0  0  0  0  0  0  0
    0.7219    1.6698    3.0540 H   0  0  0  0  0  0  0  0  0  0  0  0
   -0.9269    1.3939    3.6482 H   0  0  0  0  0  0  0  0  0  0  0  0
    0.2920    0.1088    3.7946 H   0  0  0  0  0  0  0  0  0  0  0  0
  1  2  1  0  0  0  0
  2  3  1  0  0  0  0
  2  4  1  0  0  0  0
  2  5  1  0  0  0  0
  5  6  2  0  0  0  0
  5  7  1  0  0  0  0
  7  8  1  0  0  0  0
  7  9  1  0  0  0  0
  9 10  1  0  0  0  0
  9 11  1  0  0  0  0
  9 22  1  0  0  0  0
 11 12  1  0  0  0  0
 11 13  1  0  0  0  0
 11 14  1  0  0  0  0
 14 15  1  0  0  0  0
 14 20  2  0  0  0  0
 15 16  1  0  0  0  0
 15 17  1  0  0  0  0
 17 18  1  0  0  0  0
 17 19  2  0  0  0  0
 19 20  1  0  0  0  0
 20 21  1  0  0  0  0
 22 23  2  0  0  0  0
 22 24  1  0  0  0  0
 24 25  1  0  0  0  0
 24 26  1  0  0  0  0
 26 27  1  0  0  0  0
 26 28  1  0  0  0  0
 26 29  1  0  0  0  0
M  END
$$$$

  -OEChem-03222214043D

 29 29  0     1  0  0  0  0  0999 V2000
   -2.9862   -4.1531    0.7402 H   0  0  0  0  0  0  0  0  0  0  0  0
   -2.9539   -3.2358    0.1456 C   0  0  0  0  0  0  0  0  0  0  0  0
   -3.7572   -2.5730    0.4760 H   0  0  0  0  0  0  0  0  0  0  0  0
   -3.1113   -3.4924   -0.9046 H   0  0  0  0  0  0  0  0  0  0  0  0
   -1.6120   -2.5496    0.3174 C   0  0  0  0  0  0  0  0  0  0  0  0
   -0.7821   -3.0164    1.0763 O   0  0  0  0  0  0  0  0  0  0  0  0
   -1.3410   -1.3918   -0.3824 N   0  0  0  0  0  0  0  0  0  0  0  0
   -2.0352   -1.0938   -1.0645 H   0  0  0  0  0  0  0  0  0  0  0  0
   -0.0371   -0.6955   -0.3883 C   0  0  1  0  0  0  0  0  0  0  0  0
    0.7084   -1.4226   -0.7287 H   0  0  0  0  0  0  0  0  0  0  0  0
   -0.0072    0.4954   -1.3825 C   0  0  0  0  0  0  0  0  0  0  0  0
    0.2208    1.4207   -0.8412 H   0  0  0  0  0  0  0  0  0  0  0  0
    0.8085    0.3432   -2.0966 H   0  0  0  0  0  0  0  0  0  0  0  0
   -1.3005    0.7022   -2.1360 C   0  0  0  0  0  0  0  0  0  0  0  0
   -1.5632    0.3906   -3.4516 N   0  0  0  0  0  0  0  0  0  0  0  0
   -0.9130   -0.0270   -4.1155 H   0  0  0  0  0  0  0  0  0  0  0  0
   -2.8590    0.7763   -3.7395 C   0  0  0  0  0  0  0  0  0  0  0  0
   -3.3504    0.6510   -4.7003 H   0  0  0  0  0  0  0  0  0  0  0  0
   -3.4134    1.3110   -2.6776 N   0  0  0  0  0  0  0  0  0  0  0  0
   -2.4450    1.3033   -1.6811 C   0  0  0  0  0  0  0  0  0  0  0  0
   -2.5815    1.7023   -0.6802 H   0  0  0  0  0  0  0  0  0  0  0  0
    0.4351   -0.2214    1.0029 C   0  0  0  0  0  0  0  0  0  0  0  0
    1.6344   -0.1533    1.2383 O   0  0  0  0  0  0  0  0  0  0  0  0
   -0.4547    0.4069    1.8560 N   0  0  0  0  0  0  0  0  0  0  0  0
   -1.4396    0.2507    1.6663 H   0  0  0  0  0  0  0  0  0  0  0  0
   -0.0668    0.9122    3.1671 C   0  0  0  0  0  0  0  0  0  0  0  0
    0.7280    1.6595    3.0717 H   0  0  0  0  0  0  0  0  0  0  0  0
   -0.9230    1.3830    3.6596 H   0  0  0  0  0  0  0  0  0  0  0  0
    0.2934    0.0944    3.8002 H   0  0  0  0  0  0  0  0  0  0  0  0
  1  2  1  0  0  0  0
  2  3  1  0  0  0  0
  2  4  1  0  0  0  0
  2  5  1  0  0  0  0
  5  6  2  0  0  0  0
  5  7  1  0  0  0  0
  7  8  1  0  0  0  0
  7  9  1  0  0  0  0
  9 10  1  0  0  0  0
  9 11  1  0  0  0  0
  9 22  1  0  0  0  0
 11 12  1  0  0  0  0
 11 13  1  0  0  0  0
 11 14  1  0  0  0  0
 14 15  1  0  0  0  0
 14 20  2  0  0  0  0
 15 16  1  0  0  0  0
 15 17  1  0  0  0  0
 17 18  1  0  0  0  0
 17 19  2  0  0  0  0
 19 20  1  0  0  0  0
 20 21  1  0  0  0  0
 22 23  2  0  0  0  0
 22 24  1  0  0  0  0
 24 25  1  0  0  0  0
 24 26  1  0  0  0  0
 26 27  1  0  0  0  0
 26 28  1  0  0  0  0
 26 29  1  0  0  0  0
M  END
$$$$

  -OEChem-03222214043D

 29 29  0     1  0  0  0  0  0999 V2000
   -3.0023   -4.1189    0.7528 H   0  0  0  0  0  0  0  0  0  0  0  0
   -2.9647   -3.2007    0.1597 C   0  0  0  0  0  0  0  0  0  0  0  0
   -3.7454   -2.5220    0.5115 H   0  0  0  0  0  0  0  0  0  0  0  0
   -3.1526   -3.4506   -0.8871 H   0  0  0  0  0  0  0  0  0  0  0  0
   -1.6043   -2.5444    0.3005 C   0  0  0  0  0  0  0  0  0  0  0  0
   -0.7600   -3.0412    1.0236 O   0  0  0  0  0  0  0  0  0  0  0  0
   -1.3296   -1.3831   -0.3917 N   0  0  0  0  0  0  0  0  0  0  0  0
   -2.0492   -1.0362   -1.0226 H   0  0  0  0  0  0  0  0  0  0  0  0
   -0.0262   -0.6867   -0.3930 C   0  0  1  0  0  0  0  0  0  0  0  0
    0.7206   -1.4105   -0.7370 H   0  0  0  0  0  0  0  0  0  0  0  0
   -0.0002    0.5089   -1.3809 C   0  0  0  0  0  0  0  0  0  0  0  0
    0.2254    1.4317   -0.8341 H   0  0  0  0  0  0  0  0  0  0  0  0
    0.8129    0.3655   -2.0998 H   0  0  0  0  0  0  0  0  0  0  0  0
   -1.2990    0.7072   -2.1265 C   0  0  0  0  0  0  0  0  0  0  0  0
   -1.6644    0.1523   -3.3332 N   0  0  0  0  0  0  0  0  0  0  0  0
   -1.0948   -0.4622   -3.9129 H   0  0  0  0  0  0  0  0  0  0  0  0
   -2.9267    0.6124   -3.6584 C   0  0  0  0  0  0  0  0  0  0  0  0
   -3.4795    0.3453   -4.5549 H   0  0  0  0  0  0  0  0  0  0  0  0
   -3.3655    1.4156   -2.7189 N   0  0  0  0  0  0  0  0  0  0  0  0
   -2.3516    1.5091   -1.7725 C   0  0  0  0  0  0  0  0  0  0  0  0
   -2.3949    2.1183   -0.8745 H   0  0  0  0  0  0  0  0  0  0  0  0
    0.4404   -0.2214    1.0024 C   0  0  0  0  0  0  0  0  0  0  0  0
    1.6381   -0.1589    1.2467 O   0  0  0  0  0  0  0  0  0  0  0  0
   -0.4543    0.4006    1.8550 N   0  0  0  0  0  0  0  0  0  0  0  0
   -1.4386    0.2585    1.6517 H   0  0  0  0  0  0  0  0  0  0  0  0
   -0.0760    0.8960    3.1726 C   0  0  0  0  0  0  0  0  0  0  0  0
    0.7175    1.6461    3.0881 H   0  0  0  0  0  0  0  0  0  0  0  0
   -0.9363    1.3603    3.6639 H   0  0  0  0  0  0  0  0  0  0  0  0
    0.2823    0.0738    3.8009 H   0  0  0  0  0  0  0  0  0  0  0  0
  1  2  1  0  0  0  0
  2  3  1  0  0  0  0
  2  4  1  0  0  0  0
  2  5  1  0  0  0  0
  5  6  2  0  0  0  0
  5  7  1  0  0  0  0
  7  8  1  0  0  0  0
  7  9  1  0  0  0  0
  9 10  1  0  0  0  0
  9 11  1  0  0  0  0
  9 22  1  0  0  0  0
 11 12  1  0  0  0  0
 11 13  1  0  0  0  0
 11 14  1  0  0  0  0
 14 15  1  0  0  0  0
 14 20  2  0  0  0  0
 15 16  1  0  0  0  0
 15 17  1  0  0  0  0
 17 18  1  0  0  0  0
 17 19  2  0  0  0  0
 19 20  1  0  0  0  0
 20 21  1  0  0  0  0
 22 23  2  0  0  0  0
 22 24  1  0  0  0  0
 24 25  1  0  0  0  0
 24 26  1  0  0  0  0
 26 27  1  0  0  0  0
 26 28  1  0  0  0  0
 26 29  1  0  0  0  0
M  END
$$$$

  -OEChem-03222214043D

 29 29  0     1  0  0  0  0  0999 V2000
   -3.0002   -4.1045    0.7910 H   0  0  0  0  0  0  0  0  0  0  0  0
   -2.9670   -3.1885    0.1938 C   0  0  0  0  0  0  0  0  0  0  0  0
   -3.7253   -2.4966    0.5682 H   0  0  0  0  0  0  0  0  0  0  0  0
   -3.1918   -3.4382   -0.8458 H   0  0  0  0  0  0  0  0  0  0  0  0
   -1.5927   -2.5538    0.2905 C   0  0  0  0  0  0  0  0  0  0  0  0
   -0.7295   -3.0718    0.9753 O   0  0  0  0  0  0  0  0  0  0  0  0
   -1.3254   -1.3874   -0.3962 N   0  0  0  0  0  0  0  0  0  0  0  0
   -2.0680   -1.0033   -0.9769 H   0  0  0  0  0  0  0  0  0  0  0  0
   -0.0260   -0.6845   -0.3946 C   0  0  1  0  0  0  0  0  0  0  0  0
    0.7250   -1.4022   -0.7429 H   0  0  0  0  0  0  0  0  0  0  0  0
   -0.0067    0.5164   -1.3757 C   0  0  0  0  0  0  0  0  0  0  0  0
    0.2234    1.4364   -0.8262 H   0  0  0  0  0  0  0  0  0  0  0  0
    0.8040    0.3728   -2.0971 H   0  0  0  0  0  0  0  0  0  0  0  0
   -1.3026    0.7213   -2.1264 C   0  0  0  0  0  0  0  0  0  0  0  0
   -1.7850   -0.0250   -3.1805 N   0  0  0  0  0  0  0  0  0  0  0  0
   -1.3089   -0.8014   -3.6377 H   0  0  0  0  0  0  0  0  0  0  0  0
   -2.9957    0.5125   -3.5758 C   0  0  0  0  0  0  0  0  0  0  0  0
   -3.6100    0.1412   -4.3914 H   0  0  0  0  0  0  0  0  0  0  0  0
   -3.2991    1.5364   -2.8150 N   0  0  0  0  0  0  0  0  0  0  0  0
   -2.2448    1.6944   -1.9222 C   0  0  0  0  0  0  0  0  0  0  0  0
   -2.1844    2.4708   -1.1651 H   0  0  0  0  0  0  0  0  0  0  0  0
    0.4388   -0.2243    1.0033 C   0  0  0  0  0  0  0  0  0  0  0  0
    1.6360   -0.1624    1.2496 O   0  0  0  0  0  0  0  0  0  0  0  0
   -0.4573    0.3888    1.8610 N   0  0  0  0  0  0  0  0  0  0  0  0
   -1.4418    0.2625    1.6494 H   0  0  0  0  0  0  0  0  0  0  0  0
   -0.0798    0.8856    3.1783 C   0  0  0  0  0  0  0  0  0  0  0  0
    0.7109    1.6383    3.0929 H   0  0  0  0  0  0  0  0  0  0  0  0
   -0.9415    1.3470    3.6699 H   0  0  0  0  0  0  0  0  0  0  0  0
    0.2815    0.0648    3.8068 H   0  0  0  0  0  0  0  0  0  0  0  0
  1  2  1  0  0  0  0
  2  3  1  0  0  0  0
  2  4  1  0  0  0  0
  2  5  1  0  0  0  0
  5  6  2  0  0  0  0
  5  7  1  0  0  0  0
  7  8  1  0  0  0  0
  7  9  1  0  0  0  0
  9 10  1  0  0  0  0
  9 11  1  0  0  0  0
  9 22  1  0  0  0  0
 11 12  1  0  0  0  0
 11 13  1  0  0  0  0
 11 14  1  0  0  0  0
 14 15  1  0  0  0  0
 14 20  2  0  0  0  0
 15 16  1  0  0  0  0
 15 17  1  0  0  0  0
 17 18  1  0  0  0  0
 17 19  2  0  0  0  0
 19 20  1  0  0  0  0
 20 21  1  0  0  0  0
 22 23  2  0  0  0  0
 22 24  1  0  0  0  0
 24 25  1  0  0  0  0
 24 26  1  0  0  0  0
 26 27  1  0  0  0  0
 26 28  1  0  0  0  0
 26 29  1  0  0  0  0
M  END
$$$$

  -OEChem-03222214043D

 29 29  0     1  0  0  0  0  0999 V2000
   -2.9850   -4.0985    0.8417 H   0  0  0  0  0  0  0  0  0  0  0  0
   -2.9586   -3.1841    0.2420 C   0  0  0  0  0  0  0  0  0  0  0  0
   -3.6928   -2.4803    0.6411 H   0  0  0  0  0  0  0  0  0  0  0  0
   -3.2226   -3.4317   -0.7887 H   0  0  0  0  0  0  0  0  0  0  0  0
   -1.5722   -2.5705    0.2895 C   0  0  0  0  0  0  0  0  0  0  0  0
   -0.6894   -3.1082    0.9325 O   0  0  0  0  0  0  0  0  0  0  0  0
   -1.3163   -1.4016   -0.3974 N   0  0  0  0  0  0  0  0  0  0  0  0
   -2.0857   -0.9792   -0.9127 H   0  0  0  0  0  0  0  0  0  0  0  0
   -0.0242   -0.6878   -0.3973 C   0  0  1  0  0  0  0  0  0  0  0  0
    0.7332   -1.3993   -0.7449 H   0  0  0  0  0  0  0  0  0  0  0  0
   -0.0104    0.5158   -1.3769 C   0  0  0  0  0  0  0  0  0  0  0  0
    0.2275    1.4348   -0.8290 H   0  0  0  0  0  0  0  0  0  0  0  0
    0.8003    0.3648   -2.0971 H   0  0  0  0  0  0  0  0  0  0  0  0
   -1.2979    0.7347   -2.1432 C   0  0  0  0  0  0  0  0  0  0  0  0
   -1.9262   -0.1345   -3.0121 N   0  0  0  0  0  0  0  0  0  0  0  0
   -1.5623   -1.0311   -3.3323 H   0  0  0  0  0  0  0  0  0  0  0  0
   -3.0792    0.4697   -3.4773 C   0  0  0  0  0  0  0  0  0  0  0  0
   -3.7721    0.0324   -4.1907 H   0  0  0  0  0  0  0  0  0  0  0  0
   -3.2174    1.6505   -2.9257 N   0  0  0  0  0  0  0  0  0  0  0  0
   -2.1101    1.8376   -2.1052 C   0  0  0  0  0  0  0  0  0  0  0  0
   -1.9239    2.7271   -1.5104 H   0  0  0  0  0  0  0  0  0  0  0  0
    0.4345   -0.2256    1.0021 C   0  0  0  0  0  0  0  0  0  0  0  0
    1.6301   -0.1626    1.2553 O   0  0  0  0  0  0  0  0  0  0  0  0
   -0.4676    0.3783    1.8604 N   0  0  0  0  0  0  0  0  0  0  0  0
   -1.4512    0.2682    1.6361 H   0  0  0  0  0  0  0  0  0  0  0  0
   -0.0978    0.8781    3.1788 C   0  0  0  0  0  0  0  0  0  0  0  0
    0.6818    1.6427    3.0953 H   0  0  0  0  0  0  0  0  0  0  0  0
   -0.9663    1.3256    3.6715 H   0  0  0  0  0  0  0  0  0  0  0  0
    0.2755    0.0614    3.8057 H   0  0  0  0  0  0  0  0  0  0  0  0
  1  2  1  0  0  0  0
  2  3  1  0  0  0  0
  2  4  1  0  0  0  0
  2  5  1  0  0  0  0
  5  6  2  0  0  0  0
  5  7  1  0  0  0  0
  7  8  1  0  0  0  0
  7  9  1  0  0  0  0
  9 10  1  0  0  0  0
  9 11  1  0  0  0  0
  9 22  1  0  0  0  0
 11 12  1  0  0  0  0
 11 13  1  0  0  0  0
 11 14  1  0  0  0  0
 14 15  1  0  0  0  0
 14 20  2  0  0  0  0
 15 16  1  0  0  0  0
 15 17  1  0  0  0  0
 17 18  1  0  0  0  0
 17 19  2  0  0  0  0
 19 20  1  0  0  0  0
 20 21  1  0  0  0  0
 22 23  2  0  0  0  0
 22 24  1  0  0  0  0
 24 25  1  0  0  0  0
 24 26  1  0  0  0  0
 26 27  1  0  0  0  0
 26 28  1  0  0  0  0
 26 29  1  0  0  0  0
M  END
$$$$

  -OEChem-03222214043D

 29 29  0     1  0  0  0  0  0999 V2000
   -2.9256   -4.1245    0.9400 H   0  0  0  0  0  0  0  0  0  0  0  0
   -2.9278   -3.2171    0.3290 C   0  0  0  0  0  0  0  0  0  0  0  0
   -3.6383   -2.5067    0.7588 H   0  0  0  0  0  0  0  0  0  0  0  0
   -3.2468   -3.4767   -0.6831 H   0  0  0  0  0  0  0  0  0  0  0  0
   -1.5380   -2.6094    0.2966 C   0  0  0  0  0  0  0  0  0  0  0  0
   -0.6222   -3.1560    0.8833 O   0  0  0  0  0  0  0  0  0  0  0  0
   -1.3158   -1.4345   -0.3932 N   0  0  0  0  0  0  0  0  0  0  0  0
   -2.1202   -0.9789   -0.8178 H   0  0  0  0  0  0  0  0  0  0  0  0
   -0.0380   -0.6965   -0.3990 C   0  0  1  0  0  0  0  0  0  0  0  0
    0.7289   -1.3981   -0.7462 H   0  0  0  0  0  0  0  0  0  0  0  0
   -0.0299    0.5079   -1.3795 C   0  0  0  0  0  0  0  0  0  0  0  0
    0.2110    1.4262   -0.8315 H   0  0  0  0  0  0  0  0  0  0  0  0
    0.7870    0.3509   -2.0912 H   0  0  0  0  0  0  0  0  0  0  0  0
   -1.2985    0.7481   -2.1756 C   0  0  0  0  0  0  0  0  0  0  0  0
   -2.0906   -0.1574   -2.8542 N   0  0  0  0  0  0  0  0  0  0  0  0
   -1.8598   -1.1334   -3.0358 H   0  0  0  0  0  0  0  0  0  0  0  0
   -3.1610    0.5211   -3.4063 C   0  0  0  0  0  0  0  0  0  0  0  0
   -3.9374    0.0744   -4.0212 H   0  0  0  0  0  0  0  0  0  0  0  0
   -3.1033    1.7878   -3.0782 N   0  0  0  0  0  0  0  0  0  0  0  0
   -1.9482    1.9465   -2.3205 C   0  0  0  0  0  0  0  0  0  0  0  0
   -1.6147    2.8881   -1.8940 H   0  0  0  0  0  0  0  0  0  0  0  0
    0.4183   -0.2278    0.9992 C   0  0  0  0  0  0  0  0  0  0  0  0
    1.6134   -0.1460    1.2485 O   0  0  0  0  0  0  0  0  0  0  0  0
   -0.4895    0.3577    1.8640 N   0  0  0  0  0  0  0  0  0  0  0  0
   -1.4725    0.2482    1.6382 H   0  0  0  0  0  0  0  0  0  0  0  0
   -0.1197    0.8766    3.1749 C   0  0  0  0  0  0  0  0  0  0  0  0
    0.6552    1.6447    3.0797 H   0  0  0  0  0  0  0  0  0  0  0  0
   -0.9897    1.3253    3.6637 H   0  0  0  0  0  0  0  0  0  0  0  0
    0.2601    0.0702    3.8111 H   0  0  0  0  0  0  0  0  0  0  0  0
  1  2  1  0  0  0  0
  2  3  1  0  0  0  0
  2  4  1  0  0  0  0
  2  5  1  0  0  0  0
  5  6  2  0  0  0  0
  5  7  1  0  0  0  0
  7  8  1  0  0  0  0
  7  9  1  0  0  0  0
  9 10  1  0  0  0  0
  9 11  1  0  0  0  0
  9 22  1  0  0  0  0
 11 12  1  0  0  0  0
 11 13  1  0  0  0  0
 11 14  1  0  0  0  0
 14 15  1  0  0  0  0
 14 20  2  0  0  0  0
 15 16  1  0  0  0  0
 15 17  1  0  0  0  0
 17 18  1  0  0  0  0
 17 19  2  0  0  0  0
 19 20  1  0  0  0  0
 20 21  1  0  0  0  0
 22 23  2  0  0  0  0
 22 24  1  0  0  0  0
 24 25  1  0  0  0  0
 24 26  1  0  0  0  0
 26 27  1  0  0  0  0
 26 28  1  0  0  0  0
 26 29  1  0  0  0  0
M  END
$$$$

  -OEChem-03222214043D

 29 29  0     1  0  0  0  0  0999 V2000
   -2.8562   -4.1564    1.0254 H   0  0  0  0  0  0  0  0  0  0  0  0
   -2.8900   -3.2487    0.4158 C   0  0  0  0  0  0  0  0  0  0  0  0
   -3.5735   -2.5370    0.8848 H   0  0  0  0  0  0  0  0  0  0  0  0
   -3.2655   -3.5065   -0.5772 H   0  0  0  0  0  0  0  0  0  0  0  0
   -1.5030   -2.6439    0.3058 C   0  0  0  0  0  0  0  0  0  0  0  0
   -0.5553   -3.1988    0.8301 O   0  0  0  0  0  0  0  0  0  0  0  0
   -1.3207   -1.4626   -0.3858 N   0  0  0  0  0  0  0  0  0  0  0  0
   -2.1560   -0.9783   -0.7035 H   0  0  0  0  0  0  0  0  0  0  0  0
   -0.0579   -0.7005   -0.4002 C   0  0  1  0  0  0  0  0  0  0  0  0
    0.7169   -1.3932   -0.7484 H   0  0  0  0  0  0  0  0  0  0  0  0
   -0.0562    0.5007   -1.3864 C   0  0  0  0  0  0  0  0  0  0  0  0
    0.1832    1.4201   -0.8397 H   0  0  0  0  0  0  0  0  0  0  0  0
    0.7688    0.3393   -2.0880 H   0  0  0  0  0  0  0  0  0  0  0  0
   -1.3075    0.7553   -2.2102 C   0  0  0  0  0  0  0  0  0  0  0  0
   -2.2650   -0.1159   -2.6947 N   0  0  0  0  0  0  0  0  0  0  0  0
   -2.1795   -1.1306   -2.7301 H   0  0  0  0  0  0  0  0  0  0  0  0
   -3.2437    0.6151   -3.3417 C   0  0  0  0  0  0  0  0  0  0  0  0
   -4.1054    0.1949   -3.8529 H   0  0  0  0  0  0  0  0  0  0  0  0
   -2.9783    1.8937   -3.2519 N   0  0  0  0  0  0  0  0  0  0  0  0
   -1.7799    1.9963   -2.5548 C   0  0  0  0  0  0  0  0  0  0  0  0
   -1.2912    2.9341   -2.3078 H   0  0  0  0  0  0  0  0  0  0  0  0
    0.4017   -0.2273    0.9960 C   0  0  0  0  0  0  0  0  0  0  0  0
    1.5968   -0.1332    1.2396 O   0  0  0  0  0  0  0  0  0  0  0  0
   -0.5071    0.3387    1.8732 N   0  0  0  0  0  0  0  0  0  0  0  0
   -1.4907    0.2454    1.6442 H   0  0  0  0  0  0  0  0  0  0  0  0
   -0.1319    0.8682    3.1787 C   0  0  0  0  0  0  0  0  0  0  0  0
    0.5898    1.6847    3.0689 H   0  0  0  0  0  0  0  0  0  0  0  0
   -1.0137    1.2552    3.6980 H   0  0  0  0  0  0  0  0  0  0  0  0
    0.3166    0.0819    3.7951 H   0  0  0  0  0  0  0  0  0  0  0  0
  1  2  1  0  0  0  0
  2  3  1  0  0  0  0
  2  4  1  0  0  0  0
  2  5  1  0  0  0  0
  5  6  2  0  0  0  0
  5  7  1  0  0  0  0
  7  8  1  0  0  0  0
  7  9  1  0  0  0  0
  9 10  1  0  0  0  0
  9 11  1  0  0  0  0
  9 22  1  0  0  0  0
 11 12  1  0  0  0  0
 11 13  1  0  0  0  0
 11 14  1  0  0  0  0
 14 15  1  0  0  0  0
 14 20  2  0  0  0  0
 15 16  1  0  0  0  0
 15 17  1  0  0  0  0
 17 18  1  0  0  0  0
 17 19  2  0  0  0  0
 19 20  1  0  0  0  0
 20 21  1  0  0  0  0
 22 23  2  0  0  0  0
 22 24  1  0  0  0  0
 24 25  1  0  0  0  0
 24 26  1  0  0  0  0
 26 27  1  0  0  0  0
 26 28  1  0  0  0  0
 26 29  1  0  0  0  0
M  END
$$$$

  -OEChem-03222214043D

 29 29  0     1  0  0  0  0  0999 V2000
   -2.7772   -4.1867    1.1062 H   0  0  0  0  0  0  0  0  0  0  0  0
   -2.8478   -3.2806    0.4972 C   0  0  0  0  0  0  0  0  0  0  0  0
   -3.5069   -2.5702    1.0018 H   0  0  0  0  0  0  0  0  0  0  0  0
   -3.2765   -3.5427   -0.4730 H   0  0  0  0  0  0  0  0  0  0  0  0
   -1.4706   -2.6727    0.3094 C   0  0  0  0  0  0  0  0  0  0  0  0
   -0.4936   -3.2311    0.7726 O   0  0  0  0  0  0  0  0  0  0  0  0
   -1.3322   -1.4832   -0.3798 N   0  0  0  0  0  0  0  0  0  0  0  0
   -2.1887   -0.9802   -0.5900 H   0  0  0  0  0  0  0  0  0  0  0  0
   -0.0831   -0.6992   -0.4048 C   0  0  1  0  0  0  0  0  0  0  0  0
    0.6966   -1.3828   -0.7604 H   0  0  0  0  0  0  0  0  0  0  0  0
   -0.0907    0.5012   -1.3927 C   0  0  0  0  0  0  0  0  0  0  0  0
    0.1399    1.4206   -0.8420 H   0  0  0  0  0  0  0  0  0  0  0  0
    0.7409    0.3455   -2.0879 H   0  0  0  0  0  0  0  0  0  0  0  0
   -1.3308    0.7664   -2.2324 C   0  0  0  0  0  0  0  0  0  0  0  0
   -2.4378   -0.0072   -2.5285 N   0  0  0  0  0  0  0  0  0  0  0  0
   -2.4962   -1.0177   -2.4200 H   0  0  0  0  0  0  0  0  0  0  0  0
   -3.3193    0.7470   -3.2806 C   0  0  0  0  0  0  0  0  0  0  0  0
   -4.2580    0.3874   -3.6927 H   0  0  0  0  0  0  0  0  0  0  0  0
   -2.8530    1.9597   -3.4345 N   0  0  0  0  0  0  0  0  0  0  0  0
   -1.6227    1.9867   -2.7887 C   0  0  0  0  0  0  0  0  0  0  0  0
   -0.9840    2.8628   -2.7239 H   0  0  0  0  0  0  0  0  0  0  0  0
    0.3879   -0.2284    0.9886 C   0  0  0  0  0  0  0  0  0  0  0  0
    1.5843   -0.1218    1.2198 O   0  0  0  0  0  0  0  0  0  0  0  0
   -0.5169    0.3158    1.8838 N   0  0  0  0  0  0  0  0  0  0  0  0
   -1.5022    0.2317    1.6594 H   0  0  0  0  0  0  0  0  0  0  0  0
   -0.1297    0.8531    3.1826 C   0  0  0  0  0  0  0  0  0  0  0  0
    0.5678    1.6884    3.0598 H   0  0  0  0  0  0  0  0  0  0  0  0
   -1.0107    1.2156    3.7207 H   0  0  0  0  0  0  0  0  0  0  0  0
    0.3520    0.0778    3.7879 H   0  0  0  0  0  0  0  0  0  0  0  0
  1  2  1  0  0  0  0
  2  3  1  0  0  0  0
  2  4  1  0  0  0  0
  2  5  1  0  0  0  0
  5  6  2  0  0  0  0
  5  7  1  0  0  0  0
  7  8  1  0  0  0  0
  7  9  1  0  0  0  0
  9 10  1  0  0  0  0
  9 11  1  0  0  0  0
  9 22  1  0  0  0  0
 11 12  1  0  0  0  0
 11 13  1  0  0  0  0
 11 14  1  0  0  0  0
 14 15  1  0  0  0  0
 14 20  2  0  0  0  0
 15 16  1  0  0  0  0
 15 17  1  0  0  0  0
 17 18  1  0  0  0  0
 17 19  2  0  0  0  0
 19 20  1  0  0  0  0
 20 21  1  0  0  0  0
 22 23  2  0  0  0  0
 22 24  1  0  0  0  0
 24 25  1  0  0  0  0
 24 26  1  0  0  0  0
 26 27  1  0  0  0  0
 26 28  1  0  0  0  0
 26 29  1  0  0  0  0
M  END
$$$$

  -OEChem-03222214043D

 29 29  0     1  0  0  0  0  0999 V2000
   -2.7166   -4.2152    1.1454 H   0  0  0  0  0  0  0  0  0  0  0  0
   -2.8179   -3.3034    0.5495 C   0  0  0  0  0  0  0  0  0  0  0  0
   -3.4587   -2.6025    1.0892 H   0  0  0  0  0  0  0  0  0  0  0  0
   -3.2858   -3.5587   -0.4041 H   0  0  0  0  0  0  0  0  0  0  0  0
   -1.4531   -2.6860    0.3092 C   0  0  0  0  0  0  0  0  0  0  0  0
   -0.4554   -3.2450    0.7250 O   0  0  0  0  0  0  0  0  0  0  0  0
   -1.3514   -1.4867   -0.3702 N   0  0  0  0  0  0  0  0  0  0  0  0
   -2.2176   -0.9762   -0.4936 H   0  0  0  0  0  0  0  0  0  0  0  0
   -0.1116   -0.6890   -0.4081 C   0  0  1  0  0  0  0  0  0  0  0  0
    0.6660   -1.3673   -0.7790 H   0  0  0  0  0  0  0  0  0  0  0  0
   -0.1299    0.5107   -1.3957 C   0  0  0  0  0  0  0  0  0  0  0  0
    0.0858    1.4286   -0.8368 H   0  0  0  0  0  0  0  0  0  0  0  0
    0.7091    0.3702   -2.0858 H   0  0  0  0  0  0  0  0  0  0  0  0
   -1.3665    0.7836   -2.2390 C   0  0  0  0  0  0  0  0  0  0  0  0
   -2.5973    0.1627   -2.3572 N   0  0  0  0  0  0  0  0  0  0  0  0
   -2.8075   -0.7916   -2.0785 H   0  0  0  0  0  0  0  0  0  0  0  0
   -3.3830    0.8970   -3.2265 C   0  0  0  0  0  0  0  0  0  0  0  0
   -4.3868    0.6272   -3.5426 H   0  0  0  0  0  0  0  0  0  0  0  0
   -2.7368    1.9602   -3.6289 N   0  0  0  0  0  0  0  0  0  0  0  0
   -1.4878    1.9035   -3.0236 C   0  0  0  0  0  0  0  0  0  0  0  0
   -0.7142    2.6560   -3.1465 H   0  0  0  0  0  0  0  0  0  0  0  0
    0.3836   -0.2289    0.9809 C   0  0  0  0  0  0  0  0  0  0  0  0
    1.5833   -0.1126    1.1885 O   0  0  0  0  0  0  0  0  0  0  0  0
   -0.5071    0.2959    1.9020 N   0  0  0  0  0  0  0  0  0  0  0  0
   -1.4960    0.2178    1.6936 H   0  0  0  0  0  0  0  0  0  0  0  0
   -0.0962    0.8291    3.1955 C   0  0  0  0  0  0  0  0  0  0  0  0
    0.5876    1.6741    3.0625 H   0  0  0  0  0  0  0  0  0  0  0  0
   -0.9687    1.1765    3.7568 H   0  0  0  0  0  0  0  0  0  0  0  0
    0.4094    0.0561    3.7841 H   0  0  0  0  0  0  0  0  0  0  0  0
  1  2  1  0  0  0  0
  2  3  1  0  0  0  0
  2  4  1  0  0  0  0
  2  5  1  0  0  0  0
  5  6  2  0  0  0  0
  5  7  1  0  0  0  0
  7  8  1  0  0  0  0
  7  9  1  0  0  0  0
  9 10  1  0  0  0  0
  9 11  1  0  0  0  0
  9 22  1  0  0  0  0
 11 12  1  0  0  0  0
 11 13  1  0  0  0  0
 11 14  1  0  0  0  0
 14 15  1  0  0  0  0
 14 20  2  0  0  0  0
 15 16  1  0  0  0  0
 15 17  1  0  0  0  0
 17 18  1  0  0  0  0
 17 19  2  0  0  0  0
 19 20  1  0  0  0  0
 20 21  1  0  0  0  0
 22 23  2  0  0  0  0
 22 24  1  0  0  0  0
 24 25  1  0  0  0  0
 24 26  1  0  0  0  0
 26 27  1  0  0  0  0
 26 28  1  0  0  0  0
 26 29  1  0  0  0  0
M  END
$$$$

  -OEChem-03222214043D

 29 29  0     1  0  0  0  0  0999 V2000
   -2.7688   -4.3420    0.7864 H   0  0  0  0  0  0  0  0  0  0  0  0
   -2.8153   -3.4328    0.1802 C   0  0  0  0  0  0  0  0  0  0  0  0
   -3.7290   -2.8894    0.4317 H   0  0  0  0  0  0  0  0  0  0  0  0
   -2.8445   -3.7174   -0.8743 H   0  0  0  0  0  0  0  0  0  0  0  0
   -1.6021   -2.5635    0.4522 C   0  0  0  0  0  0  0  0  0  0  0  0
   -0.8063   -2.8927    1.3117 O   0  0  0  0  0  0  0  0  0  0  0  0
   -1.4194   -1.4022   -0.2750 N   0  0  0  0  0  0  0  0  0  0  0  0
   -1.9920   -1.3383   -1.1115 H   0  0  0  0  0  0  0  0  0  0  0  0
   -0.1280   -0.6928   -0.3556 C   0  0  1  0  0  0  0  0  0  0  0  0
    0.6039   -1.4129   -0.7384 H   0  0  0  0  0  0  0  0  0  0  0  0
   -0.1413    0.5183   -1.3345 C   0  0  0  0  0  0  0  0  0  0  0  0
    0.1379    1.4211   -0.7794 H   0  0  0  0  0  0  0  0  0  0  0  0
    0.6552    0.3564   -2.0687 H   0  0  0  0  0  0  0  0  0  0  0  0
   -1.4180    0.8628   -2.0888 C   0  0  0  0  0  0  0  0  0  0  0  0
   -2.7396    0.4873   -1.9225 N   0  0  0  0  0  0  0  0  0  0  0  0
   -3.1361    0.0647   -1.0861 H   0  0  0  0  0  0  0  0  0  0  0  0
   -3.4903    1.0339   -2.9470 C   0  0  0  0  0  0  0  0  0  0  0  0
   -4.5671    0.9374   -3.0552 H   0  0  0  0  0  0  0  0  0  0  0  0
   -2.7151    1.6972   -3.7657 N   0  0  0  0  0  0  0  0  0  0  0  0
   -1.4288    1.5954   -3.2496 C   0  0  0  0  0  0  0  0  0  0  0  0
   -0.5473    2.0292   -3.7128 H   0  0  0  0  0  0  0  0  0  0  0  0
    0.4219   -0.2102    1.0067 C   0  0  0  0  0  0  0  0  0  0  0  0
    1.6330   -0.1427    1.1722 O   0  0  0  0  0  0  0  0  0  0  0  0
   -0.4186    0.4108    1.9133 N   0  0  0  0  0  0  0  0  0  0  0  0
   -1.4113    0.2468    1.7835 H   0  0  0  0  0  0  0  0  0  0  0  0
    0.0437    0.9100    3.2022 C   0  0  0  0  0  0  0  0  0  0  0  0
    0.8286    1.6610    3.0639 H   0  0  0  0  0  0  0  0  0  0  0  0
   -0.7837    1.3747    3.7468 H   0  0  0  0  0  0  0  0  0  0  0  0
    0.4430    0.0901    3.8083 H   0  0  0  0  0  0  0  0  0  0  0  0
  1  2  1  0  0  0  0
  2  3  1  0  0  0  0
  2  4  1  0  0  0  0
  2  5  1  0  0  0  0
  5  6  2  0  0  0  0
  5  7  1  0  0  0  0
  7  8  1  0  0  0  0
  7  9  1  0  0  0  0
  9 10  1  0  0  0  0
  9 11  1  0  0  0  0
  9 22  1  0  0  0  0
 11 12  1  0  0  0  0
 11 13  1  0  0  0  0
 11 14  1  0  0  0  0
 14 15  1  0  0  0  0
 14 20  2  0  0  0  0
 15 16  1  0  0  0  0
 15 17  1  0  0  0  0
 17 18  1  0  0  0  0
 17 19  2  0  0  0  0
 19 20  1  0  0  0  0
 20 21  1  0  0  0  0
 22 23  2  0  0  0  0
 22 24  1  0  0  0  0
 24 25  1  0  0  0  0
 24 26  1  0  0  0  0
 26 27  1  0  0  0  0
 26 28  1  0  0  0  0
 26 29  1  0  0  0  0
M  END
$$$$

  -OEChem-03222214043D

 29 29  0     1  0  0  0  0  0999 V2000
   -2.8427   -4.2865    0.7080 H   0  0  0  0  0  0  0  0  0  0  0  0
   -2.8750   -3.3552    0.1351 C   0  0  0  0  0  0  0  0  0  0  0  0
   -3.7668   -2.7943    0.4245 H   0  0  0  0  0  0  0  0  0  0  0  0
   -2.9343   -3.6005   -0.9281 H   0  0  0  0  0  0  0  0  0  0  0  0
   -1.6313   -2.5312    0.4096 C   0  0  0  0  0  0  0  0  0  0  0  0
   -0.8414   -2.8941    1.2611 O   0  0  0  0  0  0  0  0  0  0  0  0
   -1.4160   -1.3651   -0.2990 N   0  0  0  0  0  0  0  0  0  0  0  0
   -2.0124   -1.2402   -1.1133 H   0  0  0  0  0  0  0  0  0  0  0  0
   -0.1144   -0.6717   -0.3580 C   0  0  1  0  0  0  0  0  0  0  0  0
    0.6099   -1.4015   -0.7369 H   0  0  0  0  0  0  0  0  0  0  0  0
   -0.1034    0.5351   -1.3402 C   0  0  0  0  0  0  0  0  0  0  0  0
    0.1653    1.4397   -0.7831 H   0  0  0  0  0  0  0  0  0  0  0  0
    0.7029    0.3720   -2.0633 H   0  0  0  0  0  0  0  0  0  0  0  0
   -1.3792    0.8623   -2.1003 C   0  0  0  0  0  0  0  0  0  0  0  0
   -2.7101    0.6901   -1.7672 N   0  0  0  0  0  0  0  0  0  0  0  0
   -3.0673    0.4527   -0.8439 H   0  0  0  0  0  0  0  0  0  0  0  0
   -3.4915    1.1019   -2.8305 C   0  0  0  0  0  0  0  0  0  0  0  0
   -4.5778    1.1105   -2.8441 H   0  0  0  0  0  0  0  0  0  0  0  0
   -2.7290    1.4865   -3.8221 N   0  0  0  0  0  0  0  0  0  0  0  0
   -1.4172    1.3434   -3.3848 C   0  0  0  0  0  0  0  0  0  0  0  0
   -0.5416    1.5733   -3.9849 H   0  0  0  0  0  0  0  0  0  0  0  0
    0.4321   -0.2088    1.0116 C   0  0  0  0  0  0  0  0  0  0  0  0
    1.6429   -0.1524    1.1825 O   0  0  0  0  0  0  0  0  0  0  0  0
   -0.4054    0.4153    1.9189 N   0  0  0  0  0  0  0  0  0  0  0  0
   -1.3968    0.2407    1.7954 H   0  0  0  0  0  0  0  0  0  0  0  0
    0.0598    0.8888    3.2165 C   0  0  0  0  0  0  0  0  0  0  0  0
    0.8592    1.6270    3.0921 H   0  0  0  0  0  0  0  0  0  0  0  0
   -0.7612    1.3613    3.7636 H   0  0  0  0  0  0  0  0  0  0  0  0
    0.4410    0.0534    3.8132 H   0  0  0  0  0  0  0  0  0  0  0  0
  1  2  1  0  0  0  0
  2  3  1  0  0  0  0
  2  4  1  0  0  0  0
  2  5  1  0  0  0  0
  5  6  2  0  0  0  0
  5  7  1  0  0  0  0
  7  8  1  0  0  0  0
  7  9  1  0  0  0  0
  9 10  1  0  0  0  0
  9 11  1  0  0  0  0
  9 22  1  0  0  0  0
 11 12  1  0  0  0  0
 11 13  1  0  0  0  0
 11 14  1  0  0  0  0
 14 15  1  0  0  0  0
 14 20  2  0  0  0  0
 15 16  1  0  0  0  0
 15 17  1  0  0  0  0
 17 18  1  0  0  0  0
 17 19  2  0  0  0  0
 19 20  1  0  0  0  0
 20 21  1  0  0  0  0
 22 23  2  0  0  0  0
 22 24  1  0  0  0  0
 24 25  1  0  0  0  0
 24 26  1  0  0  0  0
 26 27  1  0  0  0  0
 26 28  1  0  0  0  0
 26 29  1  0  0  0  0
M  END
$$$$

  -OEChem-03222214043D

 29 29  0     1  0  0  0  0  0999 V2000
   -2.9254   -4.2165    0.6553 H   0  0  0  0  0  0  0  0  0  0  0  0
   -2.9251   -3.2835    0.0842 C   0  0  0  0  0  0  0  0  0  0  0  0
   -3.7970   -2.6925    0.3740 H   0  0  0  0  0  0  0  0  0  0  0  0
   -2.9920   -3.5238   -0.9797 H   0  0  0  0  0  0  0  0  0  0  0  0
   -1.6535   -2.5040    0.3611 C   0  0  0  0  0  0  0  0  0  0  0  0
   -0.8697   -2.9016    1.2031 O   0  0  0  0  0  0  0  0  0  0  0  0
   -1.4046   -1.3354   -0.3308 N   0  0  0  0  0  0  0  0  0  0  0  0
   -2.0235   -1.1455   -1.1163 H   0  0  0  0  0  0  0  0  0  0  0  0
   -0.0935   -0.6575   -0.3637 C   0  0  1  0  0  0  0  0  0  0  0  0
    0.6268   -1.3954   -0.7345 H   0  0  0  0  0  0  0  0  0  0  0  0
   -0.0583    0.5454   -1.3465 C   0  0  0  0  0  0  0  0  0  0  0  0
    0.2077    1.4531   -0.7932 H   0  0  0  0  0  0  0  0  0  0  0  0
    0.7507    0.3733   -2.0644 H   0  0  0  0  0  0  0  0  0  0  0  0
   -1.3352    0.8479   -2.1085 C   0  0  0  0  0  0  0  0  0  0  0  0
   -2.6392    0.9102   -1.6558 N   0  0  0  0  0  0  0  0  0  0  0  0
   -2.9366    0.8821   -0.6824 H   0  0  0  0  0  0  0  0  0  0  0  0
   -3.4659    1.1863   -2.7288 C   0  0  0  0  0  0  0  0  0  0  0  0
   -4.5427    1.3200   -2.6734 H   0  0  0  0  0  0  0  0  0  0  0  0
   -2.7590    1.2642   -3.8282 N   0  0  0  0  0  0  0  0  0  0  0  0
   -1.4337    1.0615   -3.4594 C   0  0  0  0  0  0  0  0  0  0  0  0
   -0.5949    1.0622   -4.1494 H   0  0  0  0  0  0  0  0  0  0  0  0
    0.4395   -0.2119    1.0163 C   0  0  0  0  0  0  0  0  0  0  0  0
    1.6484   -0.1553    1.1993 O   0  0  0  0  0  0  0  0  0  0  0  0
   -0.4053    0.4153    1.9149 N   0  0  0  0  0  0  0  0  0  0  0  0
   -1.3935    0.2232    1.7917 H   0  0  0  0  0  0  0  0  0  0  0  0
    0.0504    0.8854    3.2175 C   0  0  0  0  0  0  0  0  0  0  0  0
    0.8506    1.6240    3.1010 H   0  0  0  0  0  0  0  0  0  0  0  0
   -0.7747    1.3564    3.7600 H   0  0  0  0  0  0  0  0  0  0  0  0
    0.4276    0.0488    3.8151 H   0  0  0  0  0  0  0  0  0  0  0  0
  1  2  1  0  0  0  0
  2  3  1  0  0  0  0
  2  4  1  0  0  0  0
  2  5  1  0  0  0  0
  5  6  2  0  0  0  0
  5  7  1  0  0  0  0
  7  8  1  0  0  0  0
  7  9  1  0  0  0  0
  9 10  1  0  0  0  0
  9 11  1  0  0  0  0
  9 22  1  0  0  0  0
 11 12  1  0  0  0  0
 11 13  1  0  0  0  0
 11 14  1  0  0  0  0
 14 15  1  0  0  0  0
 14 20  2  0  0  0  0
 15 16  1  0  0  0  0
 15 17  1  0  0  0  0
 17 18  1  0  0  0  0
 17 19  2  0  0  0  0
 19 20  1  0  0  0  0
 20 21  1  0  0  0  0
 22 23  2  0  0  0  0
 22 24  1  0  0  0  0
 24 25  1  0  0  0  0
 24 26  1  0  0  0  0
 26 27  1  0  0  0  0
 26 28  1  0  0  0  0
 26 29  1  0  0  0  0
M  END
$$$$

  -OEChem-03222214043D

 29 29  0     1  0  0  0  0  0999 V2000
   -2.9886   -4.1534    0.6226 H   0  0  0  0  0  0  0  0  0  0  0  0
   -2.9617   -3.2192    0.0544 C   0  0  0  0  0  0  0  0  0  0  0  0
   -3.8085   -2.5985    0.3560 H   0  0  0  0  0  0  0  0  0  0  0  0
   -3.0499   -3.4535   -1.0093 H   0  0  0  0  0  0  0  0  0  0  0  0
   -1.6603   -2.4861    0.3185 C   0  0  0  0  0  0  0  0  0  0  0  0
   -0.8771   -2.9161    1.1455 O   0  0  0  0  0  0  0  0  0  0  0  0
   -1.3813   -1.3203   -0.3654 N   0  0  0  0  0  0  0  0  0  0  0  0
   -2.0180   -1.0767   -1.1217 H   0  0  0  0  0  0  0  0  0  0  0  0
   -0.0641   -0.6525   -0.3747 C   0  0  1  0  0  0  0  0  0  0  0  0
    0.6585   -1.3934   -0.7345 H   0  0  0  0  0  0  0  0  0  0  0  0
   -0.0133    0.5477   -1.3571 C   0  0  0  0  0  0  0  0  0  0  0  0
    0.2523    1.4608   -0.8128 H   0  0  0  0  0  0  0  0  0  0  0  0
    0.7947    0.3672   -2.0742 H   0  0  0  0  0  0  0  0  0  0  0  0
   -1.2957    0.8184   -2.1159 C   0  0  0  0  0  0  0  0  0  0  0  0
   -2.5403    1.1302   -1.6067 N   0  0  0  0  0  0  0  0  0  0  0  0
   -2.7604    1.3174   -0.6303 H   0  0  0  0  0  0  0  0  0  0  0  0
   -3.4190    1.2836   -2.6628 C   0  0  0  0  0  0  0  0  0  0  0  0
   -4.4680    1.5517   -2.5719 H   0  0  0  0  0  0  0  0  0  0  0  0
   -2.8005    1.0548   -3.7950 N   0  0  0  0  0  0  0  0  0  0  0  0
   -1.4762    0.7766   -3.4738 C   0  0  0  0  0  0  0  0  0  0  0  0
   -0.6993    0.5483   -4.1976 H   0  0  0  0  0  0  0  0  0  0  0  0
    0.4448   -0.2120    1.0149 C   0  0  0  0  0  0  0  0  0  0  0  0
    1.6501   -0.1561    1.2199 O   0  0  0  0  0  0  0  0  0  0  0  0
   -0.4157    0.4207    1.8947 N   0  0  0  0  0  0  0  0  0  0  0  0
   -1.4004    0.2207    1.7567 H   0  0  0  0  0  0  0  0  0  0  0  0
    0.0159    0.8885    3.2065 C   0  0  0  0  0  0  0  0  0  0  0  0
    0.8214    1.6238    3.1067 H   0  0  0  0  0  0  0  0  0  0  0  0
   -0.8183    1.3628    3.7322 H   0  0  0  0  0  0  0  0  0  0  0  0
    0.3778    0.0501    3.8112 H   0  0  0  0  0  0  0  0  0  0  0  0
  1  2  1  0  0  0  0
  2  3  1  0  0  0  0
  2  4  1  0  0  0  0
  2  5  1  0  0  0  0
  5  6  2  0  0  0  0
  5  7  1  0  0  0  0
  7  8  1  0  0  0  0
  7  9  1  0  0  0  0
  9 10  1  0  0  0  0
  9 11  1  0  0  0  0
  9 22  1  0  0  0  0
 11 12  1  0  0  0  0
 11 13  1  0  0  0  0
 11 14  1  0  0  0  0
 14 15  1  0  0  0  0
 14 20  2  0  0  0  0
 15 16  1  0  0  0  0
 15 17  1  0  0  0  0
 17 18  1  0  0  0  0
 17 19  2  0  0  0  0
 19 20  1  0  0  0  0
 20 21  1  0  0  0  0
 22 23  2  0  0  0  0
 22 24  1  0  0  0  0
 24 25  1  0  0  0  0
 24 26  1  0  0  0  0
 26 27  1  0  0  0  0
 26 28  1  0  0  0  0
 26 29  1  0  0  0  0
M  END
$$$$

  -OEChem-03222214043D

 29 29  0     1  0  0  0  0  0999 V2000
   -3.0237   -4.1110    0.6208 H   0  0  0  0  0  0  0  0  0  0  0  0
   -2.9801   -3.1798    0.0489 C   0  0  0  0  0  0  0  0  0  0  0  0
   -3.8050   -2.5350    0.3610 H   0  0  0  0  0  0  0  0  0  0  0  0
   -3.0914   -3.4147   -1.0125 H   0  0  0  0  0  0  0  0  0  0  0  0
   -1.6552   -2.4816    0.2902 C   0  0  0  0  0  0  0  0  0  0  0  0
   -0.8663   -2.9360    1.0986 O   0  0  0  0  0  0  0  0  0  0  0  0
   -1.3593   -1.3198   -0.3929 N   0  0  0  0  0  0  0  0  0  0  0  0
   -2.0146   -1.0370   -1.1192 H   0  0  0  0  0  0  0  0  0  0  0  0
   -0.0393   -0.6549   -0.3880 C   0  0  1  0  0  0  0  0  0  0  0  0
    0.6882   -1.3956   -0.7380 H   0  0  0  0  0  0  0  0  0  0  0  0
    0.0191    0.5463   -1.3671 C   0  0  0  0  0  0  0  0  0  0  0  0
    0.2881    1.4628   -0.8303 H   0  0  0  0  0  0  0  0  0  0  0  0
    0.8226    0.3590   -2.0873 H   0  0  0  0  0  0  0  0  0  0  0  0
   -1.2681    0.7945   -2.1199 C   0  0  0  0  0  0  0  0  0  0  0  0
   -2.4276    1.3585   -1.6322 N   0  0  0  0  0  0  0  0  0  0  0  0
   -2.5598    1.7565   -0.7041 H   0  0  0  0  0  0  0  0  0  0  0  0
   -3.3558    1.3985   -2.6558 C   0  0  0  0  0  0  0  0  0  0  0  0
   -4.3609    1.8029   -2.5753 H   0  0  0  0  0  0  0  0  0  0  0  0
   -2.8459    0.8705   -3.7420 N   0  0  0  0  0  0  0  0  0  0  0  0
   -1.5395    0.5082   -3.4317 C   0  0  0  0  0  0  0  0  0  0  0  0
   -0.8410    0.0512   -4.1263 H   0  0  0  0  0  0  0  0  0  0  0  0
    0.4464   -0.2124    1.0087 C   0  0  0  0  0  0  0  0  0  0  0  0
    1.6478   -0.1550    1.2357 O   0  0  0  0  0  0  0  0  0  0  0  0
   -0.4302    0.4240    1.8699 N   0  0  0  0  0  0  0  0  0  0  0  0
   -1.4129    0.2291    1.7097 H   0  0  0  0  0  0  0  0  0  0  0  0
   -0.0244    0.8935    3.1893 C   0  0  0  0  0  0  0  0  0  0  0  0
    0.7838    1.6276    3.1044 H   0  0  0  0  0  0  0  0  0  0  0  0
   -0.8680    1.3695    3.6976 H   0  0  0  0  0  0  0  0  0  0  0  0
    0.3244    0.0558    3.8027 H   0  0  0  0  0  0  0  0  0  0  0  0
  1  2  1  0  0  0  0
  2  3  1  0  0  0  0
  2  4  1  0  0  0  0
  2  5  1  0  0  0  0
  5  6  2  0  0  0  0
  5  7  1  0  0  0  0
  7  8  1  0  0  0  0
  7  9  1  0  0  0  0
  9 10  1  0  0  0  0
  9 11  1  0  0  0  0
  9 22  1  0  0  0  0
 11 12  1  0  0  0  0
 11 13  1  0  0  0  0
 11 14  1  0  0  0  0
 14 15  1  0  0  0  0
 14 20  2  0  0  0  0
 15 16  1  0  0  0  0
 15 17  1  0  0  0  0
 17 18  1  0  0  0  0
 17 19  2  0  0  0  0
 19 20  1  0  0  0  0
 20 21  1  0  0  0  0
 22 23  2  0  0  0  0
 22 24  1  0  0  0  0
 24 25  1  0  0  0  0
 24 26  1  0  0  0  0
 26 27  1  0  0  0  0
 26 28  1  0  0  0  0
 26 29  1  0  0  0  0
M  END
$$$$

  -OEChem-03222214043D

 29 29  0     1  0  0  0  0  0999 V2000
   -3.0365   -4.0914    0.6376 H   0  0  0  0  0  0  0  0  0  0  0  0
   -2.9864   -3.1602    0.0661 C   0  0  0  0  0  0  0  0  0  0  0  0
   -3.7925   -2.5004    0.3954 H   0  0  0  0  0  0  0  0  0  0  0  0
   -3.1227   -3.3911   -0.9933 H   0  0  0  0  0  0  0  0  0  0  0  0
   -1.6443   -2.4871    0.2811 C   0  0  0  0  0  0  0  0  0  0  0  0
   -0.8446   -2.9593    1.0686 O   0  0  0  0  0  0  0  0  0  0  0  0
   -1.3428   -1.3287   -0.4050 N   0  0  0  0  0  0  0  0  0  0  0  0
   -2.0200   -1.0145   -1.0973 H   0  0  0  0  0  0  0  0  0  0  0  0
   -0.0244   -0.6606   -0.3963 C   0  0  1  0  0  0  0  0  0  0  0  0
    0.7086   -1.3985   -0.7405 H   0  0  0  0  0  0  0  0  0  0  0  0
    0.0322    0.5407   -1.3750 C   0  0  0  0  0  0  0  0  0  0  0  0
    0.3039    1.4594   -0.8432 H   0  0  0  0  0  0  0  0  0  0  0  0
    0.8320    0.3498   -2.0984 H   0  0  0  0  0  0  0  0  0  0  0  0
   -1.2571    0.7768   -2.1258 C   0  0  0  0  0  0  0  0  0  0  0  0
   -2.3123    1.5740   -1.7406 N   0  0  0  0  0  0  0  0  0  0  0  0
   -2.3580    2.1524   -0.9035 H   0  0  0  0  0  0  0  0  0  0  0  0
   -3.2801    1.5191   -2.7262 C   0  0  0  0  0  0  0  0  0  0  0  0
   -4.2279    2.0496   -2.7032 H   0  0  0  0  0  0  0  0  0  0  0  0
   -2.8887    0.7251   -3.6937 N   0  0  0  0  0  0  0  0  0  0  0  0
   -1.6189    0.2765   -3.3488 C   0  0  0  0  0  0  0  0  0  0  0  0
   -1.0092   -0.3867   -3.9554 H   0  0  0  0  0  0  0  0  0  0  0  0
    0.4469   -0.2114    1.0028 C   0  0  0  0  0  0  0  0  0  0  0  0
    1.6455   -0.1545    1.2438 O   0  0  0  0  0  0  0  0  0  0  0  0
   -0.4401    0.4257    1.8528 N   0  0  0  0  0  0  0  0  0  0  0  0
   -1.4222    0.2449    1.6721 H   0  0  0  0  0  0  0  0  0  0  0  0
   -0.0531    0.8922    3.1787 C   0  0  0  0  0  0  0  0  0  0  0  0
    0.7565    1.6264    3.1072 H   0  0  0  0  0  0  0  0  0  0  0  0
   -0.9041    1.3670    3.6760 H   0  0  0  0  0  0  0  0  0  0  0  0
    0.2869    0.0529    3.7946 H   0  0  0  0  0  0  0  0  0  0  0  0
  1  2  1  0  0  0  0
  2  3  1  0  0  0  0
  2  4  1  0  0  0  0
  2  5  1  0  0  0  0
  5  6  2  0  0  0  0
  5  7  1  0  0  0  0
  7  8  1  0  0  0  0
  7  9  1  0  0  0  0
  9 10  1  0  0  0  0
  9 11  1  0  0  0  0
  9 22  1  0  0  0  0
 11 12  1  0  0  0  0
 11 13  1  0  0  0  0
 11 14  1  0  0  0  0
 14 15  1  0  0  0  0
 14 20  2  0  0  0  0
 15 16  1  0  0  0  0
 15 17  1  0  0  0  0
 17 18  1  0  0  0  0
 17 19  2  0  0  0  0
 19 20  1  0  0  0  0
 20 21  1  0  0  0  0
 22 23  2  0  0  0  0
 22 24  1  0  0  0  0
 24 25  1  0  0  0  0
 24 26  1  0  0  0  0
 26 27  1  0  0  0  0
 26 28  1  0  0  0  0
 26 29  1  0  0  0  0
M  END
$$$$

  -OEChem-03222214043D

 29 29  0     1  0  0  0  0  0999 V2000
   -3.0292   -4.0896    0.6804 H   0  0  0  0  0  0  0  0  0  0  0  0
   -2.9843   -3.1595    0.1065 C   0  0  0  0  0  0  0  0  0  0  0  0
   -3.7704   -2.4884    0.4603 H   0  0  0  0  0  0  0  0  0  0  0  0
   -3.1573   -3.3885   -0.9478 H   0  0  0  0  0  0  0  0  0  0  0  0
   -1.6270   -2.5049    0.2785 C   0  0  0  0  0  0  0  0  0  0  0  0
   -0.8050   -2.9943    1.0319 O   0  0  0  0  0  0  0  0  0  0  0  0
   -1.3348   -1.3451   -0.4092 N   0  0  0  0  0  0  0  0  0  0  0  0
   -2.0419   -0.9990   -1.0544 H   0  0  0  0  0  0  0  0  0  0  0  0
   -0.0218   -0.6661   -0.4023 C   0  0  1  0  0  0  0  0  0  0  0  0
    0.7172   -1.3996   -0.7439 H   0  0  0  0  0  0  0  0  0  0  0  0
    0.0319    0.5355   -1.3811 C   0  0  0  0  0  0  0  0  0  0  0  0
    0.3005    1.4537   -0.8474 H   0  0  0  0  0  0  0  0  0  0  0  0
    0.8340    0.3486   -2.1029 H   0  0  0  0  0  0  0  0  0  0  0  0
   -1.2534    0.7707   -2.1392 C   0  0  0  0  0  0  0  0  0  0  0  0
   -2.1828    1.7630   -1.9192 N   0  0  0  0  0  0  0  0  0  0  0  0
   -2.1300    2.4943   -1.2119 H   0  0  0  0  0  0  0  0  0  0  0  0
   -3.1885    1.6329   -2.8587 C   0  0  0  0  0  0  0  0  0  0  0  0
   -4.0638    2.2722   -2.9318 H   0  0  0  0  0  0  0  0  0  0  0  0
   -2.9346    0.6164   -3.6477 N   0  0  0  0  0  0  0  0  0  0  0  0
   -1.7166    0.0900   -3.2348 C   0  0  0  0  0  0  0  0  0  0  0  0
   -1.2130   -0.7503   -3.7039 H   0  0  0  0  0  0  0  0  0  0  0  0
    0.4422   -0.2130    0.9981 C   0  0  0  0  0  0  0  0  0  0  0  0
    1.6392   -0.1501    1.2455 O   0  0  0  0  0  0  0  0  0  0  0  0
   -0.4522    0.4168    1.8459 N   0  0  0  0  0  0  0  0  0  0  0  0
   -1.4341    0.2498    1.6507 H   0  0  0  0  0  0  0  0  0  0  0  0
   -0.0758    0.8852    3.1741 C   0  0  0  0  0  0  0  0  0  0  0  0
    0.7303    1.6234    3.1071 H   0  0  0  0  0  0  0  0  0  0  0  0
   -0.9323    1.3556    3.6663 H   0  0  0  0  0  0  0  0  0  0  0  0
    0.2646    0.0476    3.7922 H   0  0  0  0  0  0  0  0  0  0  0  0
  1  2  1  0  0  0  0
  2  3  1  0  0  0  0
  2  4  1  0  0  0  0
  2  5  1  0  0  0  0
  5  6  2  0  0  0  0
  5  7  1  0  0  0  0
  7  8  1  0  0  0  0
  7  9  1  0  0  0  0
  9 10  1  0  0  0  0
  9 11  1  0  0  0  0
  9 22  1  0  0  0  0
 11 12  1  0  0  0  0
 11 13  1  0  0  0  0
 11 14  1  0  0  0  0
 14 15  1  0  0  0  0
 14 20  2  0  0  0  0
 15 16  1  0  0  0  0
 15 17  1  0  0  0  0
 17 18  1  0  0  0  0
 17 19  2  0  0  0  0
 19 20  1  0  0  0  0
 20 21  1  0  0  0  0
 22 23  2  0  0  0  0
 22 24  1  0  0  0  0
 24 25  1  0  0  0  0
 24 26  1  0  0  0  0
 26 27  1  0  0  0  0
 26 28  1  0  0  0  0
 26 29  1  0  0  0  0
M  END
$$$$

  -OEChem-03222214043D

 29 29  0     1  0  0  0  0  0999 V2000
   -3.0017   -4.1111    0.7444 H   0  0  0  0  0  0  0  0  0  0  0  0
   -2.9728   -3.1826    0.1672 C   0  0  0  0  0  0  0  0  0  0  0  0
   -3.7430   -2.5072    0.5470 H   0  0  0  0  0  0  0  0  0  0  0  0
   -3.1837   -3.4136   -0.8798 H   0  0  0  0  0  0  0  0  0  0  0  0
   -1.6071   -2.5342    0.2901 C   0  0  0  0  0  0  0  0  0  0  0  0
   -0.7571   -3.0340    1.0047 O   0  0  0  0  0  0  0  0  0  0  0  0
   -1.3370   -1.3701   -0.4001 N   0  0  0  0  0  0  0  0  0  0  0  0
   -2.0785   -0.9970   -0.9885 H   0  0  0  0  0  0  0  0  0  0  0  0
   -0.0339   -0.6727   -0.4021 C   0  0  1  0  0  0  0  0  0  0  0  0
    0.7113   -1.3997   -0.7439 H   0  0  0  0  0  0  0  0  0  0  0  0
    0.0130    0.5268   -1.3852 C   0  0  0  0  0  0  0  0  0  0  0  0
    0.2698    1.4446   -0.8451 H   0  0  0  0  0  0  0  0  0  0  0  0
    0.8240    0.3505   -2.0997 H   0  0  0  0  0  0  0  0  0  0  0  0
   -1.2627    0.7684   -2.1598 C   0  0  0  0  0  0  0  0  0  0  0  0
   -2.0405    1.9051   -2.1469 N   0  0  0  0  0  0  0  0  0  0  0  0
   -1.8753    2.7438   -1.5928 H   0  0  0  0  0  0  0  0  0  0  0  0
   -3.0779    1.7351   -3.0445 C   0  0  0  0  0  0  0  0  0  0  0  0
   -3.8607    2.4623   -3.2413 H   0  0  0  0  0  0  0  0  0  0  0  0
   -2.9824    0.5615   -3.6224 N   0  0  0  0  0  0  0  0  0  0  0  0
   -1.8361   -0.0348   -3.1122 C   0  0  0  0  0  0  0  0  0  0  0  0
   -1.4540   -1.0045   -3.4180 H   0  0  0  0  0  0  0  0  0  0  0  0
    0.4317   -0.2131    0.9958 C   0  0  0  0  0  0  0  0  0  0  0  0
    1.6289   -0.1406    1.2396 O   0  0  0  0  0  0  0  0  0  0  0  0
   -0.4653    0.4040    1.8499 N   0  0  0  0  0  0  0  0  0  0  0  0
   -1.4477    0.2450    1.6508 H   0  0  0  0  0  0  0  0  0  0  0  0
   -0.0894    0.8795    3.1755 C   0  0  0  0  0  0  0  0  0  0  0  0
    0.7081    1.6267    3.1044 H   0  0  0  0  0  0  0  0  0  0  0  0
   -0.9493    1.3410    3.6700 H   0  0  0  0  0  0  0  0  0  0  0  0
    0.2624    0.0468    3.7938 H   0  0  0  0  0  0  0  0  0  0  0  0
  1  2  1  0  0  0  0
  2  3  1  0  0  0  0
  2  4  1  0  0  0  0
  2  5  1  0  0  0  0
  5  6  2  0  0  0  0
  5  7  1  0  0  0  0
  7  8  1  0  0  0  0
  7  9  1  0  0  0  0
  9 10  1  0  0  0  0
  9 11  1  0  0  0  0
  9 22  1  0  0  0  0
 11 12  1  0  0  0  0
 11 13  1  0  0  0  0
 11 14  1  0  0  0  0
 14 15  1  0  0  0  0
 14 20  2  0  0  0  0
 15 16  1  0  0  0  0
 15 17  1  0  0  0  0
 17 18  1  0  0  0  0
 17 19  2  0  0  0  0
 19 20  1  0  0  0  0
 20 21  1  0  0  0  0
 22 23  2  0  0  0  0
 22 24  1  0  0  0  0
 24 25  1  0  0  0  0
 24 26  1  0  0  0  0
 26 27  1  0  0  0  0
 26 28  1  0  0  0  0
 26 29  1  0  0  0  0
M  END
$$$$

  -OEChem-03222214043D

 29 29  0     1  0  0  0  0  0999 V2000
   -2.9546   -4.1438    0.8283 H   0  0  0  0  0  0  0  0  0  0  0  0
   -2.9480   -3.2189    0.2445 C   0  0  0  0  0  0  0  0  0  0  0  0
   -3.7035   -2.5413    0.6489 H   0  0  0  0  0  0  0  0  0  0  0  0
   -3.1981   -3.4565   -0.7924 H   0  0  0  0  0  0  0  0  0  0  0  0
   -1.5788   -2.5700    0.3112 C   0  0  0  0  0  0  0  0  0  0  0  0
   -0.6973   -3.0730    0.9840 O   0  0  0  0  0  0  0  0  0  0  0  0
   -1.3408   -1.4016   -0.3836 N   0  0  0  0  0  0  0  0  0  0  0  0
   -2.1181   -1.0073   -0.9070 H   0  0  0  0  0  0  0  0  0  0  0  0
   -0.0522   -0.6798   -0.4006 C   0  0  1  0  0  0  0  0  0  0  0  0
    0.7009   -1.3983   -0.7438 H   0  0  0  0  0  0  0  0  0  0  0  0
   -0.0177    0.5156   -1.3918 C   0  0  0  0  0  0  0  0  0  0  0  0
    0.2226    1.4329   -0.8432 H   0  0  0  0  0  0  0  0  0  0  0  0
    0.8047    0.3521   -2.0964 H   0  0  0  0  0  0  0  0  0  0  0  0
   -1.2805    0.7681   -2.1884 C   0  0  0  0  0  0  0  0  0  0  0  0
   -1.8785    1.9908   -2.4024 N   0  0  0  0  0  0  0  0  0  0  0  0
   -1.5779    2.8843   -2.0168 H   0  0  0  0  0  0  0  0  0  0  0  0
   -2.9544    1.8137   -3.2520 C   0  0  0  0  0  0  0  0  0  0  0  0
   -3.6268    2.6002   -3.5833 H   0  0  0  0  0  0  0  0  0  0  0  0
   -3.0483    0.5527   -3.5988 N   0  0  0  0  0  0  0  0  0  0  0  0
   -1.9889   -0.0996   -2.9821 C   0  0  0  0  0  0  0  0  0  0  0  0
   -1.7547   -1.1519   -3.1142 H   0  0  0  0  0  0  0  0  0  0  0  0
    0.4168   -0.2114    0.9934 C   0  0  0  0  0  0  0  0  0  0  0  0
    1.6143   -0.1175    1.2275 O   0  0  0  0  0  0  0  0  0  0  0  0
   -0.4837    0.3881    1.8564 N   0  0  0  0  0  0  0  0  0  0  0  0
   -1.4660    0.2266    1.6596 H   0  0  0  0  0  0  0  0  0  0  0  0
   -0.1053    0.8757    3.1769 C   0  0  0  0  0  0  0  0  0  0  0  0
    0.6762    1.6384    3.0961 H   0  0  0  0  0  0  0  0  0  0  0  0
   -0.9697    1.3216    3.6780 H   0  0  0  0  0  0  0  0  0  0  0  0
    0.2688    0.0521    3.7942 H   0  0  0  0  0  0  0  0  0  0  0  0
  1  2  1  0  0  0  0
  2  3  1  0  0  0  0
  2  4  1  0  0  0  0
  2  5  1  0  0  0  0
  5  6  2  0  0  0  0
  5  7  1  0  0  0  0
  7  8  1  0  0  0  0
  7  9  1  0  0  0  0
  9 10  1  0  0  0  0
  9 11  1  0  0  0  0
  9 22  1  0  0  0  0
 11 12  1  0  0  0  0
 11 13  1  0  0  0  0
 11 14  1  0  0  0  0
 14 15  1  0  0  0  0
 14 20  2  0  0  0  0
 15 16  1  0  0  0  0
 15 17  1  0  0  0  0
 17 18  1  0  0  0  0
 17 19  2  0  0  0  0
 19 20  1  0  0  0  0
 20 21  1  0  0  0  0
 22 23  2  0  0  0  0
 22 24  1  0  0  0  0
 24 25  1  0  0  0  0
 24 26  1  0  0  0  0
 26 27  1  0  0  0  0
 26 28  1  0  0  0  0
 26 29  1  0  0  0  0
M  END
$$$$

  -OEChem-03222214043D

 29 29  0     1  0  0  0  0  0999 V2000
   -2.8733   -4.1961    0.9362 H   0  0  0  0  0  0  0  0  0  0  0  0
   -2.9040   -3.2783    0.3424 C   0  0  0  0  0  0  0  0  0  0  0  0
   -3.6494   -2.6056    0.7728 H   0  0  0  0  0  0  0  0  0  0  0  0
   -3.1969   -3.5310   -0.6795 H   0  0  0  0  0  0  0  0  0  0  0  0
   -1.5409   -2.6131    0.3415 C   0  0  0  0  0  0  0  0  0  0  0  0
   -0.6218   -3.1076    0.9687 O   0  0  0  0  0  0  0  0  0  0  0  0
   -1.3502   -1.4397   -0.3605 N   0  0  0  0  0  0  0  0  0  0  0  0
   -2.1633   -1.0387   -0.8191 H   0  0  0  0  0  0  0  0  0  0  0  0
   -0.0820   -0.6852   -0.4004 C   0  0  1  0  0  0  0  0  0  0  0  0
    0.6806   -1.3925   -0.7457 H   0  0  0  0  0  0  0  0  0  0  0  0
   -0.0639    0.5035   -1.4026 C   0  0  0  0  0  0  0  0  0  0  0  0
    0.1576    1.4218   -0.8476 H   0  0  0  0  0  0  0  0  0  0  0  0
    0.7727    0.3531   -2.0932 H   0  0  0  0  0  0  0  0  0  0  0  0
   -1.3091    0.7714   -2.2275 C   0  0  0  0  0  0  0  0  0  0  0  0
   -1.7001    2.0155   -2.6757 N   0  0  0  0  0  0  0  0  0  0  0  0
   -1.2425    2.9010   -2.4659 H   0  0  0  0  0  0  0  0  0  0  0  0
   -2.8184    1.8729   -3.4747 C   0  0  0  0  0  0  0  0  0  0  0  0
   -3.3579    2.6887   -3.9480 H   0  0  0  0  0  0  0  0  0  0  0  0
   -3.1352    0.6055   -3.5770 N   0  0  0  0  0  0  0  0  0  0  0  0
   -2.1822   -0.0909   -2.8464 C   0  0  0  0  0  0  0  0  0  0  0  0
   -2.1327   -1.1742   -2.7953 H   0  0  0  0  0  0  0  0  0  0  0  0
    0.3958   -0.2039    0.9869 C   0  0  0  0  0  0  0  0  0  0  0  0
    1.5941   -0.0832    1.2046 O   0  0  0  0  0  0  0  0  0  0  0  0
   -0.5056    0.3726    1.8647 N   0  0  0  0  0  0  0  0  0  0  0  0
   -1.4882    0.2009    1.6779 H   0  0  0  0  0  0  0  0  0  0  0  0
   -0.1197    0.8745    3.1777 C   0  0  0  0  0  0  0  0  0  0  0  0
    0.6518    1.6459    3.0831 H   0  0  0  0  0  0  0  0  0  0  0  0
   -0.9843    1.3141    3.6840 H   0  0  0  0  0  0  0  0  0  0  0  0
    0.2704    0.0604    3.7977 H   0  0  0  0  0  0  0  0  0  0  0  0
  1  2  1  0  0  0  0
  2  3  1  0  0  0  0
  2  4  1  0  0  0  0
  2  5  1  0  0  0  0
  5  6  2  0  0  0  0
  5  7  1  0  0  0  0
  7  8  1  0  0  0  0
  7  9  1  0  0  0  0
  9 10  1  0  0  0  0
  9 11  1  0  0  0  0
  9 22  1  0  0  0  0
 11 12  1  0  0  0  0
 11 13  1  0  0  0  0
 11 14  1  0  0  0  0
 14 15  1  0  0  0  0
 14 20  2  0  0  0  0
 15 16  1  0  0  0  0
 15 17  1  0  0  0  0
 17 18  1  0  0  0  0
 17 19  2  0  0  0  0
 19 20  1  0  0  0  0
 20 21  1  0  0  0  0
 22 23  2  0  0  0  0
 22 24  1  0  0  0  0
 24 25  1  0  0  0  0
 24 26  1  0  0  0  0
 26 27  1  0  0  0  0
 26 28  1  0  0  0  0
 26 29  1  0  0  0  0
M  END
$$$$

  -OEChem-03222214043D

 29 29  0     1  0  0  0  0  0999 V2000
   -2.7846   -4.2549    1.0293 H   0  0  0  0  0  0  0  0  0  0  0  0
   -2.8498   -3.3432    0.4285 C   0  0  0  0  0  0  0  0  0  0  0  0
   -3.5933   -2.6795    0.8760 H   0  0  0  0  0  0  0  0  0  0  0  0
   -3.1697   -3.6112   -0.5816 H   0  0  0  0  0  0  0  0  0  0  0  0
   -1.4996   -2.6537    0.3789 C   0  0  0  0  0  0  0  0  0  0  0  0
   -0.5508   -3.1293    0.9757 O   0  0  0  0  0  0  0  0  0  0  0  0
   -1.3557   -1.4795   -0.3333 N   0  0  0  0  0  0  0  0  0  0  0  0
   -2.1970   -1.0848   -0.7406 H   0  0  0  0  0  0  0  0  0  0  0  0
   -0.1105   -0.6930   -0.4007 C   0  0  1  0  0  0  0  0  0  0  0  0
    0.6615   -1.3889   -0.7488 H   0  0  0  0  0  0  0  0  0  0  0  0
   -0.1156    0.4868   -1.4153 C   0  0  0  0  0  0  0  0  0  0  0  0
    0.0951    1.4087   -0.8618 H   0  0  0  0  0  0  0  0  0  0  0  0
    0.7285    0.3398   -2.0970 H   0  0  0  0  0  0  0  0  0  0  0  0
   -1.3462    0.7683   -2.2633 C   0  0  0  0  0  0  0  0  0  0  0  0
   -1.5256    1.9559   -2.9426 N   0  0  0  0  0  0  0  0  0  0  0  0
   -0.9028    2.7613   -2.9150 H   0  0  0  0  0  0  0  0  0  0  0  0
   -2.6922    1.8871   -3.6787 C   0  0  0  0  0  0  0  0  0  0  0  0
   -3.0926    2.6875   -4.2947 H   0  0  0  0  0  0  0  0  0  0  0  0
   -3.2463    0.7108   -3.5237 N   0  0  0  0  0  0  0  0  0  0  0  0
   -2.4060   -0.0034   -2.6811 C   0  0  0  0  0  0  0  0  0  0  0  0
   -2.5731   -1.0443   -2.4282 H   0  0  0  0  0  0  0  0  0  0  0  0
    0.3786   -0.1922    0.9761 C   0  0  0  0  0  0  0  0  0  0  0  0
    1.5773   -0.0431    1.1734 O   0  0  0  0  0  0  0  0  0  0  0  0
   -0.5210    0.3649    1.8682 N   0  0  0  0  0  0  0  0  0  0  0  0
   -1.5036    0.1826    1.6930 H   0  0  0  0  0  0  0  0  0  0  0  0
   -0.1256    0.8838    3.1718 C   0  0  0  0  0  0  0  0  0  0  0  0
    0.6224    1.6758    3.0603 H   0  0  0  0  0  0  0  0  0  0  0  0
   -0.9930    1.3015    3.6914 H   0  0  0  0  0  0  0  0  0  0  0  0
    0.2978    0.0836    3.7880 H   0  0  0  0  0  0  0  0  0  0  0  0
  1  2  1  0  0  0  0
  2  3  1  0  0  0  0
  2  4  1  0  0  0  0
  2  5  1  0  0  0  0
  5  6  2  0  0  0  0
  5  7  1  0  0  0  0
  7  8  1  0  0  0  0
  7  9  1  0  0  0  0
  9 10  1  0  0  0  0
  9 11  1  0  0  0  0
  9 22  1  0  0  0  0
 11 12  1  0  0  0  0
 11 13  1  0  0  0  0
 11 14  1  0  0  0  0
 14 15  1  0  0  0  0
 14 20  2  0  0  0  0
 15 16  1  0  0  0  0
 15 17  1  0  0  0  0
 17 18  1  0  0  0  0
 17 19  2  0  0  0  0
 19 20  1  0  0  0  0
 20 21  1  0  0  0  0
 22 23  2  0  0  0  0
 22 24  1  0  0  0  0
 24 25  1  0  0  0  0
 24 26  1  0  0  0  0
 26 27  1  0  0  0  0
 26 28  1  0  0  0  0
 26 29  1  0  0  0  0
M  END
$$$$

  -OEChem-03222214043D

 29 29  0     1  0  0  0  0  0999 V2000
   -2.5736   -4.4337    0.8311 H   0  0  0  0  0  0  0  0  0  0  0  0
   -2.6575   -3.5333    0.2160 C   0  0  0  0  0  0  0  0  0  0  0  0
   -3.5474   -2.9788    0.5233 H   0  0  0  0  0  0  0  0  0  0  0  0
   -2.7643   -3.8322   -0.8295 H   0  0  0  0  0  0  0  0  0  0  0  0
   -1.4231   -2.6686    0.3869 C   0  0  0  0  0  0  0  0  0  0  0  0
   -0.5525   -3.0040    1.1689 O   0  0  0  0  0  0  0  0  0  0  0  0
   -1.2970   -1.5064   -0.3492 N   0  0  0  0  0  0  0  0  0  0  0  0
   -1.9754   -1.3823   -1.0946 H   0  0  0  0  0  0  0  0  0  0  0  0
   -0.0670   -0.6949   -0.4133 C   0  0  1  0  0  0  0  0  0  0  0  0
    0.7396   -1.3503   -0.7601 H   0  0  0  0  0  0  0  0  0  0  0  0
   -0.1449    0.5122   -1.3922 C   0  0  0  0  0  0  0  0  0  0  0  0
    0.3609    1.3740   -0.9419 H   0  0  0  0  0  0  0  0  0  0  0  0
    0.4501    0.2333   -2.2681 H   0  0  0  0  0  0  0  0  0  0  0  0
   -1.4863    0.9964   -1.9249 C   0  0  0  0  0  0  0  0  0  0  0  0
   -1.5848    2.0620   -2.7965 N   0  0  0  0  0  0  0  0  0  0  0  0
   -0.8056    2.5840   -3.1937 H   0  0  0  0  0  0  0  0  0  0  0  0
   -2.9170    2.3241   -3.0489 C   0  0  0  0  0  0  0  0  0  0  0  0
   -3.2888    3.0982   -3.7143 H   0  0  0  0  0  0  0  0  0  0  0  0
   -3.6688    1.4989   -2.3650 N   0  0  0  0  0  0  0  0  0  0  0  0
   -2.7995    0.6932   -1.6434 C   0  0  0  0  0  0  0  0  0  0  0  0
   -3.1475   -0.0505   -0.9362 H   0  0  0  0  0  0  0  0  0  0  0  0
    0.3816   -0.1612    0.9666 C   0  0  0  0  0  0  0  0  0  0  0  0
    1.5745    0.0049    1.1868 O   0  0  0  0  0  0  0  0  0  0  0  0
   -0.5459    0.3907    1.8323 N   0  0  0  0  0  0  0  0  0  0  0  0
   -1.5201    0.1782    1.6427 H   0  0  0  0  0  0  0  0  0  0  0  0
   -0.1871    0.9384    3.1344 C   0  0  0  0  0  0  0  0  0  0  0  0
    0.5473    1.7432    3.0237 H   0  0  0  0  0  0  0  0  0  0  0  0
   -1.0727    1.3475    3.6298 H   0  0  0  0  0  0  0  0  0  0  0  0
    0.2397    0.1572    3.7724 H   0  0  0  0  0  0  0  0  0  0  0  0
  1  2  1  0  0  0  0
  2  3  1  0  0  0  0
  2  4  1  0  0  0  0
  2  5  1  0  0  0  0
  5  6  2  0  0  0  0
  5  7  1  0  0  0  0
  7  8  1  0  0  0  0
  7  9  1  0  0  0  0
  9 10  1  0  0  0  0
  9 11  1  0  0  0  0
  9 22  1  0  0  0  0
 11 12  1  0  0  0  0
 11 13  1  0  0  0  0
 11 14  1  0  0  0  0
 14 15  1  0  0  0  0
 14 20  2  0  0  0  0
 15 16  1  0  0  0  0
 15 17  1  0  0  0  0
 17 18  1  0  0  0  0
 17 19  2  0  0  0  0
 19 20  1  0  0  0  0
 20 21  1  0  0  0  0
 22 23  2  0  0  0  0
 22 24  1  0  0  0  0
 24 25  1  0  0  0  0
 24 26  1  0  0  0  0
 26 27  1  0  0  0  0
 26 28  1  0  0  0  0
 26 29  1  0  0  0  0
M  END
$$$$

  -OEChem-03222214043D

 29 29  0     1  0  0  0  0  0999 V2000
   -2.7906   -4.3307    0.8275 H   0  0  0  0  0  0  0  0  0  0  0  0
   -2.8226   -3.4278    0.2111 C   0  0  0  0  0  0  0  0  0  0  0  0
   -3.6769   -2.8208    0.5203 H   0  0  0  0  0  0  0  0  0  0  0  0
   -2.9508   -3.7211   -0.8335 H   0  0  0  0  0  0  0  0  0  0  0  0
   -1.5375   -2.6386    0.3755 C   0  0  0  0  0  0  0  0  0  0  0  0
   -0.6823   -3.0280    1.1496 O   0  0  0  0  0  0  0  0  0  0  0  0
   -1.3450   -1.4835   -0.3569 N   0  0  0  0  0  0  0  0  0  0  0  0
   -2.0289   -1.2984   -1.0856 H   0  0  0  0  0  0  0  0  0  0  0  0
   -0.0732   -0.7350   -0.4133 C   0  0  1  0  0  0  0  0  0  0  0  0
    0.7009   -1.4294   -0.7588 H   0  0  0  0  0  0  0  0  0  0  0  0
   -0.0971    0.4688   -1.3966 C   0  0  0  0  0  0  0  0  0  0  0  0
    0.4467    1.3154   -0.9617 H   0  0  0  0  0  0  0  0  0  0  0  0
    0.4760    0.1553   -2.2750 H   0  0  0  0  0  0  0  0  0  0  0  0
   -1.4325    0.9802   -1.9106 C   0  0  0  0  0  0  0  0  0  0  0  0
   -1.5636    1.8223   -2.9949 N   0  0  0  0  0  0  0  0  0  0  0  0
   -0.8087    2.1488   -3.5955 H   0  0  0  0  0  0  0  0  0  0  0  0
   -2.8935    2.1673   -3.1401 C   0  0  0  0  0  0  0  0  0  0  0  0
   -3.2939    2.8032   -3.9247 H   0  0  0  0  0  0  0  0  0  0  0  0
   -3.6043    1.6123   -2.1900 N   0  0  0  0  0  0  0  0  0  0  0  0
   -2.7077    0.9057   -1.4006 C   0  0  0  0  0  0  0  0  0  0  0  0
   -2.9924    0.3909   -0.4890 H   0  0  0  0  0  0  0  0  0  0  0  0
    0.4004   -0.2239    0.9663 C   0  0  0  0  0  0  0  0  0  0  0  0
    1.5999   -0.1148    1.1859 O   0  0  0  0  0  0  0  0  0  0  0  0
   -0.4986    0.3761    1.8302 N   0  0  0  0  0  0  0  0  0  0  0  0
   -1.4815    0.2012    1.6480 H   0  0  0  0  0  0  0  0  0  0  0  0
   -0.1114    0.9126    3.1289 C   0  0  0  0  0  0  0  0  0  0  0  0
    0.6571    1.6842    3.0127 H   0  0  0  0  0  0  0  0  0  0  0  0
   -0.9766    1.3619    3.6255 H   0  0  0  0  0  0  0  0  0  0  0  0
    0.2828    0.1161    3.7688 H   0  0  0  0  0  0  0  0  0  0  0  0
  1  2  1  0  0  0  0
  2  3  1  0  0  0  0
  2  4  1  0  0  0  0
  2  5  1  0  0  0  0
  5  6  2  0  0  0  0
  5  7  1  0  0  0  0
  7  8  1  0  0  0  0
  7  9  1  0  0  0  0
  9 10  1  0  0  0  0
  9 11  1  0  0  0  0
  9 22  1  0  0  0  0
 11 12  1  0  0  0  0
 11 13  1  0  0  0  0
 11 14  1  0  0  0  0
 14 15  1  0  0  0  0
 14 20  2  0  0  0  0
 15 16  1  0  0  0  0
 15 17  1  0  0  0  0
 17 18  1  0  0  0  0
 17 19  2  0  0  0  0
 19 20  1  0  0  0  0
 20 21  1  0  0  0  0
 22 23  2  0  0  0  0
 22 24  1  0  0  0  0
 24 25  1  0  0  0  0
 24 26  1  0  0  0  0
 26 27  1  0  0  0  0
 26 28  1  0  0  0  0
 26 29  1  0  0  0  0
M  END
$$$$

  -OEChem-03222214043D

 29 29  0     1  0  0  0  0  0999 V2000
   -2.8771   -4.2597    0.7832 H   0  0  0  0  0  0  0  0  0  0  0  0
   -2.8767   -3.3513    0.1740 C   0  0  0  0  0  0  0  0  0  0  0  0
   -3.7098   -2.7170    0.4866 H   0  0  0  0  0  0  0  0  0  0  0  0
   -3.0129   -3.6311   -0.8735 H   0  0  0  0  0  0  0  0  0  0  0  0
   -1.5660   -2.6076    0.3465 C   0  0  0  0  0  0  0  0  0  0  0  0
   -0.7238   -3.0297    1.1177 O   0  0  0  0  0  0  0  0  0  0  0  0
   -1.3379   -1.4513   -0.3723 N   0  0  0  0  0  0  0  0  0  0  0  0
   -2.0265   -1.2191   -1.0839 H   0  0  0  0  0  0  0  0  0  0  0  0
   -0.0521   -0.7246   -0.4049 C   0  0  1  0  0  0  0  0  0  0  0  0
    0.7145   -1.4293   -0.7461 H   0  0  0  0  0  0  0  0  0  0  0  0
   -0.0580    0.4771   -1.3888 C   0  0  0  0  0  0  0  0  0  0  0  0
    0.4778    1.3274   -0.9516 H   0  0  0  0  0  0  0  0  0  0  0  0
    0.5198    0.1661   -2.2649 H   0  0  0  0  0  0  0  0  0  0  0  0
   -1.4049    0.9627   -1.8899 C   0  0  0  0  0  0  0  0  0  0  0  0
   -1.6385    1.5473   -3.1161 N   0  0  0  0  0  0  0  0  0  0  0  0
   -0.9511    1.6959   -3.8529 H   0  0  0  0  0  0  0  0  0  0  0  0
   -2.9676    1.9204   -3.1856 C   0  0  0  0  0  0  0  0  0  0  0  0
   -3.4422    2.3888   -4.0432 H   0  0  0  0  0  0  0  0  0  0  0  0
   -3.5752    1.6224   -2.0630 N   0  0  0  0  0  0  0  0  0  0  0  0
   -2.6096    1.0630   -1.2374 C   0  0  0  0  0  0  0  0  0  0  0  0
   -2.7898    0.7557   -0.2119 H   0  0  0  0  0  0  0  0  0  0  0  0
    0.4157   -0.2293    0.9817 C   0  0  0  0  0  0  0  0  0  0  0  0
    1.6147   -0.1370    1.2113 O   0  0  0  0  0  0  0  0  0  0  0  0
   -0.4815    0.3824    1.8392 N   0  0  0  0  0  0  0  0  0  0  0  0
   -1.4646    0.2122    1.6548 H   0  0  0  0  0  0  0  0  0  0  0  0
   -0.0959    0.9093    3.1423 C   0  0  0  0  0  0  0  0  0  0  0  0
    0.6803    1.6740    3.0328 H   0  0  0  0  0  0  0  0  0  0  0  0
   -0.9594    1.3647    3.6364 H   0  0  0  0  0  0  0  0  0  0  0  0
    0.2875    0.1065    3.7809 H   0  0  0  0  0  0  0  0  0  0  0  0
  1  2  1  0  0  0  0
  2  3  1  0  0  0  0
  2  4  1  0  0  0  0
  2  5  1  0  0  0  0
  5  6  2  0  0  0  0
  5  7  1  0  0  0  0
  7  8  1  0  0  0  0
  7  9  1  0  0  0  0
  9 10  1  0  0  0  0
  9 11  1  0  0  0  0
  9 22  1  0  0  0  0
 11 12  1  0  0  0  0
 11 13  1  0  0  0  0
 11 14  1  0  0  0  0
 14 15  1  0  0  0  0
 14 20  2  0  0  0  0
 15 16  1  0  0  0  0
 15 17  1  0  0  0  0
 17 18  1  0  0  0  0
 17 19  2  0  0  0  0
 19 20  1  0  0  0  0
 20 21  1  0  0  0  0
 22 23  2  0  0  0  0
 22 24  1  0  0  0  0
 24 25  1  0  0  0  0
 24 26  1  0  0  0  0
 26 27  1  0  0  0  0
 26 28  1  0  0  0  0
 26 29  1  0  0  0  0
M  END
$$$$

  -OEChem-03222214043D

 29 29  0     1  0  0  0  0  0999 V2000
   -2.9370   -4.1963    0.7557 H   0  0  0  0  0  0  0  0  0  0  0  0
   -2.9169   -3.2840    0.1528 C   0  0  0  0  0  0  0  0  0  0  0  0
   -3.7292   -2.6293    0.4773 H   0  0  0  0  0  0  0  0  0  0  0  0
   -3.0702   -3.5522   -0.8952 H   0  0  0  0  0  0  0  0  0  0  0  0
   -1.5842   -2.5787    0.3185 C   0  0  0  0  0  0  0  0  0  0  0  0
   -0.7461   -3.0309    1.0772 O   0  0  0  0  0  0  0  0  0  0  0  0
   -1.3302   -1.4207   -0.3882 N   0  0  0  0  0  0  0  0  0  0  0  0
   -2.0310   -1.1368   -1.0691 H   0  0  0  0  0  0  0  0  0  0  0  0
   -0.0345   -0.7101   -0.4012 C   0  0  1  0  0  0  0  0  0  0  0  0
    0.7268   -1.4221   -0.7388 H   0  0  0  0  0  0  0  0  0  0  0  0
   -0.0237    0.4892   -1.3856 C   0  0  0  0  0  0  0  0  0  0  0  0
    0.4984    1.3435   -0.9394 H   0  0  0  0  0  0  0  0  0  0  0  0
    0.5637    0.1891   -2.2587 H   0  0  0  0  0  0  0  0  0  0  0  0
   -1.3803    0.9496   -1.8759 C   0  0  0  0  0  0  0  0  0  0  0  0
   -1.7254    1.2588   -3.1734 N   0  0  0  0  0  0  0  0  0  0  0  0
   -1.1165    1.2075   -3.9881 H   0  0  0  0  0  0  0  0  0  0  0  0
   -3.0428    1.6777   -3.1907 C   0  0  0  0  0  0  0  0  0  0  0  0
   -3.5935    1.9756   -4.0787 H   0  0  0  0  0  0  0  0  0  0  0  0
   -3.5350    1.6580   -1.9754 N   0  0  0  0  0  0  0  0  0  0  0  0
   -2.5035    1.2418   -1.1441 C   0  0  0  0  0  0  0  0  0  0  0  0
   -2.5810    1.1529   -0.0647 H   0  0  0  0  0  0  0  0  0  0  0  0
    0.4265   -0.2293    0.9920 C   0  0  0  0  0  0  0  0  0  0  0  0
    1.6243   -0.1479    1.2316 O   0  0  0  0  0  0  0  0  0  0  0  0
   -0.4721    0.3886    1.8435 N   0  0  0  0  0  0  0  0  0  0  0  0
   -1.4547    0.2173    1.6560 H   0  0  0  0  0  0  0  0  0  0  0  0
   -0.0912    0.9014    3.1534 C   0  0  0  0  0  0  0  0  0  0  0  0
    0.6925    1.6600    3.0556 H   0  0  0  0  0  0  0  0  0  0  0  0
   -0.9540    1.3605    3.6452 H   0  0  0  0  0  0  0  0  0  0  0  0
    0.2808    0.0900    3.7878 H   0  0  0  0  0  0  0  0  0  0  0  0
  1  2  1  0  0  0  0
  2  3  1  0  0  0  0
  2  4  1  0  0  0  0
  2  5  1  0  0  0  0
  5  6  2  0  0  0  0
  5  7  1  0  0  0  0
  7  8  1  0  0  0  0
  7  9  1  0  0  0  0
  9 10  1  0  0  0  0
  9 11  1  0  0  0  0
  9 22  1  0  0  0  0
 11 12  1  0  0  0  0
 11 13  1  0  0  0  0
 11 14  1  0  0  0  0
 14 15  1  0  0  0  0
 14 20  2  0  0  0  0
 15 16  1  0  0  0  0
 15 17  1  0  0  0  0
 17 18  1  0  0  0  0
 17 19  2  0  0  0  0
 19 20  1  0  0  0  0
 20 21  1  0  0  0  0
 22 23  2  0  0  0  0
 22 24  1  0  0  0  0
 24 25  1  0  0  0  0
 24 26  1  0  0  0  0
 26 27  1  0  0  0  0
 26 28  1  0  0  0  0
 26 29  1  0  0  0  0
M  END
$$$$

  -OEChem-03222214043D

 29 29  0     1  0  0  0  0  0999 V2000
   -2.9702   -4.1446    0.7533 H   0  0  0  0  0  0  0  0  0  0  0  0
   -2.9402   -3.2277    0.1576 C   0  0  0  0  0  0  0  0  0  0  0  0
   -3.7235   -2.5527    0.5101 H   0  0  0  0  0  0  0  0  0  0  0  0
   -3.1301   -3.4818   -0.8877 H   0  0  0  0  0  0  0  0  0  0  0  0
   -1.5834   -2.5631    0.2920 C   0  0  0  0  0  0  0  0  0  0  0  0
   -0.7386   -3.0477    1.0228 O   0  0  0  0  0  0  0  0  0  0  0  0
   -1.3143   -1.4046   -0.4080 N   0  0  0  0  0  0  0  0  0  0  0  0
   -2.0352   -1.0666   -1.0418 H   0  0  0  0  0  0  0  0  0  0  0  0
   -0.0143   -0.7014   -0.4071 C   0  0  1  0  0  0  0  0  0  0  0  0
    0.7471   -1.4144   -0.7426 H   0  0  0  0  0  0  0  0  0  0  0  0
    0.0027    0.4995   -1.3874 C   0  0  0  0  0  0  0  0  0  0  0  0
    0.5103    1.3558   -0.9287 H   0  0  0  0  0  0  0  0  0  0  0  0
    0.5981    0.2161   -2.2609 H   0  0  0  0  0  0  0  0  0  0  0  0
   -1.3629    0.9381   -1.8649 C   0  0  0  0  0  0  0  0  0  0  0  0
   -1.8227    0.9740   -3.1626 N   0  0  0  0  0  0  0  0  0  0  0  0
   -1.2988    0.7153   -3.9970 H   0  0  0  0  0  0  0  0  0  0  0  0
   -3.1155    1.4632   -3.1539 C   0  0  0  0  0  0  0  0  0  0  0  0
   -3.7382    1.6000   -4.0334 H   0  0  0  0  0  0  0  0  0  0  0  0
   -3.4848    1.7324   -1.9245 N   0  0  0  0  0  0  0  0  0  0  0  0
   -2.3943    1.4410   -1.1147 C   0  0  0  0  0  0  0  0  0  0  0  0
   -2.3694    1.5811   -0.0383 H   0  0  0  0  0  0  0  0  0  0  0  0
    0.4341   -0.2284    0.9927 C   0  0  0  0  0  0  0  0  0  0  0  0
    1.6291   -0.1572    1.2483 O   0  0  0  0  0  0  0  0  0  0  0  0
   -0.4717    0.3912    1.8355 N   0  0  0  0  0  0  0  0  0  0  0  0
   -1.4525    0.2274    1.6330 H   0  0  0  0  0  0  0  0  0  0  0  0
   -0.1065    0.8896    3.1555 C   0  0  0  0  0  0  0  0  0  0  0  0
    0.6857    1.6416    3.0772 H   0  0  0  0  0  0  0  0  0  0  0  0
   -0.9727    1.3525    3.6378 H   0  0  0  0  0  0  0  0  0  0  0  0
    0.2477    0.0689    3.7882 H   0  0  0  0  0  0  0  0  0  0  0  0
  1  2  1  0  0  0  0
  2  3  1  0  0  0  0
  2  4  1  0  0  0  0
  2  5  1  0  0  0  0
  5  6  2  0  0  0  0
  5  7  1  0  0  0  0
  7  8  1  0  0  0  0
  7  9  1  0  0  0  0
  9 10  1  0  0  0  0
  9 11  1  0  0  0  0
  9 22  1  0  0  0  0
 11 12  1  0  0  0  0
 11 13  1  0  0  0  0
 11 14  1  0  0  0  0
 14 15  1  0  0  0  0
 14 20  2  0  0  0  0
 15 16  1  0  0  0  0
 15 17  1  0  0  0  0
 17 18  1  0  0  0  0
 17 19  2  0  0  0  0
 19 20  1  0  0  0  0
 20 21  1  0  0  0  0
 22 23  2  0  0  0  0
 22 24  1  0  0  0  0
 24 25  1  0  0  0  0
 24 26  1  0  0  0  0
 26 27  1  0  0  0  0
 26 28  1  0  0  0  0
 26 29  1  0  0  0  0
M  END
$$$$

  -OEChem-03222214043D

 29 29  0     1  0  0  0  0  0999 V2000
   -2.9920   -4.1017    0.7654 H   0  0  0  0  0  0  0  0  0  0  0  0
   -2.9512   -3.1861    0.1685 C   0  0  0  0  0  0  0  0  0  0  0  0
   -3.7068   -2.4898    0.5401 H   0  0  0  0  0  0  0  0  0  0  0  0
   -3.1735   -3.4348   -0.8718 H   0  0  0  0  0  0  0  0  0  0  0  0
   -1.5737   -2.5592    0.2690 C   0  0  0  0  0  0  0  0  0  0  0  0
   -0.7193   -3.0748    0.9668 O   0  0  0  0  0  0  0  0  0  0  0  0
   -1.2957   -1.3998   -0.4257 N   0  0  0  0  0  0  0  0  0  0  0  0
   -2.0368   -1.0130   -1.0064 H   0  0  0  0  0  0  0  0  0  0  0  0
    0.0055   -0.6994   -0.4151 C   0  0  1  0  0  0  0  0  0  0  0  0
    0.7696   -1.4094   -0.7506 H   0  0  0  0  0  0  0  0  0  0  0  0
    0.0207    0.5075   -1.3872 C   0  0  0  0  0  0  0  0  0  0  0  0
    0.5182    1.3629   -0.9154 H   0  0  0  0  0  0  0  0  0  0  0  0
    0.6195    0.2434   -2.2645 H   0  0  0  0  0  0  0  0  0  0  0  0
   -1.3537    0.9306   -1.8503 C   0  0  0  0  0  0  0  0  0  0  0  0
   -1.9313    0.7105   -3.0813 N   0  0  0  0  0  0  0  0  0  0  0  0
   -1.4984    0.2460   -3.8781 H   0  0  0  0  0  0  0  0  0  0  0  0
   -3.1906    1.2812   -3.0782 C   0  0  0  0  0  0  0  0  0  0  0  0
   -3.8859    1.2691   -3.9129 H   0  0  0  0  0  0  0  0  0  0  0  0
   -3.4278    1.8353   -1.9133 N   0  0  0  0  0  0  0  0  0  0  0  0
   -2.2822    1.6526   -1.1478 C   0  0  0  0  0  0  0  0  0  0  0  0
   -2.1490    2.0170   -0.1334 H   0  0  0  0  0  0  0  0  0  0  0  0
    0.4401   -0.2330    0.9911 C   0  0  0  0  0  0  0  0  0  0  0  0
    1.6317   -0.1677    1.2632 O   0  0  0  0  0  0  0  0  0  0  0  0
   -0.4752    0.3844    1.8256 N   0  0  0  0  0  0  0  0  0  0  0  0
   -1.4545    0.2390    1.6020 H   0  0  0  0  0  0  0  0  0  0  0  0
   -0.1275    0.8822    3.1507 C   0  0  0  0  0  0  0  0  0  0  0  0
    0.6653    1.6347    3.0834 H   0  0  0  0  0  0  0  0  0  0  0  0
   -1.0001    1.3442    3.6222 H   0  0  0  0  0  0  0  0  0  0  0  0
    0.2189    0.0616    3.7877 H   0  0  0  0  0  0  0  0  0  0  0  0
  1  2  1  0  0  0  0
  2  3  1  0  0  0  0
  2  4  1  0  0  0  0
  2  5  1  0  0  0  0
  5  6  2  0  0  0  0
  5  7  1  0  0  0  0
  7  8  1  0  0  0  0
  7  9  1  0  0  0  0
  9 10  1  0  0  0  0
  9 11  1  0  0  0  0
  9 22  1  0  0  0  0
 11 12  1  0  0  0  0
 11 13  1  0  0  0  0
 11 14  1  0  0  0  0
 14 15  1  0  0  0  0
 14 20  2  0  0  0  0
 15 16  1  0  0  0  0
 15 17  1  0  0  0  0
 17 18  1  0  0  0  0
 17 19  2  0  0  0  0
 19 20  1  0  0  0  0
 20 21  1  0  0  0  0
 22 23  2  0  0  0  0
 22 24  1  0  0  0  0
 24 25  1  0  0  0  0
 24 26  1  0  0  0  0
 26 27  1  0  0  0  0
 26 28  1  0  0  0  0
 26 29  1  0  0  0  0
M  END
$$$$

  -OEChem-03222214043D

 29 29  0     1  0  0  0  0  0999 V2000
   -2.9935   -4.0795    0.7927 H   0  0  0  0  0  0  0  0  0  0  0  0
   -2.9529   -3.1659    0.1924 C   0  0  0  0  0  0  0  0  0  0  0  0
   -3.6846   -2.4547    0.5830 H   0  0  0  0  0  0  0  0  0  0  0  0
   -3.2087   -3.4123   -0.8408 H   0  0  0  0  0  0  0  0  0  0  0  0
   -1.5613   -2.5656    0.2532 C   0  0  0  0  0  0  0  0  0  0  0  0
   -0.6920   -3.1086    0.9101 O   0  0  0  0  0  0  0  0  0  0  0  0
   -1.2851   -1.4028   -0.4360 N   0  0  0  0  0  0  0  0  0  0  0  0
   -2.0465   -0.9739   -0.9575 H   0  0  0  0  0  0  0  0  0  0  0  0
    0.0142   -0.6998   -0.4200 C   0  0  1  0  0  0  0  0  0  0  0  0
    0.7819   -1.4038   -0.7595 H   0  0  0  0  0  0  0  0  0  0  0  0
    0.0242    0.5152   -1.3816 C   0  0  0  0  0  0  0  0  0  0  0  0
    0.5194    1.3675   -0.9016 H   0  0  0  0  0  0  0  0  0  0  0  0
    0.6217    0.2633   -2.2634 H   0  0  0  0  0  0  0  0  0  0  0  0
   -1.3537    0.9346   -1.8373 C   0  0  0  0  0  0  0  0  0  0  0  0
   -2.0442    0.4915   -2.9444 N   0  0  0  0  0  0  0  0  0  0  0  0
   -1.7013   -0.1589   -3.6498 H   0  0  0  0  0  0  0  0  0  0  0  0
   -3.2596    1.1489   -2.9892 C   0  0  0  0  0  0  0  0  0  0  0  0
   -4.0186    1.0110   -3.7544 H   0  0  0  0  0  0  0  0  0  0  0  0
   -3.3662    1.9616   -1.9657 N   0  0  0  0  0  0  0  0  0  0  0  0
   -2.1766    1.8606   -1.2531 C   0  0  0  0  0  0  0  0  0  0  0  0
   -1.9397    2.4250   -0.3558 H   0  0  0  0  0  0  0  0  0  0  0  0
    0.4422   -0.2399    0.9900 C   0  0  0  0  0  0  0  0  0  0  0  0
    1.6316   -0.1807    1.2720 O   0  0  0  0  0  0  0  0  0  0  0  0
   -0.4784    0.3711    1.8234 N   0  0  0  0  0  0  0  0  0  0  0  0
   -1.4567    0.2540    1.5797 H   0  0  0  0  0  0  0  0  0  0  0  0
   -0.1395    0.8736    3.1487 C   0  0  0  0  0  0  0  0  0  0  0  0
    0.6505    1.6292    3.0829 H   0  0  0  0  0  0  0  0  0  0  0  0
   -1.0163    1.3333    3.6146 H   0  0  0  0  0  0  0  0  0  0  0  0
    0.2072    0.0561    3.7895 H   0  0  0  0  0  0  0  0  0  0  0  0
  1  2  1  0  0  0  0
  2  3  1  0  0  0  0
  2  4  1  0  0  0  0
  2  5  1  0  0  0  0
  5  6  2  0  0  0  0
  5  7  1  0  0  0  0
  7  8  1  0  0  0  0
  7  9  1  0  0  0  0
  9 10  1  0  0  0  0
  9 11  1  0  0  0  0
  9 22  1  0  0  0  0
 11 12  1  0  0  0  0
 11 13  1  0  0  0  0
 11 14  1  0  0  0  0
 14 15  1  0  0  0  0
 14 20  2  0  0  0  0
 15 16  1  0  0  0  0
 15 17  1  0  0  0  0
 17 18  1  0  0  0  0
 17 19  2  0  0  0  0
 19 20  1  0  0  0  0
 20 21  1  0  0  0  0
 22 23  2  0  0  0  0
 22 24  1  0  0  0  0
 24 25  1  0  0  0  0
 24 26  1  0  0  0  0
 26 27  1  0  0  0  0
 26 28  1  0  0  0  0
 26 29  1  0  0  0  0
M  END
$$$$

  -OEChem-03222214043D

 29 29  0     1  0  0  0  0  0999 V2000
   -2.9777   -4.0736    0.8378 H   0  0  0  0  0  0  0  0  0  0  0  0
   -2.9452   -3.1621    0.2341 C   0  0  0  0  0  0  0  0  0  0  0  0
   -3.6533   -2.4407    0.6485 H   0  0  0  0  0  0  0  0  0  0  0  0
   -3.2399   -3.4076   -0.7889 H   0  0  0  0  0  0  0  0  0  0  0  0
   -1.5443   -2.5806    0.2448 C   0  0  0  0  0  0  0  0  0  0  0  0
   -0.6563   -3.1439    0.8580 O   0  0  0  0  0  0  0  0  0  0  0  0
   -1.2807   -1.4127   -0.4412 N   0  0  0  0  0  0  0  0  0  0  0  0
   -2.0641   -0.9488   -0.8955 H   0  0  0  0  0  0  0  0  0  0  0  0
    0.0135   -0.7017   -0.4235 C   0  0  1  0  0  0  0  0  0  0  0  0
    0.7854   -1.3995   -0.7667 H   0  0  0  0  0  0  0  0  0  0  0  0
    0.0200    0.5210   -1.3764 C   0  0  0  0  0  0  0  0  0  0  0  0
    0.5201    1.3685   -0.8929 H   0  0  0  0  0  0  0  0  0  0  0  0
    0.6168    0.2713   -2.2594 H   0  0  0  0  0  0  0  0  0  0  0  0
   -1.3535    0.9515   -1.8400 C   0  0  0  0  0  0  0  0  0  0  0  0
   -2.1595    0.3390   -2.7772 N   0  0  0  0  0  0  0  0  0  0  0  0
   -1.9091   -0.4618   -3.3557 H   0  0  0  0  0  0  0  0  0  0  0  0
   -3.3252    1.0732   -2.8946 C   0  0  0  0  0  0  0  0  0  0  0  0
   -4.1463    0.8430   -3.5678 H   0  0  0  0  0  0  0  0  0  0  0  0
   -3.2973    2.0898   -2.0675 N   0  0  0  0  0  0  0  0  0  0  0  0
   -2.0682    2.0413   -1.4186 C   0  0  0  0  0  0  0  0  0  0  0  0
   -1.7300    2.7580   -0.6757 H   0  0  0  0  0  0  0  0  0  0  0  0
    0.4384   -0.2464    0.9891 C   0  0  0  0  0  0  0  0  0  0  0  0
    1.6266   -0.1900    1.2759 O   0  0  0  0  0  0  0  0  0  0  0  0
   -0.4851    0.3547    1.8267 N   0  0  0  0  0  0  0  0  0  0  0  0
   -1.4624    0.2640    1.5689 H   0  0  0  0  0  0  0  0  0  0  0  0
   -0.1487    0.8629    3.1505 C   0  0  0  0  0  0  0  0  0  0  0  0
    0.6349    1.6247    3.0816 H   0  0  0  0  0  0  0  0  0  0  0  0
   -1.0287    1.3162    3.6167 H   0  0  0  0  0  0  0  0  0  0  0  0
    0.2053    0.0496    3.7926 H   0  0  0  0  0  0  0  0  0  0  0  0
  1  2  1  0  0  0  0
  2  3  1  0  0  0  0
  2  4  1  0  0  0  0
  2  5  1  0  0  0  0
  5  6  2  0  0  0  0
  5  7  1  0  0  0  0
  7  8  1  0  0  0  0
  7  9  1  0  0  0  0
  9 10  1  0  0  0  0
  9 11  1  0  0  0  0
  9 22  1  0  0  0  0
 11 12  1  0  0  0  0
 11 13  1  0  0  0  0
 11 14  1  0  0  0  0
 14 15  1  0  0  0  0
 14 20  2  0  0  0  0
 15 16  1  0  0  0  0
 15 17  1  0  0  0  0
 17 18  1  0  0  0  0
 17 19  2  0  0  0  0
 19 20  1  0  0  0  0
 20 21  1  0  0  0  0
 22 23  2  0  0  0  0
 22 24  1  0  0  0  0
 24 25  1  0  0  0  0
 24 26  1  0  0  0  0
 26 27  1  0  0  0  0
 26 28  1  0  0  0  0
 26 29  1  0  0  0  0
M  END
$$$$

  -OEChem-03222214043D

 29 29  0     1  0  0  0  0  0999 V2000
   -2.9310   -4.0955    0.9007 H   0  0  0  0  0  0  0  0  0  0  0  0
   -2.9211   -3.1837    0.2965 C   0  0  0  0  0  0  0  0  0  0  0  0
   -3.6076   -2.4596    0.7418 H   0  0  0  0  0  0  0  0  0  0  0  0
   -3.2605   -3.4275   -0.7129 H   0  0  0  0  0  0  0  0  0  0  0  0
   -1.5185   -2.6083    0.2467 C   0  0  0  0  0  0  0  0  0  0  0  0
   -0.6050   -3.1830    0.8096 O   0  0  0  0  0  0  0  0  0  0  0  0
   -1.2830   -1.4329   -0.4377 N   0  0  0  0  0  0  0  0  0  0  0  0
   -2.0920   -0.9405   -0.8079 H   0  0  0  0  0  0  0  0  0  0  0  0
    0.0002   -0.7048   -0.4228 C   0  0  1  0  0  0  0  0  0  0  0  0
    0.7785   -1.3946   -0.7681 H   0  0  0  0  0  0  0  0  0  0  0  0
    0.0044    0.5209   -1.3736 C   0  0  0  0  0  0  0  0  0  0  0  0
    0.5111    1.3648   -0.8909 H   0  0  0  0  0  0  0  0  0  0  0  0
    0.6040    0.2626   -2.2523 H   0  0  0  0  0  0  0  0  0  0  0  0
   -1.3557    0.9720   -1.8648 C   0  0  0  0  0  0  0  0  0  0  0  0
   -2.2857    0.2643   -2.6007 N   0  0  0  0  0  0  0  0  0  0  0  0
   -2.1390   -0.6462   -3.0347 H   0  0  0  0  0  0  0  0  0  0  0  0
   -3.3873    1.0738   -2.8074 C   0  0  0  0  0  0  0  0  0  0  0  0
   -4.2710    0.7970   -3.3756 H   0  0  0  0  0  0  0  0  0  0  0  0
   -3.2104    2.2287   -2.2147 N   0  0  0  0  0  0  0  0  0  0  0  0
   -1.9467    2.1870   -1.6358 C   0  0  0  0  0  0  0  0  0  0  0  0
   -1.4973    2.9996   -1.0725 H   0  0  0  0  0  0  0  0  0  0  0  0
    0.4253   -0.2511    0.9905 C   0  0  0  0  0  0  0  0  0  0  0  0
    1.6135   -0.1906    1.2762 O   0  0  0  0  0  0  0  0  0  0  0  0
   -0.4995    0.3330    1.8384 N   0  0  0  0  0  0  0  0  0  0  0  0
   -1.4758    0.2728    1.5691 H   0  0  0  0  0  0  0  0  0  0  0  0
   -0.1588    0.8502    3.1577 C   0  0  0  0  0  0  0  0  0  0  0  0
    0.5965    1.6390    3.0771 H   0  0  0  0  0  0  0  0  0  0  0  0
   -1.0458    1.2710    3.6404 H   0  0  0  0  0  0  0  0  0  0  0  0
    0.2347    0.0489    3.7920 H   0  0  0  0  0  0  0  0  0  0  0  0
  1  2  1  0  0  0  0
  2  3  1  0  0  0  0
  2  4  1  0  0  0  0
  2  5  1  0  0  0  0
  5  6  2  0  0  0  0
  5  7  1  0  0  0  0
  7  8  1  0  0  0  0
  7  9  1  0  0  0  0
  9 10  1  0  0  0  0
  9 11  1  0  0  0  0
  9 22  1  0  0  0  0
 11 12  1  0  0  0  0
 11 13  1  0  0  0  0
 11 14  1  0  0  0  0
 14 15  1  0  0  0  0
 14 20  2  0  0  0  0
 15 16  1  0  0  0  0
 15 17  1  0  0  0  0
 17 18  1  0  0  0  0
 17 19  2  0  0  0  0
 19 20  1  0  0  0  0
 20 21  1  0  0  0  0
 22 23  2  0  0  0  0
 22 24  1  0  0  0  0
 24 25  1  0  0  0  0
 24 26  1  0  0  0  0
 26 27  1  0  0  0  0
 26 28  1  0  0  0  0
 26 29  1  0  0  0  0
M  END
$$$$

  -OEChem-03222214043D

 29 29  0     1  0  0  0  0  0999 V2000
   -2.8558   -4.1325    0.9793 H   0  0  0  0  0  0  0  0  0  0  0  0
   -2.8797   -3.2213    0.3745 C   0  0  0  0  0  0  0  0  0  0  0  0
   -3.5439   -2.4991    0.8551 H   0  0  0  0  0  0  0  0  0  0  0  0
   -3.2715   -3.4674   -0.6152 H   0  0  0  0  0  0  0  0  0  0  0  0
   -1.4827   -2.6431    0.2502 C   0  0  0  0  0  0  0  0  0  0  0  0
   -0.5389   -3.2233    0.7543 O   0  0  0  0  0  0  0  0  0  0  0  0
   -1.2875   -1.4595   -0.4339 N   0  0  0  0  0  0  0  0  0  0  0  0
   -2.1217   -0.9473   -0.7059 H   0  0  0  0  0  0  0  0  0  0  0  0
   -0.0187   -0.7075   -0.4249 C   0  0  1  0  0  0  0  0  0  0  0  0
    0.7676   -1.3880   -0.7717 H   0  0  0  0  0  0  0  0  0  0  0  0
   -0.0178    0.5192   -1.3763 C   0  0  0  0  0  0  0  0  0  0  0  0
    0.4945    1.3608   -0.8954 H   0  0  0  0  0  0  0  0  0  0  0  0
    0.5870    0.2505   -2.2484 H   0  0  0  0  0  0  0  0  0  0  0  0
   -1.3618    0.9909   -1.9009 C   0  0  0  0  0  0  0  0  0  0  0  0
   -2.4186    0.2668   -2.4197 N   0  0  0  0  0  0  0  0  0  0  0  0
   -2.3857   -0.7106   -2.7065 H   0  0  0  0  0  0  0  0  0  0  0  0
   -3.4474    1.1411   -2.7179 C   0  0  0  0  0  0  0  0  0  0  0  0
   -4.3952    0.8634   -3.1704 H   0  0  0  0  0  0  0  0  0  0  0  0
   -3.1107    2.3597   -2.3777 N   0  0  0  0  0  0  0  0  0  0  0  0
   -1.8170    2.2842   -1.8741 C   0  0  0  0  0  0  0  0  0  0  0  0
   -1.2518    3.1324   -1.4990 H   0  0  0  0  0  0  0  0  0  0  0  0
    0.4079   -0.2541    0.9886 C   0  0  0  0  0  0  0  0  0  0  0  0
    1.5963   -0.1832    1.2703 O   0  0  0  0  0  0  0  0  0  0  0  0
   -0.5196    0.3077    1.8489 N   0  0  0  0  0  0  0  0  0  0  0  0
   -1.4948    0.2692    1.5722 H   0  0  0  0  0  0  0  0  0  0  0  0
   -0.1747    0.8369    3.1624 C   0  0  0  0  0  0  0  0  0  0  0  0
    0.5505    1.6521    3.0689 H   0  0  0  0  0  0  0  0  0  0  0  0
   -1.0678    1.2254    3.6609 H   0  0  0  0  0  0  0  0  0  0  0  0
    0.2581    0.0504    3.7895 H   0  0  0  0  0  0  0  0  0  0  0  0
  1  2  1  0  0  0  0
  2  3  1  0  0  0  0
  2  4  1  0  0  0  0
  2  5  1  0  0  0  0
  5  6  2  0  0  0  0
  5  7  1  0  0  0  0
  7  8  1  0  0  0  0
  7  9  1  0  0  0  0
  9 10  1  0  0  0  0
  9 11  1  0  0  0  0
  9 22  1  0  0  0  0
 11 12  1  0  0  0  0
 11 13  1  0  0  0  0
 11 14  1  0  0  0  0
 14 15  1  0  0  0  0
 14 20  2  0  0  0  0
 15 16  1  0  0  0  0
 15 17  1  0  0  0  0
 17 18  1  0  0  0  0
 17 19  2  0  0  0  0
 19 20  1  0  0  0  0
 20 21  1  0  0  0  0
 22 23  2  0  0  0  0
 22 24  1  0  0  0  0
 24 25  1  0  0  0  0
 24 26  1  0  0  0  0
 26 27  1  0  0  0  0
 26 28  1  0  0  0  0
 26 29  1  0  0  0  0
M  END
$$$$

  -OEChem-03222214043D

 29 29  0     1  0  0  0  0  0999 V2000
   -2.7720   -4.1733    1.0476 H   0  0  0  0  0  0  0  0  0  0  0  0
   -2.8320   -3.2618    0.4459 C   0  0  0  0  0  0  0  0  0  0  0  0
   -3.4744   -2.5439    0.9612 H   0  0  0  0  0  0  0  0  0  0  0  0
   -3.2728   -3.5092   -0.5226 H   0  0  0  0  0  0  0  0  0  0  0  0
   -1.4460   -2.6768    0.2512 C   0  0  0  0  0  0  0  0  0  0  0  0
   -0.4743   -3.2587    0.6965 O   0  0  0  0  0  0  0  0  0  0  0  0
   -1.2942   -1.4841   -0.4290 N   0  0  0  0  0  0  0  0  0  0  0  0
   -2.1460   -0.9636   -0.6098 H   0  0  0  0  0  0  0  0  0  0  0  0
   -0.0405   -0.7083   -0.4268 C   0  0  1  0  0  0  0  0  0  0  0  0
    0.7526   -1.3779   -0.7798 H   0  0  0  0  0  0  0  0  0  0  0  0
   -0.0496    0.5189   -1.3786 C   0  0  0  0  0  0  0  0  0  0  0  0
    0.4640    1.3601   -0.8985 H   0  0  0  0  0  0  0  0  0  0  0  0
    0.5602    0.2450   -2.2456 H   0  0  0  0  0  0  0  0  0  0  0  0
   -1.3814    1.0042   -1.9287 C   0  0  0  0  0  0  0  0  0  0  0  0
   -2.5537    0.3330   -2.2258 N   0  0  0  0  0  0  0  0  0  0  0  0
   -2.6396   -0.6725   -2.3628 H   0  0  0  0  0  0  0  0  0  0  0  0
   -3.5024    1.2553   -2.6271 C   0  0  0  0  0  0  0  0  0  0  0  0
   -4.5072    1.0150   -2.9632 H   0  0  0  0  0  0  0  0  0  0  0  0
   -3.0102    2.4654   -2.5528 N   0  0  0  0  0  0  0  0  0  0  0  0
   -1.6968    2.3257   -2.1206 C   0  0  0  0  0  0  0  0  0  0  0  0
   -1.0174    3.1547   -1.9452 H   0  0  0  0  0  0  0  0  0  0  0  0
    0.3938   -0.2580    0.9857 C   0  0  0  0  0  0  0  0  0  0  0  0
    1.5834   -0.1758    1.2586 O   0  0  0  0  0  0  0  0  0  0  0  0
   -0.5326    0.2798    1.8627 N   0  0  0  0  0  0  0  0  0  0  0  0
   -1.5066    0.2653    1.5812 H   0  0  0  0  0  0  0  0  0  0  0  0
   -0.1796    0.8217    3.1692 C   0  0  0  0  0  0  0  0  0  0  0  0
    0.5129    1.6630    3.0610 H   0  0  0  0  0  0  0  0  0  0  0  0
   -1.0760    1.1762    3.6869 H   0  0  0  0  0  0  0  0  0  0  0  0
    0.2949    0.0515    3.7868 H   0  0  0  0  0  0  0  0  0  0  0  0
  1  2  1  0  0  0  0
  2  3  1  0  0  0  0
  2  4  1  0  0  0  0
  2  5  1  0  0  0  0
  5  6  2  0  0  0  0
  5  7  1  0  0  0  0
  7  8  1  0  0  0  0
  7  9  1  0  0  0  0
  9 10  1  0  0  0  0
  9 11  1  0  0  0  0
  9 22  1  0  0  0  0
 11 12  1  0  0  0  0
 11 13  1  0  0  0  0
 11 14  1  0  0  0  0
 14 15  1  0  0  0  0
 14 20  2  0  0  0  0
 15 16  1  0  0  0  0
 15 17  1  0  0  0  0
 17 18  1  0  0  0  0
 17 19  2  0  0  0  0
 19 20  1  0  0  0  0
 20 21  1  0  0  0  0
 22 23  2  0  0  0  0
 22 24  1  0  0  0  0
 24 25  1  0  0  0  0
 24 26  1  0  0  0  0
 26 27  1  0  0  0  0
 26 28  1  0  0  0  0
 26 29  1  0  0  0  0
M  END
$$$$

  -OEChem-03222214043D

 29 29  0     1  0  0  0  0  0999 V2000
   -2.6909   -4.2209    1.0866 H   0  0  0  0  0  0  0  0  0  0  0  0
   -2.7839   -3.3100    0.4880 C   0  0  0  0  0  0  0  0  0  0  0  0
   -3.4215   -2.6030    1.0236 H   0  0  0  0  0  0  0  0  0  0  0  0
   -3.2499   -3.5644   -0.4670 H   0  0  0  0  0  0  0  0  0  0  0  0
   -1.4139   -2.7028    0.2505 C   0  0  0  0  0  0  0  0  0  0  0  0
   -0.4197   -3.2748    0.6574 O   0  0  0  0  0  0  0  0  0  0  0  0
   -1.3032   -1.5008   -0.4227 N   0  0  0  0  0  0  0  0  0  0  0  0
   -2.1665   -0.9846   -0.5359 H   0  0  0  0  0  0  0  0  0  0  0  0
   -0.0634   -0.7032   -0.4315 C   0  0  1  0  0  0  0  0  0  0  0  0
    0.7339   -1.3615   -0.7967 H   0  0  0  0  0  0  0  0  0  0  0  0
   -0.0889    0.5266   -1.3793 C   0  0  0  0  0  0  0  0  0  0  0  0
    0.4225    1.3686   -0.8980 H   0  0  0  0  0  0  0  0  0  0  0  0
    0.5227    0.2565   -2.2464 H   0  0  0  0  0  0  0  0  0  0  0  0
   -1.4153    1.0204   -1.9378 C   0  0  0  0  0  0  0  0  0  0  0  0
   -2.6787    0.4605   -2.0168 N   0  0  0  0  0  0  0  0  0  0  0  0
   -2.8865   -0.5342   -1.9855 H   0  0  0  0  0  0  0  0  0  0  0  0
   -3.5503    1.4058   -2.5262 C   0  0  0  0  0  0  0  0  0  0  0  0
   -4.6013    1.2358   -2.7426 H   0  0  0  0  0  0  0  0  0  0  0  0
   -2.9228    2.5353   -2.7270 N   0  0  0  0  0  0  0  0  0  0  0  0
   -1.6015    2.3128   -2.3615 C   0  0  0  0  0  0  0  0  0  0  0  0
   -0.8228    3.0695   -2.3915 H   0  0  0  0  0  0  0  0  0  0  0  0
    0.3865   -0.2583    0.9781 C   0  0  0  0  0  0  0  0  0  0  0  0
    1.5788   -0.1622    1.2335 O   0  0  0  0  0  0  0  0  0  0  0  0
   -0.5332    0.2555    1.8765 N   0  0  0  0  0  0  0  0  0  0  0  0
   -1.5098    0.2472    1.6049 H   0  0  0  0  0  0  0  0  0  0  0  0
   -0.1629    0.8011    3.1767 C   0  0  0  0  0  0  0  0  0  0  0  0
    0.5052    1.6602    3.0558 H   0  0  0  0  0  0  0  0  0  0  0  0
   -1.0550    1.1304    3.7178 H   0  0  0  0  0  0  0  0  0  0  0  0
    0.3459    0.0409    3.7789 H   0  0  0  0  0  0  0  0  0  0  0  0
  1  2  1  0  0  0  0
  2  3  1  0  0  0  0
  2  4  1  0  0  0  0
  2  5  1  0  0  0  0
  5  6  2  0  0  0  0
  5  7  1  0  0  0  0
  7  8  1  0  0  0  0
  7  9  1  0  0  0  0
  9 10  1  0  0  0  0
  9 11  1  0  0  0  0
  9 22  1  0  0  0  0
 11 12  1  0  0  0  0
 11 13  1  0  0  0  0
 11 14  1  0  0  0  0
 14 15  1  0  0  0  0
 14 20  2  0  0  0  0
 15 16  1  0  0  0  0
 15 17  1  0  0  0  0
 17 18  1  0  0  0  0
 17 19  2  0  0  0  0
 19 20  1  0  0  0  0
 20 21  1  0  0  0  0
 22 23  2  0  0  0  0
 22 24  1  0  0  0  0
 24 25  1  0  0  0  0
 24 26  1  0  0  0  0
 26 27  1  0  0  0  0
 26 28  1  0  0  0  0
 26 29  1  0  0  0  0
M  END
$$$$

  -OEChem-03222214043D

 29 29  0     1  0  0  0  0  0999 V2000
   -2.7371   -4.3694    0.7292 H   0  0  0  0  0  0  0  0  0  0  0  0
   -2.7941   -3.4432    0.1497 C   0  0  0  0  0  0  0  0  0  0  0  0
   -3.7007   -2.9050    0.4358 H   0  0  0  0  0  0  0  0  0  0  0  0
   -2.8465   -3.6980   -0.9115 H   0  0  0  0  0  0  0  0  0  0  0  0
   -1.5728   -2.5847    0.4196 C   0  0  0  0  0  0  0  0  0  0  0  0
   -0.7776   -2.9223    1.2761 O   0  0  0  0  0  0  0  0  0  0  0  0
   -1.3820   -1.4243   -0.3070 N   0  0  0  0  0  0  0  0  0  0  0  0
   -1.9599   -1.3463   -1.1389 H   0  0  0  0  0  0  0  0  0  0  0  0
   -0.0924   -0.7079   -0.3715 C   0  0  1  0  0  0  0  0  0  0  0  0
    0.6598   -1.4094   -0.7491 H   0  0  0  0  0  0  0  0  0  0  0  0
   -0.1237    0.5198   -1.3265 C   0  0  0  0  0  0  0  0  0  0  0  0
    0.4388    1.3464   -0.8763 H   0  0  0  0  0  0  0  0  0  0  0  0
    0.4303    0.2328   -2.2266 H   0  0  0  0  0  0  0  0  0  0  0  0
   -1.4633    1.0716   -1.7930 C   0  0  0  0  0  0  0  0  0  0  0  0
   -2.7743    0.7082   -1.5426 N   0  0  0  0  0  0  0  0  0  0  0  0
   -3.0870    0.0667   -0.8182 H   0  0  0  0  0  0  0  0  0  0  0  0
   -3.6130    1.5353   -2.2658 C   0  0  0  0  0  0  0  0  0  0  0  0
   -4.6986    1.5006   -2.2442 H   0  0  0  0  0  0  0  0  0  0  0  0
   -2.9075    2.3774   -2.9762 N   0  0  0  0  0  0  0  0  0  0  0  0
   -1.5752    2.1019   -2.6929 C   0  0  0  0  0  0  0  0  0  0  0  0
   -0.7339    2.6294   -3.1329 H   0  0  0  0  0  0  0  0  0  0  0  0
    0.4249   -0.2236    1.0032 C   0  0  0  0  0  0  0  0  0  0  0  0
    1.6312   -0.1686    1.2035 O   0  0  0  0  0  0  0  0  0  0  0  0
   -0.4355    0.3917    1.8947 N   0  0  0  0  0  0  0  0  0  0  0  0
   -1.4262    0.2565    1.7264 H   0  0  0  0  0  0  0  0  0  0  0  0
   -0.0060    0.8879    3.1960 C   0  0  0  0  0  0  0  0  0  0  0  0
    0.7822    1.6393    3.0797 H   0  0  0  0  0  0  0  0  0  0  0  0
   -0.8474    1.3510    3.7202 H   0  0  0  0  0  0  0  0  0  0  0  0
    0.3777    0.0664    3.8103 H   0  0  0  0  0  0  0  0  0  0  0  0
  1  2  1  0  0  0  0
  2  3  1  0  0  0  0
  2  4  1  0  0  0  0
  2  5  1  0  0  0  0
  5  6  2  0  0  0  0
  5  7  1  0  0  0  0
  7  8  1  0  0  0  0
  7  9  1  0  0  0  0
  9 10  1  0  0  0  0
  9 11  1  0  0  0  0
  9 22  1  0  0  0  0
 11 12  1  0  0  0  0
 11 13  1  0  0  0  0
 11 14  1  0  0  0  0
 14 15  1  0  0  0  0
 14 20  2  0  0  0  0
 15 16  1  0  0  0  0
 15 17  1  0  0  0  0
 17 18  1  0  0  0  0
 17 19  2  0  0  0  0
 19 20  1  0  0  0  0
 20 21  1  0  0  0  0
 22 23  2  0  0  0  0
 22 24  1  0  0  0  0
 24 25  1  0  0  0  0
 24 26  1  0  0  0  0
 26 27  1  0  0  0  0
 26 28  1  0  0  0  0
 26 29  1  0  0  0  0
M  END
$$$$

  -OEChem-03222214043D

 29 29  0     1  0  0  0  0  0999 V2000
   -2.8199   -4.3010    0.6962 H   0  0  0  0  0  0  0  0  0  0  0  0
   -2.8527   -3.3678    0.1264 C   0  0  0  0  0  0  0  0  0  0  0  0
   -3.7347   -2.8002    0.4317 H   0  0  0  0  0  0  0  0  0  0  0  0
   -2.9315   -3.6102   -0.9361 H   0  0  0  0  0  0  0  0  0  0  0  0
   -1.5967   -2.5564    0.3834 C   0  0  0  0  0  0  0  0  0  0  0  0
   -0.7942   -2.9340    1.2163 O   0  0  0  0  0  0  0  0  0  0  0  0
   -1.3830   -1.3864   -0.3199 N   0  0  0  0  0  0  0  0  0  0  0  0
   -1.9964   -1.2379   -1.1176 H   0  0  0  0  0  0  0  0  0  0  0  0
   -0.0853   -0.6826   -0.3704 C   0  0  1  0  0  0  0  0  0  0  0  0
    0.6573   -1.3926   -0.7515 H   0  0  0  0  0  0  0  0  0  0  0  0
   -0.0970    0.5427   -1.3276 C   0  0  0  0  0  0  0  0  0  0  0  0
    0.4503    1.3696   -0.8602 H   0  0  0  0  0  0  0  0  0  0  0  0
    0.4755    0.2654   -2.2190 H   0  0  0  0  0  0  0  0  0  0  0  0
   -1.4369    1.0873   -1.7975 C   0  0  0  0  0  0  0  0  0  0  0  0
   -2.7265    0.8875   -1.3414 N   0  0  0  0  0  0  0  0  0  0  0  0
   -2.9874    0.4177   -0.4774 H   0  0  0  0  0  0  0  0  0  0  0  0
   -3.6009    1.5842   -2.1541 C   0  0  0  0  0  0  0  0  0  0  0  0
   -4.6780    1.6326   -2.0206 H   0  0  0  0  0  0  0  0  0  0  0  0
   -2.9390    2.1829   -3.1112 N   0  0  0  0  0  0  0  0  0  0  0  0
   -1.5973    1.8842   -2.9029 C   0  0  0  0  0  0  0  0  0  0  0  0
   -0.7862    2.2295   -3.5375 H   0  0  0  0  0  0  0  0  0  0  0  0
    0.4392   -0.2247    1.0099 C   0  0  0  0  0  0  0  0  0  0  0  0
    1.6467   -0.1748    1.2044 O   0  0  0  0  0  0  0  0  0  0  0  0
   -0.4137    0.3866    1.9115 N   0  0  0  0  0  0  0  0  0  0  0  0
   -1.4040    0.2303    1.7625 H   0  0  0  0  0  0  0  0  0  0  0  0
    0.0285    0.8606    3.2169 C   0  0  0  0  0  0  0  0  0  0  0  0
    0.8242    1.6050    3.1063 H   0  0  0  0  0  0  0  0  0  0  0  0
   -0.8045    1.3257    3.7524 H   0  0  0  0  0  0  0  0  0  0  0  0
    0.4069    0.0268    3.8176 H   0  0  0  0  0  0  0  0  0  0  0  0
  1  2  1  0  0  0  0
  2  3  1  0  0  0  0
  2  4  1  0  0  0  0
  2  5  1  0  0  0  0
  5  6  2  0  0  0  0
  5  7  1  0  0  0  0
  7  8  1  0  0  0  0
  7  9  1  0  0  0  0
  9 10  1  0  0  0  0
  9 11  1  0  0  0  0
  9 22  1  0  0  0  0
 11 12  1  0  0  0  0
 11 13  1  0  0  0  0
 11 14  1  0  0  0  0
 14 15  1  0  0  0  0
 14 20  2  0  0  0  0
 15 16  1  0  0  0  0
 15 17  1  0  0  0  0
 17 18  1  0  0  0  0
 17 19  2  0  0  0  0
 19 20  1  0  0  0  0
 20 21  1  0  0  0  0
 22 23  2  0  0  0  0
 22 24  1  0  0  0  0
 24 25  1  0  0  0  0
 24 26  1  0  0  0  0
 26 27  1  0  0  0  0
 26 28  1  0  0  0  0
 26 29  1  0  0  0  0
M  END
$$$$

  -OEChem-03222214043D

 29 29  0     1  0  0  0  0  0999 V2000
   -2.9115   -4.2218    0.6526 H   0  0  0  0  0  0  0  0  0  0  0  0
   -2.9095   -3.2878    0.0834 C   0  0  0  0  0  0  0  0  0  0  0  0
   -3.7711   -2.6886    0.3866 H   0  0  0  0  0  0  0  0  0  0  0  0
   -2.9941   -3.5258   -0.9797 H   0  0  0  0  0  0  0  0  0  0  0  0
   -1.6262   -2.5222    0.3434 C   0  0  0  0  0  0  0  0  0  0  0  0
   -0.8306   -2.9351    1.1664 O   0  0  0  0  0  0  0  0  0  0  0  0
   -1.3794   -1.3478   -0.3392 N   0  0  0  0  0  0  0  0  0  0  0  0
   -2.0199   -1.1276   -1.0988 H   0  0  0  0  0  0  0  0  0  0  0  0
   -0.0726   -0.6606   -0.3678 C   0  0  1  0  0  0  0  0  0  0  0  0
    0.6621   -1.3813   -0.7438 H   0  0  0  0  0  0  0  0  0  0  0  0
   -0.0597    0.5563   -1.3324 C   0  0  0  0  0  0  0  0  0  0  0  0
    0.4735    1.3871   -0.8561 H   0  0  0  0  0  0  0  0  0  0  0  0
    0.5290    0.2782   -2.2128 H   0  0  0  0  0  0  0  0  0  0  0  0
   -1.4009    1.0836   -1.8110 C   0  0  0  0  0  0  0  0  0  0  0  0
   -2.6364    1.0861   -1.1930 N   0  0  0  0  0  0  0  0  0  0  0  0
   -2.8226    0.8242   -0.2275 H   0  0  0  0  0  0  0  0  0  0  0  0
   -3.5630    1.6409   -2.0557 C   0  0  0  0  0  0  0  0  0  0  0  0
   -4.6149    1.7955   -1.8322 H   0  0  0  0  0  0  0  0  0  0  0  0
   -2.9862    1.9537   -3.1886 N   0  0  0  0  0  0  0  0  0  0  0  0
   -1.6443    1.6168   -3.0510 C   0  0  0  0  0  0  0  0  0  0  0  0
   -0.8947    1.7482   -3.8257 H   0  0  0  0  0  0  0  0  0  0  0  0
    0.4485   -0.2238    1.0198 C   0  0  0  0  0  0  0  0  0  0  0  0
    1.6560   -0.1692    1.2129 O   0  0  0  0  0  0  0  0  0  0  0  0
   -0.4035    0.3891    1.9217 N   0  0  0  0  0  0  0  0  0  0  0  0
   -1.3892    0.1902    1.7957 H   0  0  0  0  0  0  0  0  0  0  0  0
    0.0455    0.8515    3.2294 C   0  0  0  0  0  0  0  0  0  0  0  0
    0.8394    1.5981    3.1215 H   0  0  0  0  0  0  0  0  0  0  0  0
   -0.7849    1.3105    3.7742 H   0  0  0  0  0  0  0  0  0  0  0  0
    0.4288    0.0129    3.8204 H   0  0  0  0  0  0  0  0  0  0  0  0
  1  2  1  0  0  0  0
  2  3  1  0  0  0  0
  2  4  1  0  0  0  0
  2  5  1  0  0  0  0
  5  6  2  0  0  0  0
  5  7  1  0  0  0  0
  7  8  1  0  0  0  0
  7  9  1  0  0  0  0
  9 10  1  0  0  0  0
  9 11  1  0  0  0  0
  9 22  1  0  0  0  0
 11 12  1  0  0  0  0
 11 13  1  0  0  0  0
 11 14  1  0  0  0  0
 14 15  1  0  0  0  0
 14 20  2  0  0  0  0
 15 16  1  0  0  0  0
 15 17  1  0  0  0  0
 17 18  1  0  0  0  0
 17 19  2  0  0  0  0
 19 20  1  0  0  0  0
 20 21  1  0  0  0  0
 22 23  2  0  0  0  0
 22 24  1  0  0  0  0
 24 25  1  0  0  0  0
 24 26  1  0  0  0  0
 26 27  1  0  0  0  0
 26 28  1  0  0  0  0
 26 29  1  0  0  0  0
M  END
$$$$

  -OEChem-03222214043D

 29 29  0     1  0  0  0  0  0999 V2000
   -2.9890   -4.1414    0.6302 H   0  0  0  0  0  0  0  0  0  0  0  0
   -2.9561   -3.2078    0.0615 C   0  0  0  0  0  0  0  0  0  0  0  0
   -3.7849   -2.5715    0.3801 H   0  0  0  0  0  0  0  0  0  0  0  0
   -3.0698   -3.4402   -1.0002 H   0  0  0  0  0  0  0  0  0  0  0  0
   -1.6362   -2.4994    0.2990 C   0  0  0  0  0  0  0  0  0  0  0  0
   -0.8393   -2.9507    1.1010 O   0  0  0  0  0  0  0  0  0  0  0  0
   -1.3570   -1.3281   -0.3750 N   0  0  0  0  0  0  0  0  0  0  0  0
   -2.0216   -1.0419   -1.0912 H   0  0  0  0  0  0  0  0  0  0  0  0
   -0.0427   -0.6546   -0.3815 C   0  0  1  0  0  0  0  0  0  0  0  0
    0.6916   -1.3821   -0.7450 H   0  0  0  0  0  0  0  0  0  0  0  0
   -0.0078    0.5583   -1.3477 C   0  0  0  0  0  0  0  0  0  0  0  0
    0.5210    1.3916   -0.8712 H   0  0  0  0  0  0  0  0  0  0  0  0
    0.5849    0.2751   -2.2238 H   0  0  0  0  0  0  0  0  0  0  0  0
   -1.3546    1.0634   -1.8248 C   0  0  0  0  0  0  0  0  0  0  0  0
   -2.5024    1.2919   -1.0933 N   0  0  0  0  0  0  0  0  0  0  0  0
   -2.5810    1.2663   -0.0790 H   0  0  0  0  0  0  0  0  0  0  0  0
   -3.4963    1.7148   -1.9556 C   0  0  0  0  0  0  0  0  0  0  0  0
   -4.5046    1.9933   -1.6621 H   0  0  0  0  0  0  0  0  0  0  0  0
   -3.0445    1.7292   -3.1850 N   0  0  0  0  0  0  0  0  0  0  0  0
   -1.7125    1.3350   -3.1199 C   0  0  0  0  0  0  0  0  0  0  0  0
   -1.0532    1.2426   -3.9782 H   0  0  0  0  0  0  0  0  0  0  0  0
    0.4531   -0.2271    1.0172 C   0  0  0  0  0  0  0  0  0  0  0  0
    1.6566   -0.1630    1.2303 O   0  0  0  0  0  0  0  0  0  0  0  0
   -0.4180    0.3908    1.8976 N   0  0  0  0  0  0  0  0  0  0  0  0
   -1.3953    0.1546    1.7691 H   0  0  0  0  0  0  0  0  0  0  0  0
    0.0071    0.8570    3.2123 C   0  0  0  0  0  0  0  0  0  0  0  0
    0.8025    1.6038    3.1169 H   0  0  0  0  0  0  0  0  0  0  0  0
   -0.8334    1.3170    3.7404 H   0  0  0  0  0  0  0  0  0  0  0  0
    0.3803    0.0205    3.8126 H   0  0  0  0  0  0  0  0  0  0  0  0
  1  2  1  0  0  0  0
  2  3  1  0  0  0  0
  2  4  1  0  0  0  0
  2  5  1  0  0  0  0
  5  6  2  0  0  0  0
  5  7  1  0  0  0  0
  7  8  1  0  0  0  0
  7  9  1  0  0  0  0
  9 10  1  0  0  0  0
  9 11  1  0  0  0  0
  9 22  1  0  0  0  0
 11 12  1  0  0  0  0
 11 13  1  0  0  0  0
 11 14  1  0  0  0  0
 14 15  1  0  0  0  0
 14 20  2  0  0  0  0
 15 16  1  0  0  0  0
 15 17  1  0  0  0  0
 17 18  1  0  0  0  0
 17 19  2  0  0  0  0
 19 20  1  0  0  0  0
 20 21  1  0  0  0  0
 22 23  2  0  0  0  0
 22 24  1  0  0  0  0
 24 25  1  0  0  0  0
 24 26  1  0  0  0  0
 26 27  1  0  0  0  0
 26 28  1  0  0  0  0
 26 29  1  0  0  0  0
M  END
$$$$

  -OEChem-03222214043D

 29 29  0     1  0  0  0  0  0999 V2000
   -3.0393   -4.0833    0.6272 H   0  0  0  0  0  0  0  0  0  0  0  0
   -2.9817   -3.1554    0.0509 C   0  0  0  0  0  0  0  0  0  0  0  0
   -3.7877   -2.4910    0.3710 H   0  0  0  0  0  0  0  0  0  0  0  0
   -3.1116   -3.3917   -1.0080 H   0  0  0  0  0  0  0  0  0  0  0  0
   -1.6382   -2.4868    0.2716 C   0  0  0  0  0  0  0  0  0  0  0  0
   -0.8446   -2.9600    1.0644 O   0  0  0  0  0  0  0  0  0  0  0  0
   -1.3319   -1.3260   -0.4081 N   0  0  0  0  0  0  0  0  0  0  0  0
   -2.0096   -1.0011   -1.0950 H   0  0  0  0  0  0  0  0  0  0  0  0
   -0.0121   -0.6612   -0.3985 C   0  0  1  0  0  0  0  0  0  0  0  0
    0.7278   -1.3911   -0.7453 H   0  0  0  0  0  0  0  0  0  0  0  0
    0.0360    0.5501   -1.3645 C   0  0  0  0  0  0  0  0  0  0  0  0
    0.5669    1.3868   -0.8965 H   0  0  0  0  0  0  0  0  0  0  0  0
    0.6232    0.2590   -2.2418 H   0  0  0  0  0  0  0  0  0  0  0  0
   -1.3185    1.0319   -1.8333 C   0  0  0  0  0  0  0  0  0  0  0  0
   -2.3567    1.5026   -1.0576 N   0  0  0  0  0  0  0  0  0  0  0  0
   -2.3214    1.6897   -0.0572 H   0  0  0  0  0  0  0  0  0  0  0  0
   -3.4160    1.8135   -1.8893 C   0  0  0  0  0  0  0  0  0  0  0  0
   -4.3678    2.2247   -1.5649 H   0  0  0  0  0  0  0  0  0  0  0  0
   -3.1045    1.5357   -3.1320 N   0  0  0  0  0  0  0  0  0  0  0  0
   -1.7967    1.0631   -3.1168 C   0  0  0  0  0  0  0  0  0  0  0  0
   -1.2413    0.7491   -3.9956 H   0  0  0  0  0  0  0  0  0  0  0  0
    0.4527   -0.2243    1.0072 C   0  0  0  0  0  0  0  0  0  0  0  0
    1.6507   -0.1576    1.2493 O   0  0  0  0  0  0  0  0  0  0  0  0
   -0.4394    0.4064    1.8573 N   0  0  0  0  0  0  0  0  0  0  0  0
   -1.4128    0.1651    1.7062 H   0  0  0  0  0  0  0  0  0  0  0  0
   -0.0467    0.8757    3.1809 C   0  0  0  0  0  0  0  0  0  0  0  0
    0.7524    1.6206    3.1030 H   0  0  0  0  0  0  0  0  0  0  0  0
   -0.8991    1.3385    3.6870 H   0  0  0  0  0  0  0  0  0  0  0  0
    0.3099    0.0399    3.7925 H   0  0  0  0  0  0  0  0  0  0  0  0
  1  2  1  0  0  0  0
  2  3  1  0  0  0  0
  2  4  1  0  0  0  0
  2  5  1  0  0  0  0
  5  6  2  0  0  0  0
  5  7  1  0  0  0  0
  7  8  1  0  0  0  0
  7  9  1  0  0  0  0
  9 10  1  0  0  0  0
  9 11  1  0  0  0  0
  9 22  1  0  0  0  0
 11 12  1  0  0  0  0
 11 13  1  0  0  0  0
 11 14  1  0  0  0  0
 14 15  1  0  0  0  0
 14 20  2  0  0  0  0
 15 16  1  0  0  0  0
 15 17  1  0  0  0  0
 17 18  1  0  0  0  0
 17 19  2  0  0  0  0
 19 20  1  0  0  0  0
 20 21  1  0  0  0  0
 22 23  2  0  0  0  0
 22 24  1  0  0  0  0
 24 25  1  0  0  0  0
 24 26  1  0  0  0  0
 26 27  1  0  0  0  0
 26 28  1  0  0  0  0
 26 29  1  0  0  0  0
M  END
$$$$

  -OEChem-03222214043D

 29 29  0     1  0  0  0  0  0999 V2000
   -3.0430   -4.0619    0.6564 H   0  0  0  0  0  0  0  0  0  0  0  0
   -2.9853   -3.1337    0.0806 C   0  0  0  0  0  0  0  0  0  0  0  0
   -3.7670   -2.4539    0.4278 H   0  0  0  0  0  0  0  0  0  0  0  0
   -3.1536   -3.3641   -0.9742 H   0  0  0  0  0  0  0  0  0  0  0  0
   -1.6223   -2.4928    0.2600 C   0  0  0  0  0  0  0  0  0  0  0  0
   -0.8150   -2.9828    1.0287 O   0  0  0  0  0  0  0  0  0  0  0  0
   -1.3110   -1.3399   -0.4308 N   0  0  0  0  0  0  0  0  0  0  0  0
   -2.0102   -0.9844   -1.0796 H   0  0  0  0  0  0  0  0  0  0  0  0
    0.0080   -0.6721   -0.4166 C   0  0  1  0  0  0  0  0  0  0  0  0
    0.7551   -1.4000   -0.7520 H   0  0  0  0  0  0  0  0  0  0  0  0
    0.0586    0.5396   -1.3808 C   0  0  0  0  0  0  0  0  0  0  0  0
    0.5931    1.3787   -0.9213 H   0  0  0  0  0  0  0  0  0  0  0  0
    0.6392    0.2438   -2.2609 H   0  0  0  0  0  0  0  0  0  0  0  0
   -1.3016    1.0051   -1.8432 C   0  0  0  0  0  0  0  0  0  0  0  0
   -2.2240    1.7186   -1.1099 N   0  0  0  0  0  0  0  0  0  0  0  0
   -2.0890    2.0903   -0.1710 H   0  0  0  0  0  0  0  0  0  0  0  0
   -3.3308    1.9437   -1.9066 C   0  0  0  0  0  0  0  0  0  0  0  0
   -4.2200    2.4897   -1.6040 H   0  0  0  0  0  0  0  0  0  0  0  0
   -3.1526    1.3957   -3.0848 N   0  0  0  0  0  0  0  0  0  0  0  0
   -1.8833    0.8284   -3.0705 C   0  0  0  0  0  0  0  0  0  0  0  0
   -1.4265    0.3082   -3.9073 H   0  0  0  0  0  0  0  0  0  0  0  0
    0.4492   -0.2207    0.9920 C   0  0  0  0  0  0  0  0  0  0  0  0
    1.6418   -0.1552    1.2586 O   0  0  0  0  0  0  0  0  0  0  0  0
   -0.4596    0.4155    1.8200 N   0  0  0  0  0  0  0  0  0  0  0  0
   -1.4329    0.1975    1.6337 H   0  0  0  0  0  0  0  0  0  0  0  0
   -0.1004    0.8812    3.1543 C   0  0  0  0  0  0  0  0  0  0  0  0
    0.7096    1.6164    3.1004 H   0  0  0  0  0  0  0  0  0  0  0  0
   -0.9615    1.3544    3.6355 H   0  0  0  0  0  0  0  0  0  0  0  0
    0.2282    0.0414    3.7758 H   0  0  0  0  0  0  0  0  0  0  0  0
  1  2  1  0  0  0  0
  2  3  1  0  0  0  0
  2  4  1  0  0  0  0
  2  5  1  0  0  0  0
  5  6  2  0  0  0  0
  5  7  1  0  0  0  0
  7  8  1  0  0  0  0
  7  9  1  0  0  0  0
  9 10  1  0  0  0  0
  9 11  1  0  0  0  0
  9 22  1  0  0  0  0
 11 12  1  0  0  0  0
 11 13  1  0  0  0  0
 11 14  1  0  0  0  0
 14 15  1  0  0  0  0
 14 20  2  0  0  0  0
 15 16  1  0  0  0  0
 15 17  1  0  0  0  0
 17 18  1  0  0  0  0
 17 19  2  0  0  0  0
 19 20  1  0  0  0  0
 20 21  1  0  0  0  0
 22 23  2  0  0  0  0
 22 24  1  0  0  0  0
 24 25  1  0  0  0  0
 24 26  1  0  0  0  0
 26 27  1  0  0  0  0
 26 28  1  0  0  0  0
 26 29  1  0  0  0  0
M  END
$$$$

  -OEChem-03222214043D

 29 29  0     1  0  0  0  0  0999 V2000
   -3.0376   -4.0546    0.6987 H   0  0  0  0  0  0  0  0  0  0  0  0
   -2.9815   -3.1317    0.1146 C   0  0  0  0  0  0  0  0  0  0  0  0
   -3.7463   -2.4395    0.4744 H   0  0  0  0  0  0  0  0  0  0  0  0
   -3.1770   -3.3677   -0.9342 H   0  0  0  0  0  0  0  0  0  0  0  0
   -1.6067   -2.5072    0.2575 C   0  0  0  0  0  0  0  0  0  0  0  0
   -0.7818   -3.0125    0.9972 O   0  0  0  0  0  0  0  0  0  0  0  0
   -1.3018   -1.3556   -0.4388 N   0  0  0  0  0  0  0  0  0  0  0  0
   -2.0226   -0.9759   -1.0484 H   0  0  0  0  0  0  0  0  0  0  0  0
    0.0133   -0.6807   -0.4245 C   0  0  1  0  0  0  0  0  0  0  0  0
    0.7663   -1.4041   -0.7563 H   0  0  0  0  0  0  0  0  0  0  0  0
    0.0608    0.5321   -1.3868 C   0  0  0  0  0  0  0  0  0  0  0  0
    0.5981    1.3722   -0.9326 H   0  0  0  0  0  0  0  0  0  0  0  0
    0.6370    0.2330   -2.2688 H   0  0  0  0  0  0  0  0  0  0  0  0
   -1.3005    0.9910   -1.8499 C   0  0  0  0  0  0  0  0  0  0  0  0
   -2.1081    1.9264   -1.2427 N   0  0  0  0  0  0  0  0  0  0  0  0
   -1.8887    2.4580   -0.4015 H   0  0  0  0  0  0  0  0  0  0  0  0
   -3.2507    2.0741   -2.0064 C   0  0  0  0  0  0  0  0  0  0  0  0
   -4.0754    2.7431   -1.7768 H   0  0  0  0  0  0  0  0  0  0  0  0
   -3.1971    1.2808   -3.0498 N   0  0  0  0  0  0  0  0  0  0  0  0
   -1.9740    0.6238   -2.9848 C   0  0  0  0  0  0  0  0  0  0  0  0
   -1.6121   -0.0885   -3.7204 H   0  0  0  0  0  0  0  0  0  0  0  0
    0.4449   -0.2216    0.9842 C   0  0  0  0  0  0  0  0  0  0  0  0
    1.6352   -0.1602    1.2620 O   0  0  0  0  0  0  0  0  0  0  0  0
   -0.4701    0.4130    1.8065 N   0  0  0  0  0  0  0  0  0  0  0  0
   -1.4455    0.2300    1.5942 H   0  0  0  0  0  0  0  0  0  0  0  0
   -0.1259    0.8806    3.1437 C   0  0  0  0  0  0  0  0  0  0  0  0
    0.6824    1.6182    3.0970 H   0  0  0  0  0  0  0  0  0  0  0  0
   -0.9938    1.3514    3.6149 H   0  0  0  0  0  0  0  0  0  0  0  0
    0.1986    0.0426    3.7697 H   0  0  0  0  0  0  0  0  0  0  0  0
  1  2  1  0  0  0  0
  2  3  1  0  0  0  0
  2  4  1  0  0  0  0
  2  5  1  0  0  0  0
  5  6  2  0  0  0  0
  5  7  1  0  0  0  0
  7  8  1  0  0  0  0
  7  9  1  0  0  0  0
  9 10  1  0  0  0  0
  9 11  1  0  0  0  0
  9 22  1  0  0  0  0
 11 12  1  0  0  0  0
 11 13  1  0  0  0  0
 11 14  1  0  0  0  0
 14 15  1  0  0  0  0
 14 20  2  0  0  0  0
 15 16  1  0  0  0  0
 15 17  1  0  0  0  0
 17 18  1  0  0  0  0
 17 19  2  0  0  0  0
 19 20  1  0  0  0  0
 20 21  1  0  0  0  0
 22 23  2  0  0  0  0
 22 24  1  0  0  0  0
 24 25  1  0  0  0  0
 24 26  1  0  0  0  0
 26 27  1  0  0  0  0
 26 28  1  0  0  0  0
 26 29  1  0  0  0  0
M  END
$$$$

  -OEChem-03222214043D

 29 29  0     1  0  0  0  0  0999 V2000
   -3.0163   -4.0645    0.7526 H   0  0  0  0  0  0  0  0  0  0  0  0
   -2.9711   -3.1435    0.1646 C   0  0  0  0  0  0  0  0  0  0  0  0
   -3.7166   -2.4432    0.5485 H   0  0  0  0  0  0  0  0  0  0  0  0
   -3.2048   -3.3796   -0.8764 H   0  0  0  0  0  0  0  0  0  0  0  0
   -1.5863   -2.5320    0.2598 C   0  0  0  0  0  0  0  0  0  0  0  0
   -0.7377   -3.0514    0.9619 O   0  0  0  0  0  0  0  0  0  0  0  0
   -1.2977   -1.3771   -0.4379 N   0  0  0  0  0  0  0  0  0  0  0  0
   -2.0473   -0.9700   -0.9921 H   0  0  0  0  0  0  0  0  0  0  0  0
    0.0101   -0.6878   -0.4275 C   0  0  1  0  0  0  0  0  0  0  0  0
    0.7694   -1.4045   -0.7602 H   0  0  0  0  0  0  0  0  0  0  0  0
    0.0493    0.5272   -1.3887 C   0  0  0  0  0  0  0  0  0  0  0  0
    0.5850    1.3676   -0.9330 H   0  0  0  0  0  0  0  0  0  0  0  0
    0.6277    0.2327   -2.2706 H   0  0  0  0  0  0  0  0  0  0  0  0
   -1.3098    0.9873   -1.8605 C   0  0  0  0  0  0  0  0  0  0  0  0
   -1.9990    2.1030   -1.4408 N   0  0  0  0  0  0  0  0  0  0  0  0
   -1.6924    2.7724   -0.7366 H   0  0  0  0  0  0  0  0  0  0  0  0
   -3.1700    2.1915   -2.1701 C   0  0  0  0  0  0  0  0  0  0  0  0
   -3.9240    2.9649   -2.0522 H   0  0  0  0  0  0  0  0  0  0  0  0
   -3.2417    1.1985   -3.0243 N   0  0  0  0  0  0  0  0  0  0  0  0
   -2.0726    0.4636   -2.8719 C   0  0  0  0  0  0  0  0  0  0  0  0
   -1.8066   -0.4077   -3.4634 H   0  0  0  0  0  0  0  0  0  0  0  0
    0.4398   -0.2246    0.9808 C   0  0  0  0  0  0  0  0  0  0  0  0
    1.6292   -0.1621    1.2626 O   0  0  0  0  0  0  0  0  0  0  0  0
   -0.4791    0.3999    1.8059 N   0  0  0  0  0  0  0  0  0  0  0  0
   -1.4553    0.2465    1.5744 H   0  0  0  0  0  0  0  0  0  0  0  0
   -0.1424    0.8705    3.1437 C   0  0  0  0  0  0  0  0  0  0  0  0
    0.6589    1.6156    3.0989 H   0  0  0  0  0  0  0  0  0  0  0  0
   -1.0156    1.3329    3.6133 H   0  0  0  0  0  0  0  0  0  0  0  0
    0.1885    0.0351    3.7697 H   0  0  0  0  0  0  0  0  0  0  0  0
  1  2  1  0  0  0  0
  2  3  1  0  0  0  0
  2  4  1  0  0  0  0
  2  5  1  0  0  0  0
  5  6  2  0  0  0  0
  5  7  1  0  0  0  0
  7  8  1  0  0  0  0
  7  9  1  0  0  0  0
  9 10  1  0  0  0  0
  9 11  1  0  0  0  0
  9 22  1  0  0  0  0
 11 12  1  0  0  0  0
 11 13  1  0  0  0  0
 11 14  1  0  0  0  0
 14 15  1  0  0  0  0
 14 20  2  0  0  0  0
 15 16  1  0  0  0  0
 15 17  1  0  0  0  0
 17 18  1  0  0  0  0
 17 19  2  0  0  0  0
 19 20  1  0  0  0  0
 20 21  1  0  0  0  0
 22 23  2  0  0  0  0
 22 24  1  0  0  0  0
 24 25  1  0  0  0  0
 24 26  1  0  0  0  0
 26 27  1  0  0  0  0
 26 28  1  0  0  0  0
 26 29  1  0  0  0  0
M  END
$$$$

  -OEChem-03222214043D

 29 29  0     1  0  0  0  0  0999 V2000
   -2.9729   -4.0968    0.8193 H   0  0  0  0  0  0  0  0  0  0  0  0
   -2.9490   -3.1774    0.2274 C   0  0  0  0  0  0  0  0  0  0  0  0
   -3.6802   -2.4762    0.6363 H   0  0  0  0  0  0  0  0  0  0  0  0
   -3.2198   -3.4164   -0.8038 H   0  0  0  0  0  0  0  0  0  0  0  0
   -1.5616   -2.5656    0.2705 C   0  0  0  0  0  0  0  0  0  0  0  0
   -0.6827   -3.0936    0.9274 O   0  0  0  0  0  0  0  0  0  0  0  0
   -1.3034   -1.4028   -0.4268 N   0  0  0  0  0  0  0  0  0  0  0  0
   -2.0841   -0.9759   -0.9182 H   0  0  0  0  0  0  0  0  0  0  0  0
   -0.0077   -0.6920   -0.4266 C   0  0  1  0  0  0  0  0  0  0  0  0
    0.7578   -1.4000   -0.7635 H   0  0  0  0  0  0  0  0  0  0  0  0
    0.0237    0.5242   -1.3889 C   0  0  0  0  0  0  0  0  0  0  0  0
    0.5541    1.3639   -0.9258 H   0  0  0  0  0  0  0  0  0  0  0  0
    0.6110    0.2356   -2.2668 H   0  0  0  0  0  0  0  0  0  0  0  0
   -1.3269    0.9943   -1.8798 C   0  0  0  0  0  0  0  0  0  0  0  0
   -1.8835    2.2401   -1.6907 N   0  0  0  0  0  0  0  0  0  0  0  0
   -1.4811    3.0051   -1.1514 H   0  0  0  0  0  0  0  0  0  0  0  0
   -3.0811    2.2949   -2.3790 C   0  0  0  0  0  0  0  0  0  0  0  0
   -3.7535    3.1481   -2.3989 H   0  0  0  0  0  0  0  0  0  0  0  0
   -3.2907    1.1607   -3.0035 N   0  0  0  0  0  0  0  0  0  0  0  0
   -2.1870    0.3604   -2.7401 C   0  0  0  0  0  0  0  0  0  0  0  0
   -2.0297   -0.6308   -3.1555 H   0  0  0  0  0  0  0  0  0  0  0  0
    0.4270   -0.2279    0.9803 C   0  0  0  0  0  0  0  0  0  0  0  0
    1.6175   -0.1529    1.2543 O   0  0  0  0  0  0  0  0  0  0  0  0
   -0.4931    0.3777    1.8181 N   0  0  0  0  0  0  0  0  0  0  0  0
   -1.4706    0.2410    1.5821 H   0  0  0  0  0  0  0  0  0  0  0  0
   -0.1532    0.8587    3.1515 C   0  0  0  0  0  0  0  0  0  0  0  0
    0.6353    1.6168    3.0978 H   0  0  0  0  0  0  0  0  0  0  0  0
   -1.0304    1.3085    3.6264 H   0  0  0  0  0  0  0  0  0  0  0  0
    0.1963    0.0311    3.7781 H   0  0  0  0  0  0  0  0  0  0  0  0
  1  2  1  0  0  0  0
  2  3  1  0  0  0  0
  2  4  1  0  0  0  0
  2  5  1  0  0  0  0
  5  6  2  0  0  0  0
  5  7  1  0  0  0  0
  7  8  1  0  0  0  0
  7  9  1  0  0  0  0
  9 10  1  0  0  0  0
  9 11  1  0  0  0  0
  9 22  1  0  0  0  0
 11 12  1  0  0  0  0
 11 13  1  0  0  0  0
 11 14  1  0  0  0  0
 14 15  1  0  0  0  0
 14 20  2  0  0  0  0
 15 16  1  0  0  0  0
 15 17  1  0  0  0  0
 17 18  1  0  0  0  0
 17 19  2  0  0  0  0
 19 20  1  0  0  0  0
 20 21  1  0  0  0  0
 22 23  2  0  0  0  0
 22 24  1  0  0  0  0
 24 25  1  0  0  0  0
 24 26  1  0  0  0  0
 26 27  1  0  0  0  0
 26 28  1  0  0  0  0
 26 29  1  0  0  0  0
M  END
$$$$

  -OEChem-03222214043D

 29 29  0     1  0  0  0  0  0999 V2000
   -2.9011   -4.1468    0.8999 H   0  0  0  0  0  0  0  0  0  0  0  0
   -2.9084   -3.2308    0.3023 C   0  0  0  0  0  0  0  0  0  0  0  0
   -3.6300   -2.5342    0.7352 H   0  0  0  0  0  0  0  0  0  0  0  0
   -3.2162   -3.4786   -0.7165 H   0  0  0  0  0  0  0  0  0  0  0  0
   -1.5258   -2.6067    0.2884 C   0  0  0  0  0  0  0  0  0  0  0  0
   -0.6133   -3.1336    0.8985 O   0  0  0  0  0  0  0  0  0  0  0  0
   -1.3097   -1.4358   -0.4103 N   0  0  0  0  0  0  0  0  0  0  0  0
   -2.1224   -0.9994   -0.8352 H   0  0  0  0  0  0  0  0  0  0  0  0
   -0.0319   -0.6953   -0.4255 C   0  0  1  0  0  0  0  0  0  0  0  0
    0.7432   -1.3911   -0.7667 H   0  0  0  0  0  0  0  0  0  0  0  0
   -0.0154    0.5213   -1.3907 C   0  0  0  0  0  0  0  0  0  0  0  0
    0.5046    1.3616   -0.9169 H   0  0  0  0  0  0  0  0  0  0  0  0
    0.5859    0.2421   -2.2619 H   0  0  0  0  0  0  0  0  0  0  0  0
   -1.3541    1.0065   -1.9081 C   0  0  0  0  0  0  0  0  0  0  0  0
   -1.7598    2.3218   -1.9744 N   0  0  0  0  0  0  0  0  0  0  0  0
   -1.2457    3.1281   -1.6235 H   0  0  0  0  0  0  0  0  0  0  0  0
   -2.9873    2.3778   -2.6069 C   0  0  0  0  0  0  0  0  0  0  0  0
   -3.5628    3.2836   -2.7771 H   0  0  0  0  0  0  0  0  0  0  0  0
   -3.3580    1.1740   -2.9703 N   0  0  0  0  0  0  0  0  0  0  0  0
   -2.3320    0.3215   -2.5864 C   0  0  0  0  0  0  0  0  0  0  0  0
   -2.3071   -0.7417   -2.8067 H   0  0  0  0  0  0  0  0  0  0  0  0
    0.4084   -0.2266    0.9788 C   0  0  0  0  0  0  0  0  0  0  0  0
    1.6001   -0.1328    1.2415 O   0  0  0  0  0  0  0  0  0  0  0  0
   -0.5131    0.3543    1.8325 N   0  0  0  0  0  0  0  0  0  0  0  0
   -1.4918    0.2241    1.5980 H   0  0  0  0  0  0  0  0  0  0  0  0
   -0.1661    0.8482    3.1592 C   0  0  0  0  0  0  0  0  0  0  0  0
    0.6114    1.6164    3.0925 H   0  0  0  0  0  0  0  0  0  0  0  0
   -1.0443    1.2892    3.6401 H   0  0  0  0  0  0  0  0  0  0  0  0
    0.2009    0.0296    3.7871 H   0  0  0  0  0  0  0  0  0  0  0  0
  1  2  1  0  0  0  0
  2  3  1  0  0  0  0
  2  4  1  0  0  0  0
  2  5  1  0  0  0  0
  5  6  2  0  0  0  0
  5  7  1  0  0  0  0
  7  8  1  0  0  0  0
  7  9  1  0  0  0  0
  9 10  1  0  0  0  0
  9 11  1  0  0  0  0
  9 22  1  0  0  0  0
 11 12  1  0  0  0  0
 11 13  1  0  0  0  0
 11 14  1  0  0  0  0
 14 15  1  0  0  0  0
 14 20  2  0  0  0  0
 15 16  1  0  0  0  0
 15 17  1  0  0  0  0
 17 18  1  0  0  0  0
 17 19  2  0  0  0  0
 19 20  1  0  0  0  0
 20 21  1  0  0  0  0
 22 23  2  0  0  0  0
 22 24  1  0  0  0  0
 24 25  1  0  0  0  0
 24 26  1  0  0  0  0
 26 27  1  0  0  0  0
 26 28  1  0  0  0  0
 26 29  1  0  0  0  0
M  END
$$$$

  -OEChem-03222214043D

 29 29  0     1  0  0  0  0  0999 V2000
   -2.7964   -4.2263    0.9744 H   0  0  0  0  0  0  0  0  0  0  0  0
   -2.8473   -3.3108    0.3780 C   0  0  0  0  0  0  0  0  0  0  0  0
   -3.5737   -2.6338    0.8339 H   0  0  0  0  0  0  0  0  0  0  0  0
   -3.1798   -3.5673   -0.6308 H   0  0  0  0  0  0  0  0  0  0  0  0
   -1.4830   -2.6500    0.3216 C   0  0  0  0  0  0  0  0  0  0  0  0
   -0.5384   -3.1547    0.9006 O   0  0  0  0  0  0  0  0  0  0  0  0
   -1.3204   -1.4728   -0.3817 N   0  0  0  0  0  0  0  0  0  0  0  0
   -2.1599   -1.0534   -0.7663 H   0  0  0  0  0  0  0  0  0  0  0  0
   -0.0664   -0.6961   -0.4232 C   0  0  1  0  0  0  0  0  0  0  0  0
    0.7178   -1.3785   -0.7702 H   0  0  0  0  0  0  0  0  0  0  0  0
   -0.0695    0.5159   -1.3983 C   0  0  0  0  0  0  0  0  0  0  0  0
    0.4366    1.3592   -0.9147 H   0  0  0  0  0  0  0  0  0  0  0  0
    0.5501    0.2437   -2.2590 H   0  0  0  0  0  0  0  0  0  0  0  0
   -1.3916    1.0206   -1.9499 C   0  0  0  0  0  0  0  0  0  0  0  0
   -1.6267    2.3363   -2.2907 N   0  0  0  0  0  0  0  0  0  0  0  0
   -0.9836    3.1146   -2.1561 H   0  0  0  0  0  0  0  0  0  0  0  0
   -2.8874    2.4409   -2.8456 C   0  0  0  0  0  0  0  0  0  0  0  0
   -3.3481    3.3644   -3.1853 H   0  0  0  0  0  0  0  0  0  0  0  0
   -3.4481    1.2581   -2.9018 N   0  0  0  0  0  0  0  0  0  0  0  0
   -2.5175    0.3657   -2.3891 C   0  0  0  0  0  0  0  0  0  0  0  0
   -2.6674   -0.7086   -2.3748 H   0  0  0  0  0  0  0  0  0  0  0  0
    0.3873   -0.2167    0.9738 C   0  0  0  0  0  0  0  0  0  0  0  0
    1.5810   -0.0928    1.2148 O   0  0  0  0  0  0  0  0  0  0  0  0
   -0.5331    0.3357    1.8474 N   0  0  0  0  0  0  0  0  0  0  0  0
   -1.5128    0.1905    1.6278 H   0  0  0  0  0  0  0  0  0  0  0  0
   -0.1742    0.8414    3.1664 C   0  0  0  0  0  0  0  0  0  0  0  0
    0.5790    1.6321    3.0836 H   0  0  0  0  0  0  0  0  0  0  0  0
   -1.0553    1.2570    3.6644 H   0  0  0  0  0  0  0  0  0  0  0  0
    0.2290    0.0346    3.7875 H   0  0  0  0  0  0  0  0  0  0  0  0
  1  2  1  0  0  0  0
  2  3  1  0  0  0  0
  2  4  1  0  0  0  0
  2  5  1  0  0  0  0
  5  6  2  0  0  0  0
  5  7  1  0  0  0  0
  7  8  1  0  0  0  0
  7  9  1  0  0  0  0
  9 10  1  0  0  0  0
  9 11  1  0  0  0  0
  9 22  1  0  0  0  0
 11 12  1  0  0  0  0
 11 13  1  0  0  0  0
 11 14  1  0  0  0  0
 14 15  1  0  0  0  0
 14 20  2  0  0  0  0
 15 16  1  0  0  0  0
 15 17  1  0  0  0  0
 17 18  1  0  0  0  0
 17 19  2  0  0  0  0
 19 20  1  0  0  0  0
 20 21  1  0  0  0  0
 22 23  2  0  0  0  0
 22 24  1  0  0  0  0
 24 25  1  0  0  0  0
 24 26  1  0  0  0  0
 26 27  1  0  0  0  0
 26 28  1  0  0  0  0
 26 29  1  0  0  0  0
M  END
$$$$

  -OEChem-03222214043D

 29 29  0     1  0  0  0  0  0999 V2000
   -2.6922   -4.3773    0.9368 H   0  0  0  0  0  0  0  0  0  0  0  0
   -2.7588   -3.4878    0.3038 C   0  0  0  0  0  0  0  0  0  0  0  0
   -3.6289   -2.9022    0.6105 H   0  0  0  0  0  0  0  0  0  0  0  0
   -2.8876   -3.8041   -0.7341 H   0  0  0  0  0  0  0  0  0  0  0  0
   -1.4981   -2.6551    0.4405 C   0  0  0  0  0  0  0  0  0  0  0  0
   -0.6229   -3.0041    1.2112 O   0  0  0  0  0  0  0  0  0  0  0  0
   -1.3529   -1.5107   -0.3198 N   0  0  0  0  0  0  0  0  0  0  0  0
   -2.0364   -1.3906   -1.0585 H   0  0  0  0  0  0  0  0  0  0  0  0
   -0.0987   -0.7427   -0.4272 C   0  0  1  0  0  0  0  0  0  0  0  0
    0.6770   -1.4320   -0.7790 H   0  0  0  0  0  0  0  0  0  0  0  0
   -0.1465    0.4564   -1.4198 C   0  0  0  0  0  0  0  0  0  0  0  0
    0.3983    1.2986   -0.9778 H   0  0  0  0  0  0  0  0  0  0  0  0
    0.4289    0.1542   -2.3007 H   0  0  0  0  0  0  0  0  0  0  0  0
   -1.4700    0.9997   -1.9423 C   0  0  0  0  0  0  0  0  0  0  0  0
   -1.5426    2.2288   -2.5661 N   0  0  0  0  0  0  0  0  0  0  0  0
   -0.7600    2.8554   -2.7441 H   0  0  0  0  0  0  0  0  0  0  0  0
   -2.8534    2.4928   -2.9093 C   0  0  0  0  0  0  0  0  0  0  0  0
   -3.2001    3.3880   -3.4179 H   0  0  0  0  0  0  0  0  0  0  0  0
   -3.6188    1.5015   -2.5291 N   0  0  0  0  0  0  0  0  0  0  0  0
   -2.7805    0.5769   -1.9218 C   0  0  0  0  0  0  0  0  0  0  0  0
   -3.1538   -0.3454   -1.4944 H   0  0  0  0  0  0  0  0  0  0  0  0
    0.3943   -0.2041    0.9360 C   0  0  0  0  0  0  0  0  0  0  0  0
    1.5957   -0.0696    1.1314 O   0  0  0  0  0  0  0  0  0  0  0  0
   -0.4998    0.3900    1.8084 N   0  0  0  0  0  0  0  0  0  0  0  0
   -1.4837    0.2107    1.6346 H   0  0  0  0  0  0  0  0  0  0  0  0
   -0.1025    0.9510    3.0930 C   0  0  0  0  0  0  0  0  0  0  0  0
    0.6234    1.7584    2.9510 H   0  0  0  0  0  0  0  0  0  0  0  0
   -0.9746    1.3590    3.6124 H   0  0  0  0  0  0  0  0  0  0  0  0
    0.3483    0.1780    3.7243 H   0  0  0  0  0  0  0  0  0  0  0  0
  1  2  1  0  0  0  0
  2  3  1  0  0  0  0
  2  4  1  0  0  0  0
  2  5  1  0  0  0  0
  5  6  2  0  0  0  0
  5  7  1  0  0  0  0
  7  8  1  0  0  0  0
  7  9  1  0  0  0  0
  9 10  1  0  0  0  0
  9 11  1  0  0  0  0
  9 22  1  0  0  0  0
 11 12  1  0  0  0  0
 11 13  1  0  0  0  0
 11 14  1  0  0  0  0
 14 15  1  0  0  0  0
 14 20  2  0  0  0  0
 15 16  1  0  0  0  0
 15 17  1  0  0  0  0
 17 18  1  0  0  0  0
 17 19  2  0  0  0  0
 19 20  1  0  0  0  0
 20 21  1  0  0  0  0
 22 23  2  0  0  0  0
 22 24  1  0  0  0  0
 24 25  1  0  0  0  0
 24 26  1  0  0  0  0
 26 27  1  0  0  0  0
 26 28  1  0  0  0  0
 26 29  1  0  0  0  0
M  END
$$$$

  -OEChem-03222214043D

 29 29  0     1  0  0  0  0  0999 V2000
   -2.8090   -4.3122    0.7519 H   0  0  0  0  0  0  0  0  0  0  0  0
   -2.8331   -3.3961    0.1548 C   0  0  0  0  0  0  0  0  0  0  0  0
   -3.6743   -2.7823    0.4861 H   0  0  0  0  0  0  0  0  0  0  0  0
   -2.9766   -3.6652   -0.8945 H   0  0  0  0  0  0  0  0  0  0  0  0
   -1.5343   -2.6308    0.3220 C   0  0  0  0  0  0  0  0  0  0  0  0
   -0.6819   -3.0431    1.0870 O   0  0  0  0  0  0  0  0  0  0  0  0
   -1.3284   -1.4679   -0.3939 N   0  0  0  0  0  0  0  0  0  0  0  0
   -2.0212   -1.2466   -1.1039 H   0  0  0  0  0  0  0  0  0  0  0  0
   -0.0554   -0.7209   -0.4220 C   0  0  1  0  0  0  0  0  0  0  0  0
    0.7266   -1.4041   -0.7716 H   0  0  0  0  0  0  0  0  0  0  0  0
   -0.0871    0.4949   -1.3827 C   0  0  0  0  0  0  0  0  0  0  0  0
    0.6568    1.2309   -1.0565 H   0  0  0  0  0  0  0  0  0  0  0  0
    0.2449    0.1298   -2.3596 H   0  0  0  0  0  0  0  0  0  0  0  0
   -1.4051    1.2146   -1.6162 C   0  0  0  0  0  0  0  0  0  0  0  0
   -1.5305    2.3023   -2.4547 N   0  0  0  0  0  0  0  0  0  0  0  0
   -0.7904    2.7084   -3.0242 H   0  0  0  0  0  0  0  0  0  0  0  0
   -2.8269    2.7751   -2.3920 C   0  0  0  0  0  0  0  0  0  0  0  0
   -3.2162    3.6144   -2.9615 H   0  0  0  0  0  0  0  0  0  0  0  0
   -3.5210    2.0599   -1.5421 N   0  0  0  0  0  0  0  0  0  0  0  0
   -2.6460    1.1114   -1.0312 C   0  0  0  0  0  0  0  0  0  0  0  0
   -2.9242    0.4079   -0.2544 H   0  0  0  0  0  0  0  0  0  0  0  0
    0.4000   -0.2246    0.9690 C   0  0  0  0  0  0  0  0  0  0  0  0
    1.5970   -0.1301    1.2087 O   0  0  0  0  0  0  0  0  0  0  0  0
   -0.5066    0.3689    1.8296 N   0  0  0  0  0  0  0  0  0  0  0  0
   -1.4892    0.2235    1.6230 H   0  0  0  0  0  0  0  0  0  0  0  0
   -0.1340    0.8917    3.1377 C   0  0  0  0  0  0  0  0  0  0  0  0
    0.6339    1.6659    3.0374 H   0  0  0  0  0  0  0  0  0  0  0  0
   -1.0051    1.3337    3.6305 H   0  0  0  0  0  0  0  0  0  0  0  0
    0.2551    0.0886    3.7724 H   0  0  0  0  0  0  0  0  0  0  0  0
  1  2  1  0  0  0  0
  2  3  1  0  0  0  0
  2  4  1  0  0  0  0
  2  5  1  0  0  0  0
  5  6  2  0  0  0  0
  5  7  1  0  0  0  0
  7  8  1  0  0  0  0
  7  9  1  0  0  0  0
  9 10  1  0  0  0  0
  9 11  1  0  0  0  0
  9 22  1  0  0  0  0
 11 12  1  0  0  0  0
 11 13  1  0  0  0  0
 11 14  1  0  0  0  0
 14 15  1  0  0  0  0
 14 20  2  0  0  0  0
 15 16  1  0  0  0  0
 15 17  1  0  0  0  0
 17 18  1  0  0  0  0
 17 19  2  0  0  0  0
 19 20  1  0  0  0  0
 20 21  1  0  0  0  0
 22 23  2  0  0  0  0
 22 24  1  0  0  0  0
 24 25  1  0  0  0  0
 24 26  1  0  0  0  0
 26 27  1  0  0  0  0
 26 28  1  0  0  0  0
 26 29  1  0  0  0  0
M  END
$$$$

  -OEChem-03222214043D

 29 29  0     1  0  0  0  0  0999 V2000
   -2.8769   -4.2538    0.7285 H   0  0  0  0  0  0  0  0  0  0  0  0
   -2.8773   -3.3356    0.1341 C   0  0  0  0  0  0  0  0  0  0  0  0
   -3.7021   -2.7008    0.4665 H   0  0  0  0  0  0  0  0  0  0  0  0
   -3.0269   -3.5972   -0.9161 H   0  0  0  0  0  0  0  0  0  0  0  0
   -1.5594   -2.6044    0.3035 C   0  0  0  0  0  0  0  0  0  0  0  0
   -0.7104   -3.0478    1.0550 O   0  0  0  0  0  0  0  0  0  0  0  0
   -1.3299   -1.4363   -0.3958 N   0  0  0  0  0  0  0  0  0  0  0  0
   -2.0349   -1.1659   -1.0769 H   0  0  0  0  0  0  0  0  0  0  0  0
   -0.0463   -0.7058   -0.4072 C   0  0  1  0  0  0  0  0  0  0  0  0
    0.7272   -1.3991   -0.7563 H   0  0  0  0  0  0  0  0  0  0  0  0
   -0.0646    0.5026   -1.3756 C   0  0  0  0  0  0  0  0  0  0  0  0
    0.6770    1.2438   -1.0562 H   0  0  0  0  0  0  0  0  0  0  0  0
    0.2673    0.1270   -2.3487 H   0  0  0  0  0  0  0  0  0  0  0  0
   -1.3917    1.2034   -1.6044 C   0  0  0  0  0  0  0  0  0  0  0  0
   -1.6430    2.0826   -2.6363 N   0  0  0  0  0  0  0  0  0  0  0  0
   -0.9905    2.3487   -3.3716 H   0  0  0  0  0  0  0  0  0  0  0  0
   -2.9288    2.5717   -2.5047 C   0  0  0  0  0  0  0  0  0  0  0  0
   -3.4038    3.2745   -3.1836 H   0  0  0  0  0  0  0  0  0  0  0  0
   -3.4947    2.0601   -1.4393 N   0  0  0  0  0  0  0  0  0  0  0  0
   -2.5435    1.2348   -0.8556 C   0  0  0  0  0  0  0  0  0  0  0  0
   -2.7001    0.6995    0.0749 H   0  0  0  0  0  0  0  0  0  0  0  0
    0.4170   -0.2269    0.9872 C   0  0  0  0  0  0  0  0  0  0  0  0
    1.6157   -0.1456    1.2231 O   0  0  0  0  0  0  0  0  0  0  0  0
   -0.4785    0.3729    1.8550 N   0  0  0  0  0  0  0  0  0  0  0  0
   -1.4628    0.2203    1.6630 H   0  0  0  0  0  0  0  0  0  0  0  0
   -0.0929    0.8804    3.1656 C   0  0  0  0  0  0  0  0  0  0  0  0
    0.6792    1.6508    3.0676 H   0  0  0  0  0  0  0  0  0  0  0  0
   -0.9576    1.3229    3.6688 H   0  0  0  0  0  0  0  0  0  0  0  0
    0.2955    0.0692    3.7903 H   0  0  0  0  0  0  0  0  0  0  0  0
  1  2  1  0  0  0  0
  2  3  1  0  0  0  0
  2  4  1  0  0  0  0
  2  5  1  0  0  0  0
  5  6  2  0  0  0  0
  5  7  1  0  0  0  0
  7  8  1  0  0  0  0
  7  9  1  0  0  0  0
  9 10  1  0  0  0  0
  9 11  1  0  0  0  0
  9 22  1  0  0  0  0
 11 12  1  0  0  0  0
 11 13  1  0  0  0  0
 11 14  1  0  0  0  0
 14 15  1  0  0  0  0
 14 20  2  0  0  0  0
 15 16  1  0  0  0  0
 15 17  1  0  0  0  0
 17 18  1  0  0  0  0
 17 19  2  0  0  0  0
 19 20  1  0  0  0  0
 20 21  1  0  0  0  0
 22 23  2  0  0  0  0
 22 24  1  0  0  0  0
 24 25  1  0  0  0  0
 24 26  1  0  0  0  0
 26 27  1  0  0  0  0
 26 28  1  0  0  0  0
 26 29  1  0  0  0  0
M  END
$$$$

  -OEChem-03222214043D

 29 29  0     1  0  0  0  0  0999 V2000
   -2.9372   -4.1924    0.7081 H   0  0  0  0  0  0  0  0  0  0  0  0
   -2.9180   -3.2706    0.1195 C   0  0  0  0  0  0  0  0  0  0  0  0
   -3.7231   -2.6166    0.4630 H   0  0  0  0  0  0  0  0  0  0  0  0
   -3.0832   -3.5212   -0.9311 H   0  0  0  0  0  0  0  0  0  0  0  0
   -1.5796   -2.5756    0.2825 C   0  0  0  0  0  0  0  0  0  0  0  0
   -0.7318   -3.0508    1.0158 O   0  0  0  0  0  0  0  0  0  0  0  0
   -1.3314   -1.3999   -0.3962 N   0  0  0  0  0  0  0  0  0  0  0  0
   -2.0481   -1.0814   -1.0440 H   0  0  0  0  0  0  0  0  0  0  0  0
   -0.0401   -0.6834   -0.3903 C   0  0  1  0  0  0  0  0  0  0  0  0
    0.7249   -1.3856   -0.7404 H   0  0  0  0  0  0  0  0  0  0  0  0
   -0.0444    0.5169   -1.3669 C   0  0  0  0  0  0  0  0  0  0  0  0
    0.6895    1.2648   -1.0461 H   0  0  0  0  0  0  0  0  0  0  0  0
    0.2966    0.1371   -2.3350 H   0  0  0  0  0  0  0  0  0  0  0  0
   -1.3792    1.1983   -1.5963 C   0  0  0  0  0  0  0  0  0  0  0  0
   -1.7612    1.8324   -2.7588 N   0  0  0  0  0  0  0  0  0  0  0  0
   -1.2012    1.9297   -3.6039 H   0  0  0  0  0  0  0  0  0  0  0  0
   -3.0339    2.3436   -2.5881 C   0  0  0  0  0  0  0  0  0  0  0  0
   -3.5954    2.8897   -3.3411 H   0  0  0  0  0  0  0  0  0  0  0  0
   -3.4692    2.0677   -1.3829 N   0  0  0  0  0  0  0  0  0  0  0  0
   -2.4437    1.3800   -0.7481 C   0  0  0  0  0  0  0  0  0  0  0  0
   -2.4919    1.0306    0.2777 H   0  0  0  0  0  0  0  0  0  0  0  0
    0.4331   -0.2256    1.0077 C   0  0  0  0  0  0  0  0  0  0  0  0
    1.6338   -0.1544    1.2359 O   0  0  0  0  0  0  0  0  0  0  0  0
   -0.4500    0.3749    1.8872 N   0  0  0  0  0  0  0  0  0  0  0  0
   -1.4359    0.2136    1.7115 H   0  0  0  0  0  0  0  0  0  0  0  0
   -0.0484    0.8687    3.1983 C   0  0  0  0  0  0  0  0  0  0  0  0
    0.7272    1.6354    3.0989 H   0  0  0  0  0  0  0  0  0  0  0  0
   -0.9056    1.3121    3.7138 H   0  0  0  0  0  0  0  0  0  0  0  0
    0.3417    0.0499    3.8123 H   0  0  0  0  0  0  0  0  0  0  0  0
  1  2  1  0  0  0  0
  2  3  1  0  0  0  0
  2  4  1  0  0  0  0
  2  5  1  0  0  0  0
  5  6  2  0  0  0  0
  5  7  1  0  0  0  0
  7  8  1  0  0  0  0
  7  9  1  0  0  0  0
  9 10  1  0  0  0  0
  9 11  1  0  0  0  0
  9 22  1  0  0  0  0
 11 12  1  0  0  0  0
 11 13  1  0  0  0  0
 11 14  1  0  0  0  0
 14 15  1  0  0  0  0
 14 20  2  0  0  0  0
 15 16  1  0  0  0  0
 15 17  1  0  0  0  0
 17 18  1  0  0  0  0
 17 19  2  0  0  0  0
 19 20  1  0  0  0  0
 20 21  1  0  0  0  0
 22 23  2  0  0  0  0
 22 24  1  0  0  0  0
 24 25  1  0  0  0  0
 24 26  1  0  0  0  0
 26 27  1  0  0  0  0
 26 28  1  0  0  0  0
 26 29  1  0  0  0  0
M  END
$$$$

  -OEChem-03222214043D

 29 29  0     1  0  0  0  0  0999 V2000
   -2.9726   -4.1367    0.7031 H   0  0  0  0  0  0  0  0  0  0  0  0
   -2.9453   -3.2081    0.1259 C   0  0  0  0  0  0  0  0  0  0  0  0
   -3.7215   -2.5372    0.5015 H   0  0  0  0  0  0  0  0  0  0  0  0
   -3.1485   -3.4399   -0.9223 H   0  0  0  0  0  0  0  0  0  0  0  0
   -1.5838   -2.5524    0.2577 C   0  0  0  0  0  0  0  0  0  0  0  0
   -0.7277   -3.0616    0.9580 O   0  0  0  0  0  0  0  0  0  0  0  0
   -1.3237   -1.3711   -0.4061 N   0  0  0  0  0  0  0  0  0  0  0  0
   -2.0606   -0.9982   -1.0003 H   0  0  0  0  0  0  0  0  0  0  0  0
   -0.0283   -0.6630   -0.3866 C   0  0  1  0  0  0  0  0  0  0  0  0
    0.7329   -1.3704   -0.7347 H   0  0  0  0  0  0  0  0  0  0  0  0
   -0.0214    0.5294   -1.3709 C   0  0  0  0  0  0  0  0  0  0  0  0
    0.7011    1.2846   -1.0409 H   0  0  0  0  0  0  0  0  0  0  0  0
    0.3332    0.1534   -2.3357 H   0  0  0  0  0  0  0  0  0  0  0  0
   -1.3654    1.1891   -1.5990 C   0  0  0  0  0  0  0  0  0  0  0  0
   -1.8895    1.5576   -2.8193 N   0  0  0  0  0  0  0  0  0  0  0  0
   -1.4351    1.4588   -3.7256 H   0  0  0  0  0  0  0  0  0  0  0  0
   -3.1345    2.1214   -2.6130 C   0  0  0  0  0  0  0  0  0  0  0  0
   -3.7868    2.5029   -3.3936 H   0  0  0  0  0  0  0  0  0  0  0  0
   -3.4180    2.1222   -1.3332 N   0  0  0  0  0  0  0  0  0  0  0  0
   -2.3185    1.5702   -0.6886 C   0  0  0  0  0  0  0  0  0  0  0  0
   -2.2407    1.4501    0.3864 H   0  0  0  0  0  0  0  0  0  0  0  0
    0.4433   -0.2230    1.0171 C   0  0  0  0  0  0  0  0  0  0  0  0
    1.6436   -0.1598    1.2490 O   0  0  0  0  0  0  0  0  0  0  0  0
   -0.4386    0.3734    1.9004 N   0  0  0  0  0  0  0  0  0  0  0  0
   -1.4246    0.2128    1.7228 H   0  0  0  0  0  0  0  0  0  0  0  0
   -0.0379    0.8428    3.2208 C   0  0  0  0  0  0  0  0  0  0  0  0
    0.7490    1.5998    3.1373 H   0  0  0  0  0  0  0  0  0  0  0  0
   -0.8920    1.2909    3.7375 H   0  0  0  0  0  0  0  0  0  0  0  0
    0.3371    0.0098    3.8248 H   0  0  0  0  0  0  0  0  0  0  0  0
  1  2  1  0  0  0  0
  2  3  1  0  0  0  0
  2  4  1  0  0  0  0
  2  5  1  0  0  0  0
  5  6  2  0  0  0  0
  5  7  1  0  0  0  0
  7  8  1  0  0  0  0
  7  9  1  0  0  0  0
  9 10  1  0  0  0  0
  9 11  1  0  0  0  0
  9 22  1  0  0  0  0
 11 12  1  0  0  0  0
 11 13  1  0  0  0  0
 11 14  1  0  0  0  0
 14 15  1  0  0  0  0
 14 20  2  0  0  0  0
 15 16  1  0  0  0  0
 15 17  1  0  0  0  0
 17 18  1  0  0  0  0
 17 19  2  0  0  0  0
 19 20  1  0  0  0  0
 20 21  1  0  0  0  0
 22 23  2  0  0  0  0
 22 24  1  0  0  0  0
 24 25  1  0  0  0  0
 24 26  1  0  0  0  0
 26 27  1  0  0  0  0
 26 28  1  0  0  0  0
 26 29  1  0  0  0  0
M  END
$$$$

  -OEChem-03222214043D

 29 29  0     1  0  0  0  0  0999 V2000
   -2.9956   -4.0924    0.7189 H   0  0  0  0  0  0  0  0  0  0  0  0
   -2.9568   -3.1655    0.1394 C   0  0  0  0  0  0  0  0  0  0  0  0
   -3.7031   -2.4719    0.5342 H   0  0  0  0  0  0  0  0  0  0  0  0
   -3.1940   -3.3923   -0.9026 H   0  0  0  0  0  0  0  0  0  0  0  0
   -1.5740   -2.5493    0.2339 C   0  0  0  0  0  0  0  0  0  0  0  0
   -0.7115   -3.0876    0.9040 O   0  0  0  0  0  0  0  0  0  0  0  0
   -1.3012   -1.3709   -0.4299 N   0  0  0  0  0  0  0  0  0  0  0  0
   -2.0561   -0.9502   -0.9669 H   0  0  0  0  0  0  0  0  0  0  0  0
   -0.0035   -0.6680   -0.3988 C   0  0  1  0  0  0  0  0  0  0  0  0
    0.7616   -1.3739   -0.7413 H   0  0  0  0  0  0  0  0  0  0  0  0
    0.0053    0.5273   -1.3788 C   0  0  0  0  0  0  0  0  0  0  0  0
    0.7165    1.2865   -1.0339 H   0  0  0  0  0  0  0  0  0  0  0  0
    0.3687    0.1703   -2.3473 H   0  0  0  0  0  0  0  0  0  0  0  0
   -1.3498    1.1654   -1.5879 C   0  0  0  0  0  0  0  0  0  0  0  0
   -2.0314    1.2788   -2.7801 N   0  0  0  0  0  0  0  0  0  0  0  0
   -1.7059    0.9685   -3.6942 H   0  0  0  0  0  0  0  0  0  0  0  0
   -3.2229    1.9382   -2.5427 C   0  0  0  0  0  0  0  0  0  0  0  0
   -3.9713    2.1701   -3.2954 H   0  0  0  0  0  0  0  0  0  0  0  0
   -3.3218    2.2383   -1.2705 N   0  0  0  0  0  0  0  0  0  0  0  0
   -2.1512    1.7924   -0.6690 C   0  0  0  0  0  0  0  0  0  0  0  0
   -1.9147    1.9221    0.3820 H   0  0  0  0  0  0  0  0  0  0  0  0
    0.4458   -0.2302    1.0125 C   0  0  0  0  0  0  0  0  0  0  0  0
    1.6414   -0.1715    1.2681 O   0  0  0  0  0  0  0  0  0  0  0  0
   -0.4518    0.3685    1.8786 N   0  0  0  0  0  0  0  0  0  0  0  0
   -1.4355    0.2253    1.6739 H   0  0  0  0  0  0  0  0  0  0  0  0
   -0.0772    0.8374    3.2068 C   0  0  0  0  0  0  0  0  0  0  0  0
    0.7114    1.5943    3.1393 H   0  0  0  0  0  0  0  0  0  0  0  0
   -0.9411    1.2851    3.7072 H   0  0  0  0  0  0  0  0  0  0  0  0
    0.2857    0.0038    3.8171 H   0  0  0  0  0  0  0  0  0  0  0  0
  1  2  1  0  0  0  0
  2  3  1  0  0  0  0
  2  4  1  0  0  0  0
  2  5  1  0  0  0  0
  5  6  2  0  0  0  0
  5  7  1  0  0  0  0
  7  8  1  0  0  0  0
  7  9  1  0  0  0  0
  9 10  1  0  0  0  0
  9 11  1  0  0  0  0
  9 22  1  0  0  0  0
 11 12  1  0  0  0  0
 11 13  1  0  0  0  0
 11 14  1  0  0  0  0
 14 15  1  0  0  0  0
 14 20  2  0  0  0  0
 15 16  1  0  0  0  0
 15 17  1  0  0  0  0
 17 18  1  0  0  0  0
 17 19  2  0  0  0  0
 19 20  1  0  0  0  0
 20 21  1  0  0  0  0
 22 23  2  0  0  0  0
 22 24  1  0  0  0  0
 24 25  1  0  0  0  0
 24 26  1  0  0  0  0
 26 27  1  0  0  0  0
 26 28  1  0  0  0  0
 26 29  1  0  0  0  0
M  END
$$$$

  -OEChem-03222214043D

 29 29  0     1  0  0  0  0  0999 V2000
   -3.0036   -4.0567    0.7539 H   0  0  0  0  0  0  0  0  0  0  0  0
   -2.9577   -3.1369    0.1643 C   0  0  0  0  0  0  0  0  0  0  0  0
   -3.6739   -2.4208    0.5741 H   0  0  0  0  0  0  0  0  0  0  0  0
   -3.2307   -3.3670   -0.8682 H   0  0  0  0  0  0  0  0  0  0  0  0
   -1.5571   -2.5569    0.2128 C   0  0  0  0  0  0  0  0  0  0  0  0
   -0.6863   -3.1200    0.8510 O   0  0  0  0  0  0  0  0  0  0  0  0
   -1.2767   -1.3848   -0.4591 N   0  0  0  0  0  0  0  0  0  0  0  0
   -2.0467   -0.9241   -0.9385 H   0  0  0  0  0  0  0  0  0  0  0  0
    0.0227   -0.6851   -0.4197 C   0  0  1  0  0  0  0  0  0  0  0  0
    0.7947   -1.3851   -0.7583 H   0  0  0  0  0  0  0  0  0  0  0  0
    0.0317    0.5244   -1.3815 C   0  0  0  0  0  0  0  0  0  0  0  0
    0.7386    1.2803   -1.0199 H   0  0  0  0  0  0  0  0  0  0  0  0
    0.3956    0.1935   -2.3592 H   0  0  0  0  0  0  0  0  0  0  0  0
   -1.3310    1.1515   -1.5625 C   0  0  0  0  0  0  0  0  0  0  0  0
   -2.1625    1.0408   -2.6556 N   0  0  0  0  0  0  0  0  0  0  0  0
   -1.9582    0.5468   -3.5228 H   0  0  0  0  0  0  0  0  0  0  0  0
   -3.2988    1.7909   -2.4154 C   0  0  0  0  0  0  0  0  0  0  0  0
   -4.1347    1.8985   -3.1011 H   0  0  0  0  0  0  0  0  0  0  0  0
   -3.2232    2.3519   -1.2328 N   0  0  0  0  0  0  0  0  0  0  0  0
   -1.9910    1.9886   -0.7018 C   0  0  0  0  0  0  0  0  0  0  0  0
   -1.6118    2.3166    0.2612 H   0  0  0  0  0  0  0  0  0  0  0  0
    0.4446   -0.2425    0.9980 C   0  0  0  0  0  0  0  0  0  0  0  0
    1.6334   -0.1908    1.2840 O   0  0  0  0  0  0  0  0  0  0  0  0
   -0.4732    0.3612    1.8397 N   0  0  0  0  0  0  0  0  0  0  0  0
   -1.4524    0.2546    1.5942 H   0  0  0  0  0  0  0  0  0  0  0  0
   -0.1315    0.8488    3.1699 C   0  0  0  0  0  0  0  0  0  0  0  0
    0.6602    1.6029    3.1106 H   0  0  0  0  0  0  0  0  0  0  0  0
   -1.0066    1.3058    3.6414 H   0  0  0  0  0  0  0  0  0  0  0  0
    0.2139    0.0242    3.8023 H   0  0  0  0  0  0  0  0  0  0  0  0
  1  2  1  0  0  0  0
  2  3  1  0  0  0  0
  2  4  1  0  0  0  0
  2  5  1  0  0  0  0
  5  6  2  0  0  0  0
  5  7  1  0  0  0  0
  7  8  1  0  0  0  0
  7  9  1  0  0  0  0
  9 10  1  0  0  0  0
  9 11  1  0  0  0  0
  9 22  1  0  0  0  0
 11 12  1  0  0  0  0
 11 13  1  0  0  0  0
 11 14  1  0  0  0  0
 14 15  1  0  0  0  0
 14 20  2  0  0  0  0
 15 16  1  0  0  0  0
 15 17  1  0  0  0  0
 17 18  1  0  0  0  0
 17 19  2  0  0  0  0
 19 20  1  0  0  0  0
 20 21  1  0  0  0  0
 22 23  2  0  0  0  0
 22 24  1  0  0  0  0
 24 25  1  0  0  0  0
 24 26  1  0  0  0  0
 26 27  1  0  0  0  0
 26 28  1  0  0  0  0
 26 29  1  0  0  0  0
M  END
$$$$

  -OEChem-03222214043D

 29 29  0     1  0  0  0  0  0999 V2000
   -3.0008   -4.0360    0.7899 H   0  0  0  0  0  0  0  0  0  0  0  0
   -2.9548   -3.1213    0.1919 C   0  0  0  0  0  0  0  0  0  0  0  0
   -3.6457   -2.3890    0.6164 H   0  0  0  0  0  0  0  0  0  0  0  0
   -3.2617   -3.3539   -0.8306 H   0  0  0  0  0  0  0  0  0  0  0  0
   -1.5426   -2.5677    0.1961 C   0  0  0  0  0  0  0  0  0  0  0  0
   -0.6610   -3.1541    0.7973 O   0  0  0  0  0  0  0  0  0  0  0  0
   -1.2622   -1.3980   -0.4804 N   0  0  0  0  0  0  0  0  0  0  0  0
   -2.0457   -0.9028   -0.8990 H   0  0  0  0  0  0  0  0  0  0  0  0
    0.0375   -0.6993   -0.4347 C   0  0  1  0  0  0  0  0  0  0  0  0
    0.8141   -1.3941   -0.7734 H   0  0  0  0  0  0  0  0  0  0  0  0
    0.0468    0.5250   -1.3776 C   0  0  0  0  0  0  0  0  0  0  0  0
    0.7570    1.2731   -1.0061 H   0  0  0  0  0  0  0  0  0  0  0  0
    0.4056    0.2104   -2.3625 H   0  0  0  0  0  0  0  0  0  0  0  0
   -1.3168    1.1542   -1.5433 C   0  0  0  0  0  0  0  0  0  0  0  0
   -2.2750    0.8508   -2.4872 N   0  0  0  0  0  0  0  0  0  0  0  0
   -2.1726    0.1994   -3.2641 H   0  0  0  0  0  0  0  0  0  0  0  0
   -3.3640    1.6776   -2.2801 C   0  0  0  0  0  0  0  0  0  0  0  0
   -4.2722    1.6784   -2.8764 H   0  0  0  0  0  0  0  0  0  0  0  0
   -3.1422    2.4608   -1.2525 N   0  0  0  0  0  0  0  0  0  0  0  0
   -1.8616    2.1662   -0.7983 C   0  0  0  0  0  0  0  0  0  0  0  0
   -1.3704    2.6589    0.0357 H   0  0  0  0  0  0  0  0  0  0  0  0
    0.4425   -0.2552    0.9877 C   0  0  0  0  0  0  0  0  0  0  0  0
    1.6261   -0.2152    1.2955 O   0  0  0  0  0  0  0  0  0  0  0  0
   -0.4870    0.3502    1.8156 N   0  0  0  0  0  0  0  0  0  0  0  0
   -1.4603    0.2906    1.5339 H   0  0  0  0  0  0  0  0  0  0  0  0
   -0.1649    0.8595    3.1425 C   0  0  0  0  0  0  0  0  0  0  0  0
    0.6219    1.6187    3.0819 H   0  0  0  0  0  0  0  0  0  0  0  0
   -1.0492    1.3161    3.5971 H   0  0  0  0  0  0  0  0  0  0  0  0
    0.1789    0.0466    3.7907 H   0  0  0  0  0  0  0  0  0  0  0  0
  1  2  1  0  0  0  0
  2  3  1  0  0  0  0
  2  4  1  0  0  0  0
  2  5  1  0  0  0  0
  5  6  2  0  0  0  0
  5  7  1  0  0  0  0
  7  8  1  0  0  0  0
  7  9  1  0  0  0  0
  9 10  1  0  0  0  0
  9 11  1  0  0  0  0
  9 22  1  0  0  0  0
 11 12  1  0  0  0  0
 11 13  1  0  0  0  0
 11 14  1  0  0  0  0
 14 15  1  0  0  0  0
 14 20  2  0  0  0  0
 15 16  1  0  0  0  0
 15 17  1  0  0  0  0
 17 18  1  0  0  0  0
 17 19  2  0  0  0  0
 19 20  1  0  0  0  0
 20 21  1  0  0  0  0
 22 23  2  0  0  0  0
 22 24  1  0  0  0  0
 24 25  1  0  0  0  0
 24 26  1  0  0  0  0
 26 27  1  0  0  0  0
 26 28  1  0  0  0  0
 26 29  1  0  0  0  0
M  END
$$$$

  -OEChem-03222214043D

 29 29  0     1  0  0  0  0  0999 V2000
   -2.9695   -4.0472    0.8367 H   0  0  0  0  0  0  0  0  0  0  0  0
   -2.9387   -3.1326    0.2375 C   0  0  0  0  0  0  0  0  0  0  0  0
   -3.6074   -2.3952    0.6876 H   0  0  0  0  0  0  0  0  0  0  0  0
   -3.2850   -3.3629   -0.7728 H   0  0  0  0  0  0  0  0  0  0  0  0
   -1.5230   -2.5903    0.1893 C   0  0  0  0  0  0  0  0  0  0  0  0
   -0.6226   -3.1919    0.7456 O   0  0  0  0  0  0  0  0  0  0  0  0
   -1.2599   -1.4166   -0.4882 N   0  0  0  0  0  0  0  0  0  0  0  0
   -2.0603   -0.8954   -0.8355 H   0  0  0  0  0  0  0  0  0  0  0  0
    0.0343   -0.7094   -0.4417 C   0  0  1  0  0  0  0  0  0  0  0  0
    0.8158   -1.3973   -0.7836 H   0  0  0  0  0  0  0  0  0  0  0  0
    0.0449    0.5264   -1.3706 C   0  0  0  0  0  0  0  0  0  0  0  0
    0.7621    1.2655   -0.9945 H   0  0  0  0  0  0  0  0  0  0  0  0
    0.4015    0.2164   -2.3577 H   0  0  0  0  0  0  0  0  0  0  0  0
   -1.3112    1.1728   -1.5450 C   0  0  0  0  0  0  0  0  0  0  0  0
   -2.3776    0.7277   -2.3001 N   0  0  0  0  0  0  0  0  0  0  0  0
   -2.3680   -0.0552   -2.9524 H   0  0  0  0  0  0  0  0  0  0  0  0
   -3.4143    1.6324   -2.1618 C   0  0  0  0  0  0  0  0  0  0  0  0
   -4.3797    1.5593   -2.6546 H   0  0  0  0  0  0  0  0  0  0  0  0
   -3.0623    2.5948   -1.3451 N   0  0  0  0  0  0  0  0  0  0  0  0
   -1.7497    2.3347   -0.9666 C   0  0  0  0  0  0  0  0  0  0  0  0
   -1.1622    2.9569   -0.2974 H   0  0  0  0  0  0  0  0  0  0  0  0
    0.4336   -0.2674    0.9829 C   0  0  0  0  0  0  0  0  0  0  0  0
    1.6149   -0.2329    1.2998 O   0  0  0  0  0  0  0  0  0  0  0  0
   -0.5019    0.3291    1.8106 N   0  0  0  0  0  0  0  0  0  0  0  0
   -1.4690    0.3153    1.5035 H   0  0  0  0  0  0  0  0  0  0  0  0
   -0.1844    0.8565    3.1314 C   0  0  0  0  0  0  0  0  0  0  0  0
    0.5784    1.6388    3.0595 H   0  0  0  0  0  0  0  0  0  0  0  0
   -1.0784    1.2883    3.5911 H   0  0  0  0  0  0  0  0  0  0  0  0
    0.1891    0.0580    3.7812 H   0  0  0  0  0  0  0  0  0  0  0  0
  1  2  1  0  0  0  0
  2  3  1  0  0  0  0
  2  4  1  0  0  0  0
  2  5  1  0  0  0  0
  5  6  2  0  0  0  0
  5  7  1  0  0  0  0
  7  8  1  0  0  0  0
  7  9  1  0  0  0  0
  9 10  1  0  0  0  0
  9 11  1  0  0  0  0
  9 22  1  0  0  0  0
 11 12  1  0  0  0  0
 11 13  1  0  0  0  0
 11 14  1  0  0  0  0
 14 15  1  0  0  0  0
 14 20  2  0  0  0  0
 15 16  1  0  0  0  0
 15 17  1  0  0  0  0
 17 18  1  0  0  0  0
 17 19  2  0  0  0  0
 19 20  1  0  0  0  0
 20 21  1  0  0  0  0
 22 23  2  0  0  0  0
 22 24  1  0  0  0  0
 24 25  1  0  0  0  0
 24 26  1  0  0  0  0
 26 27  1  0  0  0  0
 26 28  1  0  0  0  0
 26 29  1  0  0  0  0
M  END
$$$$

  -OEChem-03222214043D

 29 29  0     1  0  0  0  0  0999 V2000
   -2.9070   -4.0849    0.8933 H   0  0  0  0  0  0  0  0  0  0  0  0
   -2.9052   -3.1652    0.3012 C   0  0  0  0  0  0  0  0  0  0  0  0
   -3.5478   -2.4307    0.7921 H   0  0  0  0  0  0  0  0  0  0  0  0
   -3.3044   -3.3861   -0.6913 H   0  0  0  0  0  0  0  0  0  0  0  0
   -1.4923   -2.6258    0.1839 C   0  0  0  0  0  0  0  0  0  0  0  0
   -0.5651   -3.2378    0.6816 O   0  0  0  0  0  0  0  0  0  0  0  0
   -1.2643   -1.4420   -0.4893 N   0  0  0  0  0  0  0  0  0  0  0  0
   -2.0855   -0.9042   -0.7478 H   0  0  0  0  0  0  0  0  0  0  0  0
    0.0177   -0.7149   -0.4436 C   0  0  1  0  0  0  0  0  0  0  0  0
    0.8063   -1.3934   -0.7888 H   0  0  0  0  0  0  0  0  0  0  0  0
    0.0296    0.5277   -1.3652 C   0  0  0  0  0  0  0  0  0  0  0  0
    0.7529    1.2598   -0.9870 H   0  0  0  0  0  0  0  0  0  0  0  0
    0.3912    0.2117   -2.3488 H   0  0  0  0  0  0  0  0  0  0  0  0
   -1.3141    1.1969   -1.5704 C   0  0  0  0  0  0  0  0  0  0  0  0
   -2.4776    0.6808   -2.1087 N   0  0  0  0  0  0  0  0  0  0  0  0
   -2.5613   -0.1948   -2.6232 H   0  0  0  0  0  0  0  0  0  0  0  0
   -3.4527    1.6602   -2.0583 C   0  0  0  0  0  0  0  0  0  0  0  0
   -4.4650    1.5567   -2.4389 H   0  0  0  0  0  0  0  0  0  0  0  0
   -2.9762    2.7375   -1.4858 N   0  0  0  0  0  0  0  0  0  0  0  0
   -1.6452    2.4701   -1.1860 C   0  0  0  0  0  0  0  0  0  0  0  0
   -0.9682    3.1677   -0.7016 H   0  0  0  0  0  0  0  0  0  0  0  0
    0.4162   -0.2796    0.9836 C   0  0  0  0  0  0  0  0  0  0  0  0
    1.5976   -0.2384    1.2992 O   0  0  0  0  0  0  0  0  0  0  0  0
   -0.5232    0.2944    1.8230 N   0  0  0  0  0  0  0  0  0  0  0  0
   -1.4833    0.3257    1.4968 H   0  0  0  0  0  0  0  0  0  0  0  0
   -0.1996    0.8442    3.1334 C   0  0  0  0  0  0  0  0  0  0  0  0
    0.5190    1.6650    3.0380 H   0  0  0  0  0  0  0  0  0  0  0  0
   -1.1029    1.2299    3.6155 H   0  0  0  0  0  0  0  0  0  0  0  0
    0.2325    0.0700    3.7763 H   0  0  0  0  0  0  0  0  0  0  0  0
  1  2  1  0  0  0  0
  2  3  1  0  0  0  0
  2  4  1  0  0  0  0
  2  5  1  0  0  0  0
  5  6  2  0  0  0  0
  5  7  1  0  0  0  0
  7  8  1  0  0  0  0
  7  9  1  0  0  0  0
  9 10  1  0  0  0  0
  9 11  1  0  0  0  0
  9 22  1  0  0  0  0
 11 12  1  0  0  0  0
 11 13  1  0  0  0  0
 11 14  1  0  0  0  0
 14 15  1  0  0  0  0
 14 20  2  0  0  0  0
 15 16  1  0  0  0  0
 15 17  1  0  0  0  0
 17 18  1  0  0  0  0
 17 19  2  0  0  0  0
 19 20  1  0  0  0  0
 20 21  1  0  0  0  0
 22 23  2  0  0  0  0
 22 24  1  0  0  0  0
 24 25  1  0  0  0  0
 24 26  1  0  0  0  0
 26 27  1  0  0  0  0
 26 28  1  0  0  0  0
 26 29  1  0  0  0  0
M  END
$$$$

  -OEChem-03222214043D

 29 29  0     1  0  0  0  0  0999 V2000
   -2.8250   -4.1378    0.9485 H   0  0  0  0  0  0  0  0  0  0  0  0
   -2.8586   -3.2157    0.3610 C   0  0  0  0  0  0  0  0  0  0  0  0
   -3.4862   -2.4903    0.8837 H   0  0  0  0  0  0  0  0  0  0  0  0
   -3.2993   -3.4369   -0.6139 H   0  0  0  0  0  0  0  0  0  0  0  0
   -1.4578   -2.6615    0.1835 C   0  0  0  0  0  0  0  0  0  0  0  0
   -0.5039   -3.2721    0.6291 O   0  0  0  0  0  0  0  0  0  0  0  0
   -1.2715   -1.4674   -0.4860 N   0  0  0  0  0  0  0  0  0  0  0  0
   -2.1102   -0.9263   -0.6624 H   0  0  0  0  0  0  0  0  0  0  0  0
   -0.0031   -0.7165   -0.4460 C   0  0  1  0  0  0  0  0  0  0  0  0
    0.7921   -1.3840   -0.7972 H   0  0  0  0  0  0  0  0  0  0  0  0
    0.0040    0.5314   -1.3622 C   0  0  0  0  0  0  0  0  0  0  0  0
    0.7340    1.2581   -0.9864 H   0  0  0  0  0  0  0  0  0  0  0  0
    0.3666    0.2076   -2.3430 H   0  0  0  0  0  0  0  0  0  0  0  0
   -1.3275    1.2220   -1.5958 C   0  0  0  0  0  0  0  0  0  0  0  0
   -2.5739    0.7036   -1.8964 N   0  0  0  0  0  0  0  0  0  0  0  0
   -2.7568   -0.2316   -2.2559 H   0  0  0  0  0  0  0  0  0  0  0  0
   -3.4820    1.7455   -1.9445 C   0  0  0  0  0  0  0  0  0  0  0  0
   -4.5343    1.6480   -2.1966 H   0  0  0  0  0  0  0  0  0  0  0  0
   -2.8873    2.8734   -1.6498 N   0  0  0  0  0  0  0  0  0  0  0  0
   -1.5492    2.5658   -1.4343 C   0  0  0  0  0  0  0  0  0  0  0  0
   -0.7882    3.2905   -1.1599 H   0  0  0  0  0  0  0  0  0  0  0  0
    0.4005   -0.2863    0.9815 C   0  0  0  0  0  0  0  0  0  0  0  0
    1.5827   -0.2400    1.2928 O   0  0  0  0  0  0  0  0  0  0  0  0
   -0.5411    0.2627    1.8353 N   0  0  0  0  0  0  0  0  0  0  0  0
   -1.4953    0.3277    1.4976 H   0  0  0  0  0  0  0  0  0  0  0  0
   -0.2106    0.8256    3.1385 C   0  0  0  0  0  0  0  0  0  0  0  0
    0.4731    1.6739    3.0281 H   0  0  0  0  0  0  0  0  0  0  0  0
   -1.1177    1.1752    3.6407 H   0  0  0  0  0  0  0  0  0  0  0  0
    0.2652    0.0694    3.7720 H   0  0  0  0  0  0  0  0  0  0  0  0
  1  2  1  0  0  0  0
  2  3  1  0  0  0  0
  2  4  1  0  0  0  0
  2  5  1  0  0  0  0
  5  6  2  0  0  0  0
  5  7  1  0  0  0  0
  7  8  1  0  0  0  0
  7  9  1  0  0  0  0
  9 10  1  0  0  0  0
  9 11  1  0  0  0  0
  9 22  1  0  0  0  0
 11 12  1  0  0  0  0
 11 13  1  0  0  0  0
 11 14  1  0  0  0  0
 14 15  1  0  0  0  0
 14 20  2  0  0  0  0
 15 16  1  0  0  0  0
 15 17  1  0  0  0  0
 17 18  1  0  0  0  0
 17 19  2  0  0  0  0
 19 20  1  0  0  0  0
 20 21  1  0  0  0  0
 22 23  2  0  0  0  0
 22 24  1  0  0  0  0
 24 25  1  0  0  0  0
 24 26  1  0  0  0  0
 26 27  1  0  0  0  0
 26 28  1  0  0  0  0
 26 29  1  0  0  0  0
M  END
$$$$

  -OEChem-03222214043D

 29 29  0     1  0  0  0  0  0999 V2000
   -2.7815   -4.3470    0.7231 H   0  0  0  0  0  0  0  0  0  0  0  0
   -2.7984   -3.4448    0.1045 C   0  0  0  0  0  0  0  0  0  0  0  0
   -3.6989   -2.8734    0.3417 H   0  0  0  0  0  0  0  0  0  0  0  0
   -2.8269   -3.7423   -0.9466 H   0  0  0  0  0  0  0  0  0  0  0  0
   -1.5639   -2.6056    0.3752 C   0  0  0  0  0  0  0  0  0  0  0  0
   -0.7723   -2.9604    1.2280 O   0  0  0  0  0  0  0  0  0  0  0  0
   -1.3493   -1.4544   -0.3602 N   0  0  0  0  0  0  0  0  0  0  0  0
   -1.9106   -1.3787   -1.2002 H   0  0  0  0  0  0  0  0  0  0  0  0
   -0.0570   -0.7402   -0.3902 C   0  0  1  0  0  0  0  0  0  0  0  0
    0.7134   -1.4312   -0.7503 H   0  0  0  0  0  0  0  0  0  0  0  0
   -0.0819    0.4987   -1.3217 C   0  0  0  0  0  0  0  0  0  0  0  0
    0.6962    1.2077   -1.0135 H   0  0  0  0  0  0  0  0  0  0  0  0
    0.2058    0.1428   -2.3160 H   0  0  0  0  0  0  0  0  0  0  0  0
   -1.3965    1.2438   -1.5020 C   0  0  0  0  0  0  0  0  0  0  0  0
   -2.7233    0.8525   -1.4652 N   0  0  0  0  0  0  0  0  0  0  0  0
   -3.0786   -0.0656   -1.2203 H   0  0  0  0  0  0  0  0  0  0  0  0
   -3.5216    1.9577   -1.6933 C   0  0  0  0  0  0  0  0  0  0  0  0
   -4.6078    1.9525   -1.7136 H   0  0  0  0  0  0  0  0  0  0  0  0
   -2.7781    3.0181   -1.8747 N   0  0  0  0  0  0  0  0  0  0  0  0
   -1.4610    2.5917   -1.7540 C   0  0  0  0  0  0  0  0  0  0  0  0
   -0.5966    3.2426   -1.8478 H   0  0  0  0  0  0  0  0  0  0  0  0
    0.4105   -0.2412    0.9968 C   0  0  0  0  0  0  0  0  0  0  0  0
    1.6079   -0.2023    1.2484 O   0  0  0  0  0  0  0  0  0  0  0  0
   -0.4791    0.3855    1.8506 N   0  0  0  0  0  0  0  0  0  0  0  0
   -1.4623    0.3322    1.6061 H   0  0  0  0  0  0  0  0  0  0  0  0
   -0.0960    0.9349    3.1445 C   0  0  0  0  0  0  0  0  0  0  0  0
    0.6738    1.7039    3.0218 H   0  0  0  0  0  0  0  0  0  0  0  0
   -0.9621    1.3899    3.6342 H   0  0  0  0  0  0  0  0  0  0  0  0
    0.2953    0.1447    3.7938 H   0  0  0  0  0  0  0  0  0  0  0  0
  1  2  1  0  0  0  0
  2  3  1  0  0  0  0
  2  4  1  0  0  0  0
  2  5  1  0  0  0  0
  5  6  2  0  0  0  0
  5  7  1  0  0  0  0
  7  8  1  0  0  0  0
  7  9  1  0  0  0  0
  9 10  1  0  0  0  0
  9 11  1  0  0  0  0
  9 22  1  0  0  0  0
 11 12  1  0  0  0  0
 11 13  1  0  0  0  0
 11 14  1  0  0  0  0
 14 15  1  0  0  0  0
 14 20  2  0  0  0  0
 15 16  1  0  0  0  0
 15 17  1  0  0  0  0
 17 18  1  0  0  0  0
 17 19  2  0  0  0  0
 19 20  1  0  0  0  0
 20 21  1  0  0  0  0
 22 23  2  0  0  0  0
 22 24  1  0  0  0  0
 24 25  1  0  0  0  0
 24 26  1  0  0  0  0
 26 27  1  0  0  0  0
 26 28  1  0  0  0  0
 26 29  1  0  0  0  0
M  END
$$$$

  -OEChem-03222214043D

 29 29  0     1  0  0  0  0  0999 V2000
   -2.7839   -4.3485    0.6558 H   0  0  0  0  0  0  0  0  0  0  0  0
   -2.8192   -3.4176    0.0821 C   0  0  0  0  0  0  0  0  0  0  0  0
   -3.7170   -2.8640    0.3665 H   0  0  0  0  0  0  0  0  0  0  0  0
   -2.8706   -3.6647   -0.9810 H   0  0  0  0  0  0  0  0  0  0  0  0
   -1.5824   -2.5854    0.3650 C   0  0  0  0  0  0  0  0  0  0  0  0
   -0.7990   -2.9459    1.2228 O   0  0  0  0  0  0  0  0  0  0  0  0
   -1.3605   -1.4268   -0.3559 N   0  0  0  0  0  0  0  0  0  0  0  0
   -1.9345   -1.3231   -1.1872 H   0  0  0  0  0  0  0  0  0  0  0  0
   -0.0620   -0.7214   -0.3854 C   0  0  1  0  0  0  0  0  0  0  0  0
    0.6990   -1.4172   -0.7561 H   0  0  0  0  0  0  0  0  0  0  0  0
   -0.0856    0.5173   -1.3173 C   0  0  0  0  0  0  0  0  0  0  0  0
    0.6896    1.2276   -1.0058 H   0  0  0  0  0  0  0  0  0  0  0  0
    0.2044    0.1651   -2.3124 H   0  0  0  0  0  0  0  0  0  0  0  0
   -1.3987    1.2644   -1.4916 C   0  0  0  0  0  0  0  0  0  0  0  0
   -2.7098    0.9427   -1.1924 N   0  0  0  0  0  0  0  0  0  0  0  0
   -3.0229    0.1297   -0.6692 H   0  0  0  0  0  0  0  0  0  0  0  0
   -3.5242    1.9960   -1.5636 C   0  0  0  0  0  0  0  0  0  0  0  0
   -4.6021    2.0319   -1.4320 H   0  0  0  0  0  0  0  0  0  0  0  0
   -2.8047    2.9529   -2.0913 N   0  0  0  0  0  0  0  0  0  0  0  0
   -1.4861    2.5157   -2.0483 C   0  0  0  0  0  0  0  0  0  0  0  0
   -0.6383    3.0889   -2.4122 H   0  0  0  0  0  0  0  0  0  0  0  0
    0.4258   -0.2398    1.0004 C   0  0  0  0  0  0  0  0  0  0  0  0
    1.6262   -0.2172    1.2395 O   0  0  0  0  0  0  0  0  0  0  0  0
   -0.4470    0.3863    1.8720 N   0  0  0  0  0  0  0  0  0  0  0  0
   -1.4339    0.3303    1.6473 H   0  0  0  0  0  0  0  0  0  0  0  0
   -0.0437    0.8995    3.1747 C   0  0  0  0  0  0  0  0  0  0  0  0
    0.7410    1.6553    3.0641 H   0  0  0  0  0  0  0  0  0  0  0  0
   -0.8972    1.3612    3.6802 H   0  0  0  0  0  0  0  0  0  0  0  0
    0.3355    0.0873    3.8036 H   0  0  0  0  0  0  0  0  0  0  0  0
  1  2  1  0  0  0  0
  2  3  1  0  0  0  0
  2  4  1  0  0  0  0
  2  5  1  0  0  0  0
  5  6  2  0  0  0  0
  5  7  1  0  0  0  0
  7  8  1  0  0  0  0
  7  9  1  0  0  0  0
  9 10  1  0  0  0  0
  9 11  1  0  0  0  0
  9 22  1  0  0  0  0
 11 12  1  0  0  0  0
 11 13  1  0  0  0  0
 11 14  1  0  0  0  0
 14 15  1  0  0  0  0
 14 20  2  0  0  0  0
 15 16  1  0  0  0  0
 15 17  1  0  0  0  0
 17 18  1  0  0  0  0
 17 19  2  0  0  0  0
 19 20  1  0  0  0  0
 20 21  1  0  0  0  0
 22 23  2  0  0  0  0
 22 24  1  0  0  0  0
 24 25  1  0  0  0  0
 24 26  1  0  0  0  0
 26 27  1  0  0  0  0
 26 28  1  0  0  0  0
 26 29  1  0  0  0  0
M  END
$$$$

  -OEChem-03222214043D

 29 29  0     1  0  0  0  0  0999 V2000
   -2.8460   -4.2960    0.6340 H   0  0  0  0  0  0  0  0  0  0  0  0
   -2.8605   -3.3628    0.0636 C   0  0  0  0  0  0  0  0  0  0  0  0
   -3.7436   -2.7880    0.3518 H   0  0  0  0  0  0  0  0  0  0  0  0
   -2.9205   -3.6043   -1.0004 H   0  0  0  0  0  0  0  0  0  0  0  0
   -1.6035   -2.5619    0.3454 C   0  0  0  0  0  0  0  0  0  0  0  0
   -0.8162   -2.9502    1.1875 O   0  0  0  0  0  0  0  0  0  0  0  0
   -1.3684   -1.3922   -0.3513 N   0  0  0  0  0  0  0  0  0  0  0  0
   -1.9751   -1.2275   -1.1504 H   0  0  0  0  0  0  0  0  0  0  0  0
   -0.0654   -0.6955   -0.3722 C   0  0  1  0  0  0  0  0  0  0  0  0
    0.6858   -1.3988   -0.7485 H   0  0  0  0  0  0  0  0  0  0  0  0
   -0.0780    0.5359   -1.3133 C   0  0  0  0  0  0  0  0  0  0  0  0
    0.6860    1.2513   -0.9868 H   0  0  0  0  0  0  0  0  0  0  0  0
    0.2314    0.1857   -2.3033 H   0  0  0  0  0  0  0  0  0  0  0  0
   -1.3908    1.2784   -1.4990 C   0  0  0  0  0  0  0  0  0  0  0  0
   -2.6516    1.0750   -0.9709 N   0  0  0  0  0  0  0  0  0  0  0  0
   -2.8995    0.3916   -0.2598 H   0  0  0  0  0  0  0  0  0  0  0  0
   -3.5060    2.0392   -1.4719 C   0  0  0  0  0  0  0  0  0  0  0  0
   -4.5579    2.1381   -1.2188 H   0  0  0  0  0  0  0  0  0  0  0  0
   -2.8599    2.8223   -2.2977 N   0  0  0  0  0  0  0  0  0  0  0  0
   -1.5470    2.3661   -2.3203 C   0  0  0  0  0  0  0  0  0  0  0  0
   -0.7527    2.8111   -2.9125 H   0  0  0  0  0  0  0  0  0  0  0  0
    0.4409   -0.2378    1.0154 C   0  0  0  0  0  0  0  0  0  0  0  0
    1.6455   -0.2120    1.2323 O   0  0  0  0  0  0  0  0  0  0  0  0
   -0.4145    0.3823    1.9087 N   0  0  0  0  0  0  0  0  0  0  0  0
   -1.4063    0.2856    1.7269 H   0  0  0  0  0  0  0  0  0  0  0  0
    0.0176    0.8701    3.2124 C   0  0  0  0  0  0  0  0  0  0  0  0
    0.8047    1.6233    3.0988 H   0  0  0  0  0  0  0  0  0  0  0  0
   -0.8226    1.3282    3.7427 H   0  0  0  0  0  0  0  0  0  0  0  0
    0.4041    0.0448    3.8197 H   0  0  0  0  0  0  0  0  0  0  0  0
  1  2  1  0  0  0  0
  2  3  1  0  0  0  0
  2  4  1  0  0  0  0
  2  5  1  0  0  0  0
  5  6  2  0  0  0  0
  5  7  1  0  0  0  0
  7  8  1  0  0  0  0
  7  9  1  0  0  0  0
  9 10  1  0  0  0  0
  9 11  1  0  0  0  0
  9 22  1  0  0  0  0
 11 12  1  0  0  0  0
 11 13  1  0  0  0  0
 11 14  1  0  0  0  0
 14 15  1  0  0  0  0
 14 20  2  0  0  0  0
 15 16  1  0  0  0  0
 15 17  1  0  0  0  0
 17 18  1  0  0  0  0
 17 19  2  0  0  0  0
 19 20  1  0  0  0  0
 20 21  1  0  0  0  0
 22 23  2  0  0  0  0
 22 24  1  0  0  0  0
 24 25  1  0  0  0  0
 24 26  1  0  0  0  0
 26 27  1  0  0  0  0
 26 28  1  0  0  0  0
 26 29  1  0  0  0  0
M  END
$$$$

  -OEChem-03222214043D

 29 29  0     1  0  0  0  0  0999 V2000
   -2.9159   -4.2235    0.6059 H   0  0  0  0  0  0  0  0  0  0  0  0
   -2.9085   -3.2833    0.0469 C   0  0  0  0  0  0  0  0  0  0  0  0
   -3.7671   -2.6830    0.3559 H   0  0  0  0  0  0  0  0  0  0  0  0
   -2.9933   -3.5092   -1.0189 H   0  0  0  0  0  0  0  0  0  0  0  0
   -1.6212   -2.5276    0.3165 C   0  0  0  0  0  0  0  0  0  0  0  0
   -0.8289   -2.9517    1.1369 O   0  0  0  0  0  0  0  0  0  0  0  0
   -1.3663   -1.3482   -0.3548 N   0  0  0  0  0  0  0  0  0  0  0  0
   -2.0107   -1.1076   -1.1048 H   0  0  0  0  0  0  0  0  0  0  0  0
   -0.0581   -0.6621   -0.3632 C   0  0  1  0  0  0  0  0  0  0  0  0
    0.6843   -1.3749   -0.7397 H   0  0  0  0  0  0  0  0  0  0  0  0
   -0.0511    0.5586   -1.3165 C   0  0  0  0  0  0  0  0  0  0  0  0
    0.6984    1.2796   -0.9700 H   0  0  0  0  0  0  0  0  0  0  0  0
    0.2842    0.2101   -2.2988 H   0  0  0  0  0  0  0  0  0  0  0  0
   -1.3653    1.2912   -1.5150 C   0  0  0  0  0  0  0  0  0  0  0  0
   -2.5427    1.2497   -0.7945 N   0  0  0  0  0  0  0  0  0  0  0  0
   -2.6916    0.7534    0.0801 H   0  0  0  0  0  0  0  0  0  0  0  0
   -3.4643    2.0828   -1.3999 C   0  0  0  0  0  0  0  0  0  0  0  0
   -4.4739    2.2654   -1.0427 H   0  0  0  0  0  0  0  0  0  0  0  0
   -2.9414    2.6217   -2.4724 N   0  0  0  0  0  0  0  0  0  0  0  0
   -1.6388    2.1424   -2.5550 C   0  0  0  0  0  0  0  0  0  0  0  0
   -0.9367    2.4026   -3.3416 H   0  0  0  0  0  0  0  0  0  0  0  0
    0.4541   -0.2332    1.0307 C   0  0  0  0  0  0  0  0  0  0  0  0
    1.6607   -0.1916    1.2332 O   0  0  0  0  0  0  0  0  0  0  0  0
   -0.3974    0.3770    1.9352 N   0  0  0  0  0  0  0  0  0  0  0  0
   -1.3832    0.1830    1.8092 H   0  0  0  0  0  0  0  0  0  0  0  0
    0.0529    0.8408    3.2419 C   0  0  0  0  0  0  0  0  0  0  0  0
    0.8448    1.5892    3.1312 H   0  0  0  0  0  0  0  0  0  0  0  0
   -0.7774    1.2986    3.7880 H   0  0  0  0  0  0  0  0  0  0  0  0
    0.4396    0.0034    3.8326 H   0  0  0  0  0  0  0  0  0  0  0  0
  1  2  1  0  0  0  0
  2  3  1  0  0  0  0
  2  4  1  0  0  0  0
  2  5  1  0  0  0  0
  5  6  2  0  0  0  0
  5  7  1  0  0  0  0
  7  8  1  0  0  0  0
  7  9  1  0  0  0  0
  9 10  1  0  0  0  0
  9 11  1  0  0  0  0
  9 22  1  0  0  0  0
 11 12  1  0  0  0  0
 11 13  1  0  0  0  0
 11 14  1  0  0  0  0
 14 15  1  0  0  0  0
 14 20  2  0  0  0  0
 15 16  1  0  0  0  0
 15 17  1  0  0  0  0
 17 18  1  0  0  0  0
 17 19  2  0  0  0  0
 19 20  1  0  0  0  0
 20 21  1  0  0  0  0
 22 23  2  0  0  0  0
 22 24  1  0  0  0  0
 24 25  1  0  0  0  0
 24 26  1  0  0  0  0
 26 27  1  0  0  0  0
 26 28  1  0  0  0  0
 26 29  1  0  0  0  0
M  END
$$$$

  -OEChem-03222214043D

 29 29  0     1  0  0  0  0  0999 V2000
   -2.9941   -4.1341    0.5944 H   0  0  0  0  0  0  0  0  0  0  0  0
   -2.9590   -3.1913    0.0411 C   0  0  0  0  0  0  0  0  0  0  0  0
   -3.7779   -2.5529    0.3807 H   0  0  0  0  0  0  0  0  0  0  0  0
   -3.0887   -3.4046   -1.0227 H   0  0  0  0  0  0  0  0  0  0  0  0
   -1.6290   -2.5000    0.2738 C   0  0  0  0  0  0  0  0  0  0  0  0
   -0.8303   -2.9668    1.0647 O   0  0  0  0  0  0  0  0  0  0  0  0
   -1.3451   -1.3197   -0.3825 N   0  0  0  0  0  0  0  0  0  0  0  0
   -2.0219   -1.0026   -1.0736 H   0  0  0  0  0  0  0  0  0  0  0  0
   -0.0306   -0.6462   -0.3748 C   0  0  1  0  0  0  0  0  0  0  0  0
    0.7094   -1.3660   -0.7421 H   0  0  0  0  0  0  0  0  0  0  0  0
   -0.0015    0.5691   -1.3324 C   0  0  0  0  0  0  0  0  0  0  0  0
    0.7406    1.2911   -0.9732 H   0  0  0  0  0  0  0  0  0  0  0  0
    0.3469    0.2218   -2.3106 H   0  0  0  0  0  0  0  0  0  0  0  0
   -1.3190    1.2903   -1.5318 C   0  0  0  0  0  0  0  0  0  0  0  0
   -2.3783    1.4405   -0.6607 N   0  0  0  0  0  0  0  0  0  0  0  0
   -2.3775    1.1968    0.3267 H   0  0  0  0  0  0  0  0  0  0  0  0
   -3.3851    2.1343   -1.3048 C   0  0  0  0  0  0  0  0  0  0  0  0
   -4.3323    2.4231   -0.8576 H   0  0  0  0  0  0  0  0  0  0  0  0
   -3.0299    2.3937   -2.5385 N   0  0  0  0  0  0  0  0  0  0  0  0
   -1.7470    1.8801   -2.6932 C   0  0  0  0  0  0  0  0  0  0  0  0
   -1.1701    1.9294   -3.6122 H   0  0  0  0  0  0  0  0  0  0  0  0
    0.4603   -0.2376    1.0317 C   0  0  0  0  0  0  0  0  0  0  0  0
    1.6638   -0.1639    1.2423 O   0  0  0  0  0  0  0  0  0  0  0  0
   -0.4126    0.3676    1.9199 N   0  0  0  0  0  0  0  0  0  0  0  0
   -1.3768    0.0707    1.8248 H   0  0  0  0  0  0  0  0  0  0  0  0
    0.0250    0.8303    3.2320 C   0  0  0  0  0  0  0  0  0  0  0  0
    0.8123    1.5850    3.1313 H   0  0  0  0  0  0  0  0  0  0  0  0
   -0.8128    1.2795    3.7737 H   0  0  0  0  0  0  0  0  0  0  0  0
    0.4140   -0.0063    3.8220 H   0  0  0  0  0  0  0  0  0  0  0  0
  1  2  1  0  0  0  0
  2  3  1  0  0  0  0
  2  4  1  0  0  0  0
  2  5  1  0  0  0  0
  5  6  2  0  0  0  0
  5  7  1  0  0  0  0
  7  8  1  0  0  0  0
  7  9  1  0  0  0  0
  9 10  1  0  0  0  0
  9 11  1  0  0  0  0
  9 22  1  0  0  0  0
 11 12  1  0  0  0  0
 11 13  1  0  0  0  0
 11 14  1  0  0  0  0
 14 15  1  0  0  0  0
 14 20  2  0  0  0  0
 15 16  1  0  0  0  0
 15 17  1  0  0  0  0
 17 18  1  0  0  0  0
 17 19  2  0  0  0  0
 19 20  1  0  0  0  0
 20 21  1  0  0  0  0
 22 23  2  0  0  0  0
 22 24  1  0  0  0  0
 24 25  1  0  0  0  0
 24 26  1  0  0  0  0
 26 27  1  0  0  0  0
 26 28  1  0  0  0  0
 26 29  1  0  0  0  0
M  END
$$$$

  -OEChem-03222214043D

 29 29  0     1  0  0  0  0  0999 V2000
   -3.0542   -4.0560    0.6060 H   0  0  0  0  0  0  0  0  0  0  0  0
   -2.9913   -3.1223    0.0398 C   0  0  0  0  0  0  0  0  0  0  0  0
   -3.7802   -2.4486    0.3826 H   0  0  0  0  0  0  0  0  0  0  0  0
   -3.1440   -3.3436   -1.0192 H   0  0  0  0  0  0  0  0  0  0  0  0
   -1.6323   -2.4803    0.2441 C   0  0  0  0  0  0  0  0  0  0  0  0
   -0.8338   -2.9769    1.0173 O   0  0  0  0  0  0  0  0  0  0  0  0
   -1.3181   -1.3119   -0.4190 N   0  0  0  0  0  0  0  0  0  0  0  0
   -2.0127   -0.9423   -1.0647 H   0  0  0  0  0  0  0  0  0  0  0  0
    0.0034   -0.6521   -0.3969 C   0  0  1  0  0  0  0  0  0  0  0  0
    0.7459   -1.3776   -0.7475 H   0  0  0  0  0  0  0  0  0  0  0  0
    0.0496    0.5596   -1.3569 C   0  0  0  0  0  0  0  0  0  0  0  0
    0.7912    1.2830   -0.9999 H   0  0  0  0  0  0  0  0  0  0  0  0
    0.3955    0.2082   -2.3345 H   0  0  0  0  0  0  0  0  0  0  0  0
   -1.2751    1.2644   -1.5460 C   0  0  0  0  0  0  0  0  0  0  0  0
   -2.1874    1.6274   -0.5784 N   0  0  0  0  0  0  0  0  0  0  0  0
   -2.0278    1.6075    0.4273 H   0  0  0  0  0  0  0  0  0  0  0  0
   -3.2781    2.2051   -1.2000 C   0  0  0  0  0  0  0  0  0  0  0  0
   -4.1463    2.6135   -0.6904 H   0  0  0  0  0  0  0  0  0  0  0  0
   -3.1124    2.1880   -2.5000 N   0  0  0  0  0  0  0  0  0  0  0  0
   -1.8665    1.6154   -2.7310 C   0  0  0  0  0  0  0  0  0  0  0  0
   -1.4328    1.4544   -3.7134 H   0  0  0  0  0  0  0  0  0  0  0  0
    0.4598   -0.2376    1.0185 C   0  0  0  0  0  0  0  0  0  0  0  0
    1.6569   -0.1601    1.2614 O   0  0  0  0  0  0  0  0  0  0  0  0
   -0.4381    0.3820    1.8720 N   0  0  0  0  0  0  0  0  0  0  0  0
   -1.3980    0.0772    1.7510 H   0  0  0  0  0  0  0  0  0  0  0  0
   -0.0398    0.8509    3.1944 C   0  0  0  0  0  0  0  0  0  0  0  0
    0.7499    1.6053    3.1127 H   0  0  0  0  0  0  0  0  0  0  0  0
   -0.8931    1.3020    3.7095 H   0  0  0  0  0  0  0  0  0  0  0  0
    0.3319    0.0174    3.8001 H   0  0  0  0  0  0  0  0  0  0  0  0
  1  2  1  0  0  0  0
  2  3  1  0  0  0  0
  2  4  1  0  0  0  0
  2  5  1  0  0  0  0
  5  6  2  0  0  0  0
  5  7  1  0  0  0  0
  7  8  1  0  0  0  0
  7  9  1  0  0  0  0
  9 10  1  0  0  0  0
  9 11  1  0  0  0  0
  9 22  1  0  0  0  0
 11 12  1  0  0  0  0
 11 13  1  0  0  0  0
 11 14  1  0  0  0  0
 14 15  1  0  0  0  0
 14 20  2  0  0  0  0
 15 16  1  0  0  0  0
 15 17  1  0  0  0  0
 17 18  1  0  0  0  0
 17 19  2  0  0  0  0
 19 20  1  0  0  0  0
 20 21  1  0  0  0  0
 22 23  2  0  0  0  0
 22 24  1  0  0  0  0
 24 25  1  0  0  0  0
 24 26  1  0  0  0  0
 26 27  1  0  0  0  0
 26 28  1  0  0  0  0
 26 29  1  0  0  0  0
M  END
$$$$

  -OEChem-03222214043D

 29 29  0     1  0  0  0  0  0999 V2000
   -3.0732   -4.0094    0.6417 H   0  0  0  0  0  0  0  0  0  0  0  0
   -2.9991   -3.0835    0.0642 C   0  0  0  0  0  0  0  0  0  0  0  0
   -3.7619   -2.3858    0.4174 H   0  0  0  0  0  0  0  0  0  0  0  0
   -3.1818   -3.3112   -0.9888 H   0  0  0  0  0  0  0  0  0  0  0  0
   -1.6201   -2.4746    0.2312 C   0  0  0  0  0  0  0  0  0  0  0  0
   -0.8146   -2.9876    0.9865 O   0  0  0  0  0  0  0  0  0  0  0  0
   -1.2933   -1.3198   -0.4492 N   0  0  0  0  0  0  0  0  0  0  0  0
   -2.0016   -0.9249   -1.0643 H   0  0  0  0  0  0  0  0  0  0  0  0
    0.0294   -0.6620   -0.4194 C   0  0  1  0  0  0  0  0  0  0  0  0
    0.7793   -1.3883   -0.7520 H   0  0  0  0  0  0  0  0  0  0  0  0
    0.0808    0.5460   -1.3818 C   0  0  0  0  0  0  0  0  0  0  0  0
    0.8233    1.2735   -1.0350 H   0  0  0  0  0  0  0  0  0  0  0  0
    0.4200    0.1879   -2.3593 H   0  0  0  0  0  0  0  0  0  0  0  0
   -1.2536    1.2302   -1.5619 C   0  0  0  0  0  0  0  0  0  0  0  0
   -2.0174    1.8221   -0.5802 N   0  0  0  0  0  0  0  0  0  0  0  0
   -1.7346    1.9729    0.3877 H   0  0  0  0  0  0  0  0  0  0  0  0
   -3.1728    2.3088   -1.1614 C   0  0  0  0  0  0  0  0  0  0  0  0
   -3.9612    2.8420   -0.6373 H   0  0  0  0  0  0  0  0  0  0  0  0
   -3.1801    2.0289   -2.4426 N   0  0  0  0  0  0  0  0  0  0  0  0
   -1.9834    1.3738   -2.7120 C   0  0  0  0  0  0  0  0  0  0  0  0
   -1.6810    1.0133   -3.6909 H   0  0  0  0  0  0  0  0  0  0  0  0
    0.4564   -0.2245    0.9984 C   0  0  0  0  0  0  0  0  0  0  0  0
    1.6466   -0.1572    1.2750 O   0  0  0  0  0  0  0  0  0  0  0  0
   -0.4590    0.4106    1.8215 N   0  0  0  0  0  0  0  0  0  0  0  0
   -1.4247    0.1494    1.6491 H   0  0  0  0  0  0  0  0  0  0  0  0
   -0.1038    0.8652    3.1611 C   0  0  0  0  0  0  0  0  0  0  0  0
    0.7012    1.6064    3.1153 H   0  0  0  0  0  0  0  0  0  0  0  0
   -0.9686    1.3275    3.6467 H   0  0  0  0  0  0  0  0  0  0  0  0
    0.2303    0.0217    3.7746 H   0  0  0  0  0  0  0  0  0  0  0  0
  1  2  1  0  0  0  0
  2  3  1  0  0  0  0
  2  4  1  0  0  0  0
  2  5  1  0  0  0  0
  5  6  2  0  0  0  0
  5  7  1  0  0  0  0
  7  8  1  0  0  0  0
  7  9  1  0  0  0  0
  9 10  1  0  0  0  0
  9 11  1  0  0  0  0
  9 22  1  0  0  0  0
 11 12  1  0  0  0  0
 11 13  1  0  0  0  0
 11 14  1  0  0  0  0
 14 15  1  0  0  0  0
 14 20  2  0  0  0  0
 15 16  1  0  0  0  0
 15 17  1  0  0  0  0
 17 18  1  0  0  0  0
 17 19  2  0  0  0  0
 19 20  1  0  0  0  0
 20 21  1  0  0  0  0
 22 23  2  0  0  0  0
 22 24  1  0  0  0  0
 24 25  1  0  0  0  0
 24 26  1  0  0  0  0
 26 27  1  0  0  0  0
 26 28  1  0  0  0  0
 26 29  1  0  0  0  0
M  END
$$$$

  -OEChem-03222214043D

 29 29  0     1  0  0  0  0  0999 V2000
   -3.0663   -3.9926    0.6929 H   0  0  0  0  0  0  0  0  0  0  0  0
   -2.9946   -3.0704    0.1090 C   0  0  0  0  0  0  0  0  0  0  0  0
   -3.7275   -2.3551    0.4893 H   0  0  0  0  0  0  0  0  0  0  0  0
   -3.2244   -3.2970   -0.9349 H   0  0  0  0  0  0  0  0  0  0  0  0
   -1.5972   -2.4909    0.2190 C   0  0  0  0  0  0  0  0  0  0  0  0
   -0.7712   -3.0245    0.9370 O   0  0  0  0  0  0  0  0  0  0  0  0
   -1.2749   -1.3409   -0.4719 N   0  0  0  0  0  0  0  0  0  0  0  0
   -2.0066   -0.9154   -1.0364 H   0  0  0  0  0  0  0  0  0  0  0  0
    0.0438   -0.6749   -0.4371 C   0  0  1  0  0  0  0  0  0  0  0  0
    0.8026   -1.3950   -0.7625 H   0  0  0  0  0  0  0  0  0  0  0  0
    0.0914    0.5368   -1.3937 C   0  0  0  0  0  0  0  0  0  0  0  0
    0.8320    1.2686   -1.0516 H   0  0  0  0  0  0  0  0  0  0  0  0
    0.4265    0.1800   -2.3731 H   0  0  0  0  0  0  0  0  0  0  0  0
   -1.2503    1.2057   -1.5677 C   0  0  0  0  0  0  0  0  0  0  0  0
   -1.8854    2.0231   -0.6595 N   0  0  0  0  0  0  0  0  0  0  0  0
   -1.5135    2.3242    0.2411 H   0  0  0  0  0  0  0  0  0  0  0  0
   -3.0834    2.4366   -1.2110 C   0  0  0  0  0  0  0  0  0  0  0  0
   -3.8012    3.0948   -0.7290 H   0  0  0  0  0  0  0  0  0  0  0  0
   -3.2309    1.9115   -2.4042 N   0  0  0  0  0  0  0  0  0  0  0  0
   -2.0851    1.1645   -2.6527 C   0  0  0  0  0  0  0  0  0  0  0  0
   -1.8882    0.6160   -3.5692 H   0  0  0  0  0  0  0  0  0  0  0  0
    0.4531   -0.2212    0.9805 C   0  0  0  0  0  0  0  0  0  0  0  0
    1.6385   -0.1604    1.2785 O   0  0  0  0  0  0  0  0  0  0  0  0
   -0.4736    0.4171    1.7879 N   0  0  0  0  0  0  0  0  0  0  0  0
   -1.4437    0.2137    1.5684 H   0  0  0  0  0  0  0  0  0  0  0  0
   -0.1499    0.8693    3.1356 C   0  0  0  0  0  0  0  0  0  0  0  0
    0.6678    1.5974    3.1111 H   0  0  0  0  0  0  0  0  0  0  0  0
   -1.0209    1.3463    3.5946 H   0  0  0  0  0  0  0  0  0  0  0  0
    0.1527    0.0218    3.7600 H   0  0  0  0  0  0  0  0  0  0  0  0
  1  2  1  0  0  0  0
  2  3  1  0  0  0  0
  2  4  1  0  0  0  0
  2  5  1  0  0  0  0
  5  6  2  0  0  0  0
  5  7  1  0  0  0  0
  7  8  1  0  0  0  0
  7  9  1  0  0  0  0
  9 10  1  0  0  0  0
  9 11  1  0  0  0  0
  9 22  1  0  0  0  0
 11 12  1  0  0  0  0
 11 13  1  0  0  0  0
 11 14  1  0  0  0  0
 14 15  1  0  0  0  0
 14 20  2  0  0  0  0
 15 16  1  0  0  0  0
 15 17  1  0  0  0  0
 17 18  1  0  0  0  0
 17 19  2  0  0  0  0
 19 20  1  0  0  0  0
 20 21  1  0  0  0  0
 22 23  2  0  0  0  0
 22 24  1  0  0  0  0
 24 25  1  0  0  0  0
 24 26  1  0  0  0  0
 26 27  1  0  0  0  0
 26 28  1  0  0  0  0
 26 29  1  0  0  0  0
M  END
$$$$

  -OEChem-03222214043D

 29 29  0     1  0  0  0  0  0999 V2000
   -3.0523   -4.0069    0.7275 H   0  0  0  0  0  0  0  0  0  0  0  0
   -2.9855   -3.0919    0.1320 C   0  0  0  0  0  0  0  0  0  0  0  0
   -3.7185   -2.3735    0.5065 H   0  0  0  0  0  0  0  0  0  0  0  0
   -3.2188   -3.3324   -0.9081 H   0  0  0  0  0  0  0  0  0  0  0  0
   -1.5888   -2.5080    0.2281 C   0  0  0  0  0  0  0  0  0  0  0  0
   -0.7525   -3.0429    0.9332 O   0  0  0  0  0  0  0  0  0  0  0  0
   -1.2744   -1.3615   -0.4729 N   0  0  0  0  0  0  0  0  0  0  0  0
   -2.0190   -0.9288   -1.0135 H   0  0  0  0  0  0  0  0  0  0  0  0
    0.0413   -0.6889   -0.4428 C   0  0  1  0  0  0  0  0  0  0  0  0
    0.8038   -1.4062   -0.7658 H   0  0  0  0  0  0  0  0  0  0  0  0
    0.0860    0.5257   -1.3962 C   0  0  0  0  0  0  0  0  0  0  0  0
    0.8312    1.2561   -1.0614 H   0  0  0  0  0  0  0  0  0  0  0  0
    0.4141    0.1672   -2.3775 H   0  0  0  0  0  0  0  0  0  0  0  0
   -1.2572    1.1927   -1.5669 C   0  0  0  0  0  0  0  0  0  0  0  0
   -1.7683    2.2179   -0.8033 N   0  0  0  0  0  0  0  0  0  0  0  0
   -1.3077    2.6680   -0.0129 H   0  0  0  0  0  0  0  0  0  0  0  0
   -3.0030    2.5683   -1.3165 C   0  0  0  0  0  0  0  0  0  0  0  0
   -3.6505    3.3433   -0.9158 H   0  0  0  0  0  0  0  0  0  0  0  0
   -3.2827    1.8214   -2.3584 N   0  0  0  0  0  0  0  0  0  0  0  0
   -2.1897    0.9850   -2.5489 C   0  0  0  0  0  0  0  0  0  0  0  0
   -2.0951    0.2624   -3.3541 H   0  0  0  0  0  0  0  0  0  0  0  0
    0.4476   -0.2222    0.9714 C   0  0  0  0  0  0  0  0  0  0  0  0
    1.6313   -0.1715    1.2784 O   0  0  0  0  0  0  0  0  0  0  0  0
   -0.4803    0.4187    1.7746 N   0  0  0  0  0  0  0  0  0  0  0  0
   -1.4529    0.2706    1.5237 H   0  0  0  0  0  0  0  0  0  0  0  0
   -0.1678    0.8804    3.1214 C   0  0  0  0  0  0  0  0  0  0  0  0
    0.6432    1.6159    3.0975 H   0  0  0  0  0  0  0  0  0  0  0  0
   -1.0457    1.3514    3.5737 H   0  0  0  0  0  0  0  0  0  0  0  0
    0.1394    0.0390    3.7516 H   0  0  0  0  0  0  0  0  0  0  0  0
  1  2  1  0  0  0  0
  2  3  1  0  0  0  0
  2  4  1  0  0  0  0
  2  5  1  0  0  0  0
  5  6  2  0  0  0  0
  5  7  1  0  0  0  0
  7  8  1  0  0  0  0
  7  9  1  0  0  0  0
  9 10  1  0  0  0  0
  9 11  1  0  0  0  0
  9 22  1  0  0  0  0
 11 12  1  0  0  0  0
 11 13  1  0  0  0  0
 11 14  1  0  0  0  0
 14 15  1  0  0  0  0
 14 20  2  0  0  0  0
 15 16  1  0  0  0  0
 15 17  1  0  0  0  0
 17 18  1  0  0  0  0
 17 19  2  0  0  0  0
 19 20  1  0  0  0  0
 20 21  1  0  0  0  0
 22 23  2  0  0  0  0
 22 24  1  0  0  0  0
 24 25  1  0  0  0  0
 24 26  1  0  0  0  0
 26 27  1  0  0  0  0
 26 28  1  0  0  0  0
 26 29  1  0  0  0  0
M  END
$$$$

  -OEChem-03222214043D

 29 29  0     1  0  0  0  0  0999 V2000
   -3.0168   -4.0343    0.7780 H   0  0  0  0  0  0  0  0  0  0  0  0
   -2.9674   -3.1206    0.1789 C   0  0  0  0  0  0  0  0  0  0  0  0
   -3.6873   -2.4005    0.5750 H   0  0  0  0  0  0  0  0  0  0  0  0
   -3.2335   -3.3625   -0.8530 H   0  0  0  0  0  0  0  0  0  0  0  0
   -1.5676   -2.5390    0.2304 C   0  0  0  0  0  0  0  0  0  0  0  0
   -0.7063   -3.0836    0.8969 O   0  0  0  0  0  0  0  0  0  0  0  0
   -1.2771   -1.3862   -0.4708 N   0  0  0  0  0  0  0  0  0  0  0  0
   -2.0462   -0.9374   -0.9601 H   0  0  0  0  0  0  0  0  0  0  0  0
    0.0300   -0.6974   -0.4453 C   0  0  1  0  0  0  0  0  0  0  0  0
    0.7984   -1.4066   -0.7724 H   0  0  0  0  0  0  0  0  0  0  0  0
    0.0688    0.5232   -1.3924 C   0  0  0  0  0  0  0  0  0  0  0  0
    0.8145    1.2517   -1.0545 H   0  0  0  0  0  0  0  0  0  0  0  0
    0.3992    0.1692   -2.3743 H   0  0  0  0  0  0  0  0  0  0  0  0
   -1.2711    1.1961   -1.5725 C   0  0  0  0  0  0  0  0  0  0  0  0
   -1.6730    2.3887   -1.0142 N   0  0  0  0  0  0  0  0  0  0  0  0
   -1.1341    2.9635   -0.3678 H   0  0  0  0  0  0  0  0  0  0  0  0
   -2.9334    2.6927   -1.4933 C   0  0  0  0  0  0  0  0  0  0  0  0
   -3.5143    3.5677   -1.2155 H   0  0  0  0  0  0  0  0  0  0  0  0
   -3.3297    1.7644   -2.3314 N   0  0  0  0  0  0  0  0  0  0  0  0
   -2.2887    0.8497   -2.4230 C   0  0  0  0  0  0  0  0  0  0  0  0
   -2.2856   -0.0205   -3.0730 H   0  0  0  0  0  0  0  0  0  0  0  0
    0.4374   -0.2302    0.9687 C   0  0  0  0  0  0  0  0  0  0  0  0
    1.6210   -0.1795    1.2758 O   0  0  0  0  0  0  0  0  0  0  0  0
   -0.4924    0.3971    1.7799 N   0  0  0  0  0  0  0  0  0  0  0  0
   -1.4653    0.2897    1.5110 H   0  0  0  0  0  0  0  0  0  0  0  0
   -0.1803    0.8725    3.1218 C   0  0  0  0  0  0  0  0  0  0  0  0
    0.6197    1.6195    3.0883 H   0  0  0  0  0  0  0  0  0  0  0  0
   -1.0631    1.3336    3.5748 H   0  0  0  0  0  0  0  0  0  0  0  0
    0.1416    0.0399    3.7562 H   0  0  0  0  0  0  0  0  0  0  0  0
  1  2  1  0  0  0  0
  2  3  1  0  0  0  0
  2  4  1  0  0  0  0
  2  5  1  0  0  0  0
  5  6  2  0  0  0  0
  5  7  1  0  0  0  0
  7  8  1  0  0  0  0
  7  9  1  0  0  0  0
  9 10  1  0  0  0  0
  9 11  1  0  0  0  0
  9 22  1  0  0  0  0
 11 12  1  0  0  0  0
 11 13  1  0  0  0  0
 11 14  1  0  0  0  0
 14 15  1  0  0  0  0
 14 20  2  0  0  0  0
 15 16  1  0  0  0  0
 15 17  1  0  0  0  0
 17 18  1  0  0  0  0
 17 19  2  0  0  0  0
 19 20  1  0  0  0  0
 20 21  1  0  0  0  0
 22 23  2  0  0  0  0
 22 24  1  0  0  0  0
 24 25  1  0  0  0  0
 24 26  1  0  0  0  0
 26 27  1  0  0  0  0
 26 28  1  0  0  0  0
 26 29  1  0  0  0  0
M  END
$$$$

  -OEChem-03222214043D

 29 29  0     1  0  0  0  0  0999 V2000
   -2.9596   -4.0758    0.8446 H   0  0  0  0  0  0  0  0  0  0  0  0
   -2.9347   -3.1647    0.2403 C   0  0  0  0  0  0  0  0  0  0  0  0
   -3.6412   -2.4450    0.6605 H   0  0  0  0  0  0  0  0  0  0  0  0
   -3.2379   -3.4111   -0.7801 H   0  0  0  0  0  0  0  0  0  0  0  0
   -1.5356   -2.5792    0.2373 C   0  0  0  0  0  0  0  0  0  0  0  0
   -0.6450   -3.1274    0.8608 O   0  0  0  0  0  0  0  0  0  0  0  0
   -1.2803   -1.4177   -0.4638 N   0  0  0  0  0  0  0  0  0  0  0  0
   -2.0744   -0.9653   -0.9057 H   0  0  0  0  0  0  0  0  0  0  0  0
    0.0130   -0.7042   -0.4486 C   0  0  1  0  0  0  0  0  0  0  0  0
    0.7902   -1.4012   -0.7819 H   0  0  0  0  0  0  0  0  0  0  0  0
    0.0409    0.5250   -1.3877 C   0  0  0  0  0  0  0  0  0  0  0  0
    0.7856    1.2509   -1.0417 H   0  0  0  0  0  0  0  0  0  0  0  0
    0.3764    0.1787   -2.3706 H   0  0  0  0  0  0  0  0  0  0  0  0
   -1.2924    1.2109   -1.5828 C   0  0  0  0  0  0  0  0  0  0  0  0
   -1.5852    2.5196   -1.2687 N   0  0  0  0  0  0  0  0  0  0  0  0
   -0.9679    3.1775   -0.7951 H   0  0  0  0  0  0  0  0  0  0  0  0
   -2.8679    2.8005   -1.7003 C   0  0  0  0  0  0  0  0  0  0  0  0
   -3.3802    3.7494   -1.5668 H   0  0  0  0  0  0  0  0  0  0  0  0
   -3.3800    1.7491   -2.2940 N   0  0  0  0  0  0  0  0  0  0  0  0
   -2.3949    0.7717   -2.2704 C   0  0  0  0  0  0  0  0  0  0  0  0
   -2.4861   -0.2040   -2.7387 H   0  0  0  0  0  0  0  0  0  0  0  0
    0.4217   -0.2374    0.9655 C   0  0  0  0  0  0  0  0  0  0  0  0
    1.6061   -0.1750    1.2674 O   0  0  0  0  0  0  0  0  0  0  0  0
   -0.5121    0.3671    1.7894 N   0  0  0  0  0  0  0  0  0  0  0  0
   -1.4848    0.2794    1.5134 H   0  0  0  0  0  0  0  0  0  0  0  0
   -0.1974    0.8597    3.1243 C   0  0  0  0  0  0  0  0  0  0  0  0
    0.6039    1.6048    3.0804 H   0  0  0  0  0  0  0  0  0  0  0  0
   -1.0786    1.3286    3.5724 H   0  0  0  0  0  0  0  0  0  0  0  0
    0.1239    0.0346    3.7687 H   0  0  0  0  0  0  0  0  0  0  0  0
  1  2  1  0  0  0  0
  2  3  1  0  0  0  0
  2  4  1  0  0  0  0
  2  5  1  0  0  0  0
  5  6  2  0  0  0  0
  5  7  1  0  0  0  0
  7  8  1  0  0  0  0
  7  9  1  0  0  0  0
  9 10  1  0  0  0  0
  9 11  1  0  0  0  0
  9 22  1  0  0  0  0
 11 12  1  0  0  0  0
 11 13  1  0  0  0  0
 11 14  1  0  0  0  0
 14 15  1  0  0  0  0
 14 20  2  0  0  0  0
 15 16  1  0  0  0  0
 15 17  1  0  0  0  0
 17 18  1  0  0  0  0
 17 19  2  0  0  0  0
 19 20  1  0  0  0  0
 20 21  1  0  0  0  0
 22 23  2  0  0  0  0
 22 24  1  0  0  0  0
 24 25  1  0  0  0  0
 24 26  1  0  0  0  0
 26 27  1  0  0  0  0
 26 28  1  0  0  0  0
 26 29  1  0  0  0  0
M  END
$$$$

  -OEChem-03222214043D

 29 29  0     1  0  0  0  0  0999 V2000
   -2.8764   -4.1649    0.8810 H   0  0  0  0  0  0  0  0  0  0  0  0
   -2.8876   -3.2507    0.2807 C   0  0  0  0  0  0  0  0  0  0  0  0
   -3.6141   -2.5571    0.7102 H   0  0  0  0  0  0  0  0  0  0  0  0
   -3.1917   -3.5031   -0.7378 H   0  0  0  0  0  0  0  0  0  0  0  0
   -1.5086   -2.6191    0.2688 C   0  0  0  0  0  0  0  0  0  0  0  0
   -0.5953   -3.1426    0.8805 O   0  0  0  0  0  0  0  0  0  0  0  0
   -1.2960   -1.4486   -0.4322 N   0  0  0  0  0  0  0  0  0  0  0  0
   -2.1048   -1.0301   -0.8774 H   0  0  0  0  0  0  0  0  0  0  0  0
   -0.0211   -0.7040   -0.4400 C   0  0  1  0  0  0  0  0  0  0  0  0
    0.7632   -1.3895   -0.7813 H   0  0  0  0  0  0  0  0  0  0  0  0
   -0.0067    0.5269   -1.3824 C   0  0  0  0  0  0  0  0  0  0  0  0
    0.7358    1.2500   -1.0263 H   0  0  0  0  0  0  0  0  0  0  0  0
    0.3429    0.1836   -2.3612 H   0  0  0  0  0  0  0  0  0  0  0  0
   -1.3253    1.2386   -1.6103 C   0  0  0  0  0  0  0  0  0  0  0  0
   -1.4964    2.6062   -1.5842 N   0  0  0  0  0  0  0  0  0  0  0  0
   -0.7884    3.2952   -1.3355 H   0  0  0  0  0  0  0  0  0  0  0  0
   -2.7983    2.9017   -1.9401 C   0  0  0  0  0  0  0  0  0  0  0  0
   -3.2254    3.8998   -1.9810 H   0  0  0  0  0  0  0  0  0  0  0  0
   -3.4451    1.7969   -2.2213 N   0  0  0  0  0  0  0  0  0  0  0  0
   -2.5319    0.7645   -2.0623 C   0  0  0  0  0  0  0  0  0  0  0  0
   -2.7488   -0.2738   -2.2918 H   0  0  0  0  0  0  0  0  0  0  0  0
    0.4025   -0.2340    0.9693 C   0  0  0  0  0  0  0  0  0  0  0  0
    1.5910   -0.1470    1.2492 O   0  0  0  0  0  0  0  0  0  0  0  0
   -0.5284    0.3433    1.8153 N   0  0  0  0  0  0  0  0  0  0  0  0
   -1.5044    0.2467    1.5544 H   0  0  0  0  0  0  0  0  0  0  0  0
   -0.1966    0.8494    3.1409 C   0  0  0  0  0  0  0  0  0  0  0  0
    0.5675    1.6309    3.0736 H   0  0  0  0  0  0  0  0  0  0  0  0
   -1.0847    1.2764    3.6162 H   0  0  0  0  0  0  0  0  0  0  0  0
    0.1816    0.0399    3.7743 H   0  0  0  0  0  0  0  0  0  0  0  0
  1  2  1  0  0  0  0
  2  3  1  0  0  0  0
  2  4  1  0  0  0  0
  2  5  1  0  0  0  0
  5  6  2  0  0  0  0
  5  7  1  0  0  0  0
  7  8  1  0  0  0  0
  7  9  1  0  0  0  0
  9 10  1  0  0  0  0
  9 11  1  0  0  0  0
  9 22  1  0  0  0  0
 11 12  1  0  0  0  0
 11 13  1  0  0  0  0
 11 14  1  0  0  0  0
 14 15  1  0  0  0  0
 14 20  2  0  0  0  0
 15 16  1  0  0  0  0
 15 17  1  0  0  0  0
 17 18  1  0  0  0  0
 17 19  2  0  0  0  0
 19 20  1  0  0  0  0
 20 21  1  0  0  0  0
 22 23  2  0  0  0  0
 22 24  1  0  0  0  0
 24 25  1  0  0  0  0
 24 26  1  0  0  0  0
 26 27  1  0  0  0  0
 26 28  1  0  0  0  0
 26 29  1  0  0  0  0
M  END
$$$$

  -OEChem-03222214043D

 29 29  0     1  0  0  0  0  0999 V2000
   -2.7988   -4.3015    0.8217 H   0  0  0  0  0  0  0  0  0  0  0  0
   -2.8154   -3.4096    0.1889 C   0  0  0  0  0  0  0  0  0  0  0  0
   -3.6660   -2.7883    0.4788 H   0  0  0  0  0  0  0  0  0  0  0  0
   -2.9361   -3.7198   -0.8517 H   0  0  0  0  0  0  0  0  0  0  0  0
   -1.5242   -2.6304    0.3533 C   0  0  0  0  0  0  0  0  0  0  0  0
   -0.6727   -3.0258    1.1283 O   0  0  0  0  0  0  0  0  0  0  0  0
   -1.3239   -1.4797   -0.3844 N   0  0  0  0  0  0  0  0  0  0  0  0
   -1.9995   -1.3026   -1.1195 H   0  0  0  0  0  0  0  0  0  0  0  0
   -0.0545   -0.7298   -0.4263 C   0  0  1  0  0  0  0  0  0  0  0  0
    0.7318   -1.4136   -0.7653 H   0  0  0  0  0  0  0  0  0  0  0  0
   -0.0725    0.4921   -1.3838 C   0  0  0  0  0  0  0  0  0  0  0  0
    0.6762    1.2150   -1.0395 H   0  0  0  0  0  0  0  0  0  0  0  0
    0.2707    0.1408   -2.3620 H   0  0  0  0  0  0  0  0  0  0  0  0
   -1.3781    1.2353   -1.6246 C   0  0  0  0  0  0  0  0  0  0  0  0
   -1.4146    2.5829   -1.9175 N   0  0  0  0  0  0  0  0  0  0  0  0
   -0.6086    3.2010   -1.9926 H   0  0  0  0  0  0  0  0  0  0  0  0
   -2.7280    2.9800   -2.0724 C   0  0  0  0  0  0  0  0  0  0  0  0
   -3.0543    3.9897   -2.3051 H   0  0  0  0  0  0  0  0  0  0  0  0
   -3.5253    1.9566   -1.8955 N   0  0  0  0  0  0  0  0  0  0  0  0
   -2.7053    0.8717   -1.6189 C   0  0  0  0  0  0  0  0  0  0  0  0
   -3.0959   -0.1222   -1.4364 H   0  0  0  0  0  0  0  0  0  0  0  0
    0.3852   -0.2141    0.9635 C   0  0  0  0  0  0  0  0  0  0  0  0
    1.5787   -0.1173    1.2203 O   0  0  0  0  0  0  0  0  0  0  0  0
   -0.5345    0.3853    1.8056 N   0  0  0  0  0  0  0  0  0  0  0  0
   -1.5140    0.2659    1.5672 H   0  0  0  0  0  0  0  0  0  0  0  0
   -0.1851    0.9251    3.1132 C   0  0  0  0  0  0  0  0  0  0  0  0
    0.5724    1.7098    3.0148 H   0  0  0  0  0  0  0  0  0  0  0  0
   -1.0684    1.3579    3.5926 H   0  0  0  0  0  0  0  0  0  0  0  0
    0.2089    0.1336    3.7594 H   0  0  0  0  0  0  0  0  0  0  0  0
  1  2  1  0  0  0  0
  2  3  1  0  0  0  0
  2  4  1  0  0  0  0
  2  5  1  0  0  0  0
  5  6  2  0  0  0  0
  5  7  1  0  0  0  0
  7  8  1  0  0  0  0
  7  9  1  0  0  0  0
  9 10  1  0  0  0  0
  9 11  1  0  0  0  0
  9 22  1  0  0  0  0
 11 12  1  0  0  0  0
 11 13  1  0  0  0  0
 11 14  1  0  0  0  0
 14 15  1  0  0  0  0
 14 20  2  0  0  0  0
 15 16  1  0  0  0  0
 15 17  1  0  0  0  0
 17 18  1  0  0  0  0
 17 19  2  0  0  0  0
 19 20  1  0  0  0  0
 20 21  1  0  0  0  0
 22 23  2  0  0  0  0
 22 24  1  0  0  0  0
 24 25  1  0  0  0  0
 24 26  1  0  0  0  0
 26 27  1  0  0  0  0
 26 28  1  0  0  0  0
 26 29  1  0  0  0  0
M  END
$$$$

  -OEChem-03222214043D

 29 29  0     1  0  0  0  0  0999 V2000
   -2.7503   -4.3433    0.7790 H   0  0  0  0  0  0  0  0  0  0  0  0
   -2.7848   -3.4378    0.1665 C   0  0  0  0  0  0  0  0  0  0  0  0
   -3.6429   -2.8364    0.4759 H   0  0  0  0  0  0  0  0  0  0  0  0
   -2.9078   -3.7265   -0.8801 H   0  0  0  0  0  0  0  0  0  0  0  0
   -1.5044   -2.6430    0.3396 C   0  0  0  0  0  0  0  0  0  0  0  0
   -0.6498   -3.0323    1.1141 O   0  0  0  0  0  0  0  0  0  0  0  0
   -1.3160   -1.4844   -0.3885 N   0  0  0  0  0  0  0  0  0  0  0  0
   -1.9956   -1.3022   -1.1210 H   0  0  0  0  0  0  0  0  0  0  0  0
   -0.0548   -0.7205   -0.4229 C   0  0  1  0  0  0  0  0  0  0  0  0
    0.7381   -1.3948   -0.7656 H   0  0  0  0  0  0  0  0  0  0  0  0
   -0.0936    0.4972   -1.3829 C   0  0  0  0  0  0  0  0  0  0  0  0
    0.6447    1.2331   -1.0438 H   0  0  0  0  0  0  0  0  0  0  0  0
    0.2520    0.1413   -2.3584 H   0  0  0  0  0  0  0  0  0  0  0  0
   -1.4070    1.2240   -1.6320 C   0  0  0  0  0  0  0  0  0  0  0  0
   -1.4515    2.4703   -2.2220 N   0  0  0  0  0  0  0  0  0  0  0  0
   -0.6521    2.9951   -2.5724 H   0  0  0  0  0  0  0  0  0  0  0  0
   -2.7590    2.9126   -2.2552 C   0  0  0  0  0  0  0  0  0  0  0  0
   -3.0906    3.8574   -2.6763 H   0  0  0  0  0  0  0  0  0  0  0  0
   -3.5432    2.0224   -1.7015 N   0  0  0  0  0  0  0  0  0  0  0  0
   -2.7190    0.9842   -1.2906 C   0  0  0  0  0  0  0  0  0  0  0  0
   -3.0948    0.1209   -0.7543 H   0  0  0  0  0  0  0  0  0  0  0  0
    0.3844   -0.2080    0.9681 C   0  0  0  0  0  0  0  0  0  0  0  0
    1.5780   -0.0999    1.2192 O   0  0  0  0  0  0  0  0  0  0  0  0
   -0.5375    0.3775    1.8177 N   0  0  0  0  0  0  0  0  0  0  0  0
   -1.5167    0.2347    1.5922 H   0  0  0  0  0  0  0  0  0  0  0  0
   -0.1864    0.9135    3.1264 C   0  0  0  0  0  0  0  0  0  0  0  0
    0.5681    1.7011    3.0297 H   0  0  0  0  0  0  0  0  0  0  0  0
   -1.0700    1.3416    3.6090 H   0  0  0  0  0  0  0  0  0  0  0  0
    0.2116    0.1212    3.7690 H   0  0  0  0  0  0  0  0  0  0  0  0
  1  2  1  0  0  0  0
  2  3  1  0  0  0  0
  2  4  1  0  0  0  0
  2  5  1  0  0  0  0
  5  6  2  0  0  0  0
  5  7  1  0  0  0  0
  7  8  1  0  0  0  0
  7  9  1  0  0  0  0
  9 10  1  0  0  0  0
  9 11  1  0  0  0  0
  9 22  1  0  0  0  0
 11 12  1  0  0  0  0
 11 13  1  0  0  0  0
 11 14  1  0  0  0  0
 14 15  1  0  0  0  0
 14 20  2  0  0  0  0
 15 16  1  0  0  0  0
 15 17  1  0  0  0  0
 17 18  1  0  0  0  0
 17 19  2  0  0  0  0
 19 20  1  0  0  0  0
 20 21  1  0  0  0  0
 22 23  2  0  0  0  0
 22 24  1  0  0  0  0
 24 25  1  0  0  0  0
 24 26  1  0  0  0  0
 26 27  1  0  0  0  0
 26 28  1  0  0  0  0
 26 29  1  0  0  0  0
M  END
$$$$

  -OEChem-03222214043D

 29 29  0     1  0  0  0  0  0999 V2000
   -2.9117   -4.2263    0.6430 H   0  0  0  0  0  0  0  0  0  0  0  0
   -2.9016   -3.2933    0.0722 C   0  0  0  0  0  0  0  0  0  0  0  0
   -3.7179   -2.6572    0.4227 H   0  0  0  0  0  0  0  0  0  0  0  0
   -3.0568   -3.5264   -0.9840 H   0  0  0  0  0  0  0  0  0  0  0  0
   -1.5741   -2.5831    0.2576 C   0  0  0  0  0  0  0  0  0  0  0  0
   -0.7313   -3.0517    1.0007 O   0  0  0  0  0  0  0  0  0  0  0  0
   -1.3321   -1.3997   -0.4106 N   0  0  0  0  0  0  0  0  0  0  0  0
   -2.0386   -1.0958   -1.0752 H   0  0  0  0  0  0  0  0  0  0  0  0
   -0.0455   -0.6765   -0.3881 C   0  0  1  0  0  0  0  0  0  0  0  0
    0.7243   -1.3709   -0.7429 H   0  0  0  0  0  0  0  0  0  0  0  0
   -0.0549    0.5268   -1.3558 C   0  0  0  0  0  0  0  0  0  0  0  0
    0.8313    1.1412   -1.1610 H   0  0  0  0  0  0  0  0  0  0  0  0
    0.0488    0.1314   -2.3711 H   0  0  0  0  0  0  0  0  0  0  0  0
   -1.2796    1.4235   -1.3429 C   0  0  0  0  0  0  0  0  0  0  0  0
   -1.4327    2.5317   -2.1487 N   0  0  0  0  0  0  0  0  0  0  0  0
   -0.7620    2.8725   -2.8351 H   0  0  0  0  0  0  0  0  0  0  0  0
   -2.6424    3.1333   -1.8596 C   0  0  0  0  0  0  0  0  0  0  0  0
   -3.0297    4.0245   -2.3454 H   0  0  0  0  0  0  0  0  0  0  0  0
   -3.2571    2.4684   -0.9126 N   0  0  0  0  0  0  0  0  0  0  0  0
   -2.4152    1.4196   -0.5689 C   0  0  0  0  0  0  0  0  0  0  0  0
   -2.6414    0.7031    0.2133 H   0  0  0  0  0  0  0  0  0  0  0  0
    0.4240   -0.2241    1.0137 C   0  0  0  0  0  0  0  0  0  0  0  0
    1.6245   -0.1635    1.2471 O   0  0  0  0  0  0  0  0  0  0  0  0
   -0.4581    0.3680    1.9000 N   0  0  0  0  0  0  0  0  0  0  0  0
   -1.4461    0.2415    1.7093 H   0  0  0  0  0  0  0  0  0  0  0  0
   -0.0572    0.8569    3.2129 C   0  0  0  0  0  0  0  0  0  0  0  0
    0.7143    1.6280    3.1162 H   0  0  0  0  0  0  0  0  0  0  0  0
   -0.9162    1.2931    3.7314 H   0  0  0  0  0  0  0  0  0  0  0  0
    0.3376    0.0369    3.8219 H   0  0  0  0  0  0  0  0  0  0  0  0
  1  2  1  0  0  0  0
  2  3  1  0  0  0  0
  2  4  1  0  0  0  0
  2  5  1  0  0  0  0
  5  6  2  0  0  0  0
  5  7  1  0  0  0  0
  7  8  1  0  0  0  0
  7  9  1  0  0  0  0
  9 10  1  0  0  0  0
  9 11  1  0  0  0  0
  9 22  1  0  0  0  0
 11 12  1  0  0  0  0
 11 13  1  0  0  0  0
 11 14  1  0  0  0  0
 14 15  1  0  0  0  0
 14 20  2  0  0  0  0
 15 16  1  0  0  0  0
 15 17  1  0  0  0  0
 17 18  1  0  0  0  0
 17 19  2  0  0  0  0
 19 20  1  0  0  0  0
 20 21  1  0  0  0  0
 22 23  2  0  0  0  0
 22 24  1  0  0  0  0
 24 25  1  0  0  0  0
 24 26  1  0  0  0  0
 26 27  1  0  0  0  0
 26 28  1  0  0  0  0
 26 29  1  0  0  0  0
M  END
$$$$

  -OEChem-03222214043D

 29 29  0     1  0  0  0  0  0999 V2000
   -2.9450   -4.1846    0.6351 H   0  0  0  0  0  0  0  0  0  0  0  0
   -2.9284   -3.2469    0.0722 C   0  0  0  0  0  0  0  0  0  0  0  0
   -3.7274   -2.6003    0.4425 H   0  0  0  0  0  0  0  0  0  0  0  0
   -3.1058   -3.4677   -0.9830 H   0  0  0  0  0  0  0  0  0  0  0  0
   -1.5858   -2.5615    0.2413 C   0  0  0  0  0  0  0  0  0  0  0  0
   -0.7335   -3.0606    0.9531 O   0  0  0  0  0  0  0  0  0  0  0  0
   -1.3405   -1.3636   -0.3988 N   0  0  0  0  0  0  0  0  0  0  0  0
   -2.0646   -1.0148   -1.0216 H   0  0  0  0  0  0  0  0  0  0  0  0
   -0.0512   -0.6463   -0.3629 C   0  0  1  0  0  0  0  0  0  0  0  0
    0.7097   -1.3472   -0.7247 H   0  0  0  0  0  0  0  0  0  0  0  0
   -0.0497    0.5481   -1.3404 C   0  0  0  0  0  0  0  0  0  0  0  0
    0.8327    1.1687   -1.1477 H   0  0  0  0  0  0  0  0  0  0  0  0
    0.0606    0.1403   -2.3500 H   0  0  0  0  0  0  0  0  0  0  0  0
   -1.2807    1.4342   -1.3398 C   0  0  0  0  0  0  0  0  0  0  0  0
   -1.5829    2.3482   -2.3266 N   0  0  0  0  0  0  0  0  0  0  0  0
   -1.0116    2.5640   -3.1416 H   0  0  0  0  0  0  0  0  0  0  0  0
   -2.7836    2.9587   -2.0181 C   0  0  0  0  0  0  0  0  0  0  0  0
   -3.2679    3.7251   -2.6167 H   0  0  0  0  0  0  0  0  0  0  0  0
   -3.2573    2.4725   -0.8972 N   0  0  0  0  0  0  0  0  0  0  0  0
   -2.3299    1.5367   -0.4593 C   0  0  0  0  0  0  0  0  0  0  0  0
   -2.4457    0.9568    0.4493 H   0  0  0  0  0  0  0  0  0  0  0  0
    0.4413   -0.2210    1.0400 C   0  0  0  0  0  0  0  0  0  0  0  0
    1.6462   -0.1670    1.2505 O   0  0  0  0  0  0  0  0  0  0  0  0
   -0.4176    0.3603    1.9555 N   0  0  0  0  0  0  0  0  0  0  0  0
   -1.4090    0.2193    1.7956 H   0  0  0  0  0  0  0  0  0  0  0  0
    0.0173    0.8232    3.2674 C   0  0  0  0  0  0  0  0  0  0  0  0
    0.7939    1.5888    3.1663 H   0  0  0  0  0  0  0  0  0  0  0  0
   -0.8250    1.2590    3.8131 H   0  0  0  0  0  0  0  0  0  0  0  0
    0.4180   -0.0107    3.8534 H   0  0  0  0  0  0  0  0  0  0  0  0
  1  2  1  0  0  0  0
  2  3  1  0  0  0  0
  2  4  1  0  0  0  0
  2  5  1  0  0  0  0
  5  6  2  0  0  0  0
  5  7  1  0  0  0  0
  7  8  1  0  0  0  0
  7  9  1  0  0  0  0
  9 10  1  0  0  0  0
  9 11  1  0  0  0  0
  9 22  1  0  0  0  0
 11 12  1  0  0  0  0
 11 13  1  0  0  0  0
 11 14  1  0  0  0  0
 14 15  1  0  0  0  0
 14 20  2  0  0  0  0
 15 16  1  0  0  0  0
 15 17  1  0  0  0  0
 17 18  1  0  0  0  0
 17 19  2  0  0  0  0
 19 20  1  0  0  0  0
 20 21  1  0  0  0  0
 22 23  2  0  0  0  0
 22 24  1  0  0  0  0
 24 25  1  0  0  0  0
 24 26  1  0  0  0  0
 26 27  1  0  0  0  0
 26 28  1  0  0  0  0
 26 29  1  0  0  0  0
M  END
$$$$

  -OEChem-03222214043D

 29 29  0     1  0  0  0  0  0999 V2000
   -2.9662   -4.1510    0.6244 H   0  0  0  0  0  0  0  0  0  0  0  0
   -2.9486   -3.2041    0.0772 C   0  0  0  0  0  0  0  0  0  0  0  0
   -3.7298   -2.5526    0.4762 H   0  0  0  0  0  0  0  0  0  0  0  0
   -3.1525   -3.4040   -0.9774 H   0  0  0  0  0  0  0  0  0  0  0  0
   -1.5926   -2.5410    0.2267 C   0  0  0  0  0  0  0  0  0  0  0  0
   -0.7264   -3.0704    0.8991 O   0  0  0  0  0  0  0  0  0  0  0  0
   -1.3498   -1.3285   -0.3856 N   0  0  0  0  0  0  0  0  0  0  0  0
   -2.0972   -0.9338   -0.9513 H   0  0  0  0  0  0  0  0  0  0  0  0
   -0.0598   -0.6148   -0.3439 C   0  0  1  0  0  0  0  0  0  0  0  0
    0.6923   -1.3219   -0.7124 H   0  0  0  0  0  0  0  0  0  0  0  0
   -0.0496    0.5673   -1.3347 C   0  0  0  0  0  0  0  0  0  0  0  0
    0.8300    1.1926   -1.1451 H   0  0  0  0  0  0  0  0  0  0  0  0
    0.0690    0.1457   -2.3379 H   0  0  0  0  0  0  0  0  0  0  0  0
   -1.2845    1.4463   -1.3500 C   0  0  0  0  0  0  0  0  0  0  0  0
   -1.7441    2.1256   -2.4585 N   0  0  0  0  0  0  0  0  0  0  0  0
   -1.2891    2.1688   -3.3685 H   0  0  0  0  0  0  0  0  0  0  0  0
   -2.9154    2.7798   -2.1285 C   0  0  0  0  0  0  0  0  0  0  0  0
   -3.4981    3.4003   -2.8036 H   0  0  0  0  0  0  0  0  0  0  0  0
   -3.2256    2.5355   -0.8794 N   0  0  0  0  0  0  0  0  0  0  0  0
   -2.2184    1.7190   -0.3810 C   0  0  0  0  0  0  0  0  0  0  0  0
   -2.2056    1.3382    0.6325 H   0  0  0  0  0  0  0  0  0  0  0  0
    0.4553   -0.2197    1.0596 C   0  0  0  0  0  0  0  0  0  0  0  0
    1.6639   -0.1649    1.2479 O   0  0  0  0  0  0  0  0  0  0  0  0
   -0.3845    0.3435    2.0031 N   0  0  0  0  0  0  0  0  0  0  0  0
   -1.3780    0.1898    1.8666 H   0  0  0  0  0  0  0  0  0  0  0  0
    0.0768    0.7745    3.3170 C   0  0  0  0  0  0  0  0  0  0  0  0
    0.8599    1.5338    3.2198 H   0  0  0  0  0  0  0  0  0  0  0  0
   -0.7520    1.2075    3.8851 H   0  0  0  0  0  0  0  0  0  0  0  0
    0.4780   -0.0756    3.8788 H   0  0  0  0  0  0  0  0  0  0  0  0
  1  2  1  0  0  0  0
  2  3  1  0  0  0  0
  2  4  1  0  0  0  0
  2  5  1  0  0  0  0
  5  6  2  0  0  0  0
  5  7  1  0  0  0  0
  7  8  1  0  0  0  0
  7  9  1  0  0  0  0
  9 10  1  0  0  0  0
  9 11  1  0  0  0  0
  9 22  1  0  0  0  0
 11 12  1  0  0  0  0
 11 13  1  0  0  0  0
 11 14  1  0  0  0  0
 14 15  1  0  0  0  0
 14 20  2  0  0  0  0
 15 16  1  0  0  0  0
 15 17  1  0  0  0  0
 17 18  1  0  0  0  0
 17 19  2  0  0  0  0
 19 20  1  0  0  0  0
 20 21  1  0  0  0  0
 22 23  2  0  0  0  0
 22 24  1  0  0  0  0
 24 25  1  0  0  0  0
 24 26  1  0  0  0  0
 26 27  1  0  0  0  0
 26 28  1  0  0  0  0
 26 29  1  0  0  0  0
M  END
$$$$

  -OEChem-03222214043D

 29 29  0     1  0  0  0  0  0999 V2000
   -2.9836   -4.1174    0.6398 H   0  0  0  0  0  0  0  0  0  0  0  0
   -2.9620   -3.1694    0.0944 C   0  0  0  0  0  0  0  0  0  0  0  0
   -3.7162   -2.5023    0.5187 H   0  0  0  0  0  0  0  0  0  0  0  0
   -3.2019   -3.3617   -0.9540 H   0  0  0  0  0  0  0  0  0  0  0  0
   -1.5875   -2.5367    0.2041 C   0  0  0  0  0  0  0  0  0  0  0  0
   -0.7072   -3.0983    0.8309 O   0  0  0  0  0  0  0  0  0  0  0  0
   -1.3409   -1.3184   -0.3952 N   0  0  0  0  0  0  0  0  0  0  0  0
   -2.1109   -0.8755   -0.8906 H   0  0  0  0  0  0  0  0  0  0  0  0
   -0.0500   -0.6079   -0.3459 C   0  0  1  0  0  0  0  0  0  0  0  0
    0.7015   -1.3159   -0.7137 H   0  0  0  0  0  0  0  0  0  0  0  0
   -0.0382    0.5667   -1.3444 C   0  0  0  0  0  0  0  0  0  0  0  0
    0.8345    1.1998   -1.1495 H   0  0  0  0  0  0  0  0  0  0  0  0
    0.0908    0.1451   -2.3461 H   0  0  0  0  0  0  0  0  0  0  0  0
   -1.2821    1.4304   -1.3574 C   0  0  0  0  0  0  0  0  0  0  0  0
   -1.9272    1.8626   -2.4970 N   0  0  0  0  0  0  0  0  0  0  0  0
   -1.6340    1.6899   -3.4568 H   0  0  0  0  0  0  0  0  0  0  0  0
   -3.0250    2.6162   -2.1288 C   0  0  0  0  0  0  0  0  0  0  0  0
   -3.7218    3.0870   -2.8168 H   0  0  0  0  0  0  0  0  0  0  0  0
   -3.1063    2.6753   -0.8228 N   0  0  0  0  0  0  0  0  0  0  0  0
   -2.0191    1.9640   -0.3298 C   0  0  0  0  0  0  0  0  0  0  0  0
   -1.8028    1.8575    0.7255 H   0  0  0  0  0  0  0  0  0  0  0  0
    0.4588   -0.2315    1.0637 C   0  0  0  0  0  0  0  0  0  0  0  0
    1.6659   -0.1807    1.2610 O   0  0  0  0  0  0  0  0  0  0  0  0
   -0.3878    0.3206    2.0075 N   0  0  0  0  0  0  0  0  0  0  0  0
   -1.3817    0.1852    1.8536 H   0  0  0  0  0  0  0  0  0  0  0  0
    0.0620    0.7399    3.3292 C   0  0  0  0  0  0  0  0  0  0  0  0
    0.8405    1.5055    3.2452 H   0  0  0  0  0  0  0  0  0  0  0  0
   -0.7733    1.1609    3.8966 H   0  0  0  0  0  0  0  0  0  0  0  0
    0.4651   -0.1138    3.8840 H   0  0  0  0  0  0  0  0  0  0  0  0
  1  2  1  0  0  0  0
  2  3  1  0  0  0  0
  2  4  1  0  0  0  0
  2  5  1  0  0  0  0
  5  6  2  0  0  0  0
  5  7  1  0  0  0  0
  7  8  1  0  0  0  0
  7  9  1  0  0  0  0
  9 10  1  0  0  0  0
  9 11  1  0  0  0  0
  9 22  1  0  0  0  0
 11 12  1  0  0  0  0
 11 13  1  0  0  0  0
 11 14  1  0  0  0  0
 14 15  1  0  0  0  0
 14 20  2  0  0  0  0
 15 16  1  0  0  0  0
 15 17  1  0  0  0  0
 17 18  1  0  0  0  0
 17 19  2  0  0  0  0
 19 20  1  0  0  0  0
 20 21  1  0  0  0  0
 22 23  2  0  0  0  0
 22 24  1  0  0  0  0
 24 25  1  0  0  0  0
 24 26  1  0  0  0  0
 26 27  1  0  0  0  0
 26 28  1  0  0  0  0
 26 29  1  0  0  0  0
M  END
$$$$

  -OEChem-03222214043D

 29 29  0     1  0  0  0  0  0999 V2000
   -2.9974   -4.0787    0.6828 H   0  0  0  0  0  0  0  0  0  0  0  0
   -2.9618   -3.1405    0.1218 C   0  0  0  0  0  0  0  0  0  0  0  0
   -3.6819   -2.4432    0.5565 H   0  0  0  0  0  0  0  0  0  0  0  0
   -3.2378   -3.3408   -0.9162 H   0  0  0  0  0  0  0  0  0  0  0  0
   -1.5657   -2.5501    0.1825 C   0  0  0  0  0  0  0  0  0  0  0  0
   -0.6840   -3.1333    0.7867 O   0  0  0  0  0  0  0  0  0  0  0  0
   -1.3019   -1.3458   -0.4375 N   0  0  0  0  0  0  0  0  0  0  0  0
   -2.0820   -0.8675   -0.8807 H   0  0  0  0  0  0  0  0  0  0  0  0
   -0.0076   -0.6419   -0.3785 C   0  0  1  0  0  0  0  0  0  0  0  0
    0.7556   -1.3433   -0.7347 H   0  0  0  0  0  0  0  0  0  0  0  0
   -0.0028    0.5448   -1.3625 C   0  0  0  0  0  0  0  0  0  0  0  0
    0.8625    1.1831   -1.1506 H   0  0  0  0  0  0  0  0  0  0  0  0
    0.1289    0.1539   -2.3763 H   0  0  0  0  0  0  0  0  0  0  0  0
   -1.2612    1.3830   -1.3275 C   0  0  0  0  0  0  0  0  0  0  0  0
   -2.1208    1.6003   -2.3832 N   0  0  0  0  0  0  0  0  0  0  0  0
   -2.0242    1.2291   -3.3266 H   0  0  0  0  0  0  0  0  0  0  0  0
   -3.1133    2.4696   -1.9717 C   0  0  0  0  0  0  0  0  0  0  0  0
   -3.9373    2.8174   -2.5886 H   0  0  0  0  0  0  0  0  0  0  0  0
   -2.9169    2.8124   -0.7225 N   0  0  0  0  0  0  0  0  0  0  0  0
   -1.7488    2.1761   -0.3200 C   0  0  0  0  0  0  0  0  0  0  0  0
   -1.2876    2.3099    0.6524 H   0  0  0  0  0  0  0  0  0  0  0  0
    0.4525   -0.2511    1.0434 C   0  0  0  0  0  0  0  0  0  0  0  0
    1.6501   -0.2067    1.2916 O   0  0  0  0  0  0  0  0  0  0  0  0
   -0.4328    0.3161    1.9426 N   0  0  0  0  0  0  0  0  0  0  0  0
   -1.4207    0.2245    1.7282 H   0  0  0  0  0  0  0  0  0  0  0  0
   -0.0414    0.7678    3.2720 C   0  0  0  0  0  0  0  0  0  0  0  0
    0.7373    1.5348    3.2037 H   0  0  0  0  0  0  0  0  0  0  0  0
   -0.9020    1.1975    3.7935 H   0  0  0  0  0  0  0  0  0  0  0  0
    0.3408   -0.0712    3.8629 H   0  0  0  0  0  0  0  0  0  0  0  0
  1  2  1  0  0  0  0
  2  3  1  0  0  0  0
  2  4  1  0  0  0  0
  2  5  1  0  0  0  0
  5  6  2  0  0  0  0
  5  7  1  0  0  0  0
  7  8  1  0  0  0  0
  7  9  1  0  0  0  0
  9 10  1  0  0  0  0
  9 11  1  0  0  0  0
  9 22  1  0  0  0  0
 11 12  1  0  0  0  0
 11 13  1  0  0  0  0
 11 14  1  0  0  0  0
 14 15  1  0  0  0  0
 14 20  2  0  0  0  0
 15 16  1  0  0  0  0
 15 17  1  0  0  0  0
 17 18  1  0  0  0  0
 17 19  2  0  0  0  0
 19 20  1  0  0  0  0
 20 21  1  0  0  0  0
 22 23  2  0  0  0  0
 22 24  1  0  0  0  0
 24 25  1  0  0  0  0
 24 26  1  0  0  0  0
 26 27  1  0  0  0  0
 26 28  1  0  0  0  0
 26 29  1  0  0  0  0
M  END
$$$$

  -OEChem-03222214043D

 29 29  0     1  0  0  0  0  0999 V2000
   -3.0147   -4.0395    0.7166 H   0  0  0  0  0  0  0  0  0  0  0  0
   -2.9678   -3.1098    0.1422 C   0  0  0  0  0  0  0  0  0  0  0  0
   -3.6606   -2.3893    0.5833 H   0  0  0  0  0  0  0  0  0  0  0  0
   -3.2714   -3.3168   -0.8867 H   0  0  0  0  0  0  0  0  0  0  0  0
   -1.5562   -2.5545    0.1641 C   0  0  0  0  0  0  0  0  0  0  0  0
   -0.6743   -3.1576    0.7481 O   0  0  0  0  0  0  0  0  0  0  0  0
   -1.2771   -1.3632   -0.4745 N   0  0  0  0  0  0  0  0  0  0  0  0
   -2.0618   -0.8540   -0.8719 H   0  0  0  0  0  0  0  0  0  0  0  0
    0.0222   -0.6688   -0.4041 C   0  0  1  0  0  0  0  0  0  0  0  0
    0.7915   -1.3678   -0.7515 H   0  0  0  0  0  0  0  0  0  0  0  0
    0.0338    0.5348   -1.3661 C   0  0  0  0  0  0  0  0  0  0  0  0
    0.8993    1.1676   -1.1390 H   0  0  0  0  0  0  0  0  0  0  0  0
    0.1617    0.1718   -2.3907 H   0  0  0  0  0  0  0  0  0  0  0  0
   -1.2281    1.3622   -1.2939 C   0  0  0  0  0  0  0  0  0  0  0  0
   -2.2561    1.3880   -2.2121 N   0  0  0  0  0  0  0  0  0  0  0  0
   -2.2931    0.8759   -3.0918 H   0  0  0  0  0  0  0  0  0  0  0  0
   -3.1892    2.3196   -1.7959 C   0  0  0  0  0  0  0  0  0  0  0  0
   -4.1099    2.5615   -2.3196 H   0  0  0  0  0  0  0  0  0  0  0  0
   -2.8013    2.8705   -0.6719 N   0  0  0  0  0  0  0  0  0  0  0  0
   -1.5665    2.3109   -0.3641 C   0  0  0  0  0  0  0  0  0  0  0  0
   -0.9584    2.5894    0.4915 H   0  0  0  0  0  0  0  0  0  0  0  0
    0.4495   -0.2612    1.0232 C   0  0  0  0  0  0  0  0  0  0  0  0
    1.6391   -0.2309    1.3083 O   0  0  0  0  0  0  0  0  0  0  0  0
   -0.4575    0.3263    1.8877 N   0  0  0  0  0  0  0  0  0  0  0  0
   -1.4370    0.2881    1.6238 H   0  0  0  0  0  0  0  0  0  0  0  0
   -0.1016    0.8132    3.2145 C   0  0  0  0  0  0  0  0  0  0  0  0
    0.6774    1.5798    3.1460 H   0  0  0  0  0  0  0  0  0  0  0  0
   -0.9761    1.2540    3.7025 H   0  0  0  0  0  0  0  0  0  0  0  0
    0.2665   -0.0091    3.8370 H   0  0  0  0  0  0  0  0  0  0  0  0
  1  2  1  0  0  0  0
  2  3  1  0  0  0  0
  2  4  1  0  0  0  0
  2  5  1  0  0  0  0
  5  6  2  0  0  0  0
  5  7  1  0  0  0  0
  7  8  1  0  0  0  0
  7  9  1  0  0  0  0
  9 10  1  0  0  0  0
  9 11  1  0  0  0  0
  9 22  1  0  0  0  0
 11 12  1  0  0  0  0
 11 13  1  0  0  0  0
 11 14  1  0  0  0  0
 14 15  1  0  0  0  0
 14 20  2  0  0  0  0
 15 16  1  0  0  0  0
 15 17  1  0  0  0  0
 17 18  1  0  0  0  0
 17 19  2  0  0  0  0
 19 20  1  0  0  0  0
 20 21  1  0  0  0  0
 22 23  2  0  0  0  0
 22 24  1  0  0  0  0
 24 25  1  0  0  0  0
 24 26  1  0  0  0  0
 26 27  1  0  0  0  0
 26 28  1  0  0  0  0
 26 29  1  0  0  0  0
M  END
$$$$

  -OEChem-03222214043D

 29 29  0     1  0  0  0  0  0999 V2000
   -3.0143   -4.0210    0.7435 H   0  0  0  0  0  0  0  0  0  0  0  0
   -2.9683   -3.0924    0.1673 C   0  0  0  0  0  0  0  0  0  0  0  0
   -3.6358   -2.3600    0.6272 H   0  0  0  0  0  0  0  0  0  0  0  0
   -3.3040   -3.2948   -0.8524 H   0  0  0  0  0  0  0  0  0  0  0  0
   -1.5472   -2.5623    0.1492 C   0  0  0  0  0  0  0  0  0  0  0  0
   -0.6610   -3.1814    0.7092 O   0  0  0  0  0  0  0  0  0  0  0  0
   -1.2638   -1.3790   -0.5028 N   0  0  0  0  0  0  0  0  0  0  0  0
   -2.0542   -0.8435   -0.8492 H   0  0  0  0  0  0  0  0  0  0  0  0
    0.0378   -0.6902   -0.4244 C   0  0  1  0  0  0  0  0  0  0  0  0
    0.8106   -1.3872   -0.7670 H   0  0  0  0  0  0  0  0  0  0  0  0
    0.0597    0.5297   -1.3651 C   0  0  0  0  0  0  0  0  0  0  0  0
    0.9300    1.1523   -1.1275 H   0  0  0  0  0  0  0  0  0  0  0  0
    0.1832    0.1866   -2.3969 H   0  0  0  0  0  0  0  0  0  0  0  0
   -1.1994    1.3594   -1.2734 C   0  0  0  0  0  0  0  0  0  0  0  0
   -2.3549    1.2201   -2.0137 N   0  0  0  0  0  0  0  0  0  0  0  0
   -2.4959    0.5870   -2.7993 H   0  0  0  0  0  0  0  0  0  0  0  0
   -3.2435    2.2034   -1.6182 C   0  0  0  0  0  0  0  0  0  0  0  0
   -4.2365    2.3538   -2.0325 H   0  0  0  0  0  0  0  0  0  0  0  0
   -2.7126    2.9309   -0.6661 N   0  0  0  0  0  0  0  0  0  0  0  0
   -1.4301    2.4360   -0.4576 C   0  0  0  0  0  0  0  0  0  0  0  0
   -0.7182    2.8378    0.2579 H   0  0  0  0  0  0  0  0  0  0  0  0
    0.4432   -0.2721    1.0061 C   0  0  0  0  0  0  0  0  0  0  0  0
    1.6261   -0.2586    1.3188 O   0  0  0  0  0  0  0  0  0  0  0  0
   -0.4775    0.3277    1.8480 N   0  0  0  0  0  0  0  0  0  0  0  0
   -1.4431    0.3572    1.5362 H   0  0  0  0  0  0  0  0  0  0  0  0
   -0.1415    0.8494    3.1664 C   0  0  0  0  0  0  0  0  0  0  0  0
    0.6153    1.6367    3.0861 H   0  0  0  0  0  0  0  0  0  0  0  0
   -1.0305    1.2725    3.6437 H   0  0  0  0  0  0  0  0  0  0  0  0
    0.2476    0.0493    3.8051 H   0  0  0  0  0  0  0  0  0  0  0  0
  1  2  1  0  0  0  0
  2  3  1  0  0  0  0
  2  4  1  0  0  0  0
  2  5  1  0  0  0  0
  5  6  2  0  0  0  0
  5  7  1  0  0  0  0
  7  8  1  0  0  0  0
  7  9  1  0  0  0  0
  9 10  1  0  0  0  0
  9 11  1  0  0  0  0
  9 22  1  0  0  0  0
 11 12  1  0  0  0  0
 11 13  1  0  0  0  0
 11 14  1  0  0  0  0
 14 15  1  0  0  0  0
 14 20  2  0  0  0  0
 15 16  1  0  0  0  0
 15 17  1  0  0  0  0
 17 18  1  0  0  0  0
 17 19  2  0  0  0  0
 19 20  1  0  0  0  0
 20 21  1  0  0  0  0
 22 23  2  0  0  0  0
 22 24  1  0  0  0  0
 24 25  1  0  0  0  0
 24 26  1  0  0  0  0
 26 27  1  0  0  0  0
 26 28  1  0  0  0  0
 26 29  1  0  0  0  0
M  END
$$$$

  -OEChem-03222214043D

 29 29  0     1  0  0  0  0  0999 V2000
   -2.9821   -4.0396    0.7820 H   0  0  0  0  0  0  0  0  0  0  0  0
   -2.9527   -3.1063    0.2121 C   0  0  0  0  0  0  0  0  0  0  0  0
   -3.5908   -2.3722    0.7095 H   0  0  0  0  0  0  0  0  0  0  0  0
   -3.3375   -3.2964   -0.7926 H   0  0  0  0  0  0  0  0  0  0  0  0
   -1.5282   -2.5903    0.1325 C   0  0  0  0  0  0  0  0  0  0  0  0
   -0.6242   -3.2260    0.6432 O   0  0  0  0  0  0  0  0  0  0  0  0
   -1.2616   -1.4037   -0.5219 N   0  0  0  0  0  0  0  0  0  0  0  0
   -2.0654   -0.8477   -0.7940 H   0  0  0  0  0  0  0  0  0  0  0  0
    0.0357   -0.7078   -0.4385 C   0  0  1  0  0  0  0  0  0  0  0  0
    0.8143   -1.3984   -0.7822 H   0  0  0  0  0  0  0  0  0  0  0  0
    0.0681    0.5292   -1.3573 C   0  0  0  0  0  0  0  0  0  0  0  0
    0.9453    1.1383   -1.1097 H   0  0  0  0  0  0  0  0  0  0  0  0
    0.1907    0.1981   -2.3932 H   0  0  0  0  0  0  0  0  0  0  0  0
   -1.1823    1.3745   -1.2689 C   0  0  0  0  0  0  0  0  0  0  0  0
   -2.4301    1.1181   -1.8015 N   0  0  0  0  0  0  0  0  0  0  0  0
   -2.6595    0.3851   -2.4708 H   0  0  0  0  0  0  0  0  0  0  0  0
   -3.2692    2.1632   -1.4593 C   0  0  0  0  0  0  0  0  0  0  0  0
   -4.3100    2.2541   -1.7572 H   0  0  0  0  0  0  0  0  0  0  0  0
   -2.6243    3.0338   -0.7228 N   0  0  0  0  0  0  0  0  0  0  0  0
   -1.3194    2.5679   -0.6094 C   0  0  0  0  0  0  0  0  0  0  0  0
   -0.5268    3.0709   -0.0629 H   0  0  0  0  0  0  0  0  0  0  0  0
    0.4276   -0.2925    0.9966 C   0  0  0  0  0  0  0  0  0  0  0  0
    1.6061   -0.2845    1.3257 O   0  0  0  0  0  0  0  0  0  0  0  0
   -0.5057    0.2989    1.8307 N   0  0  0  0  0  0  0  0  0  0  0  0
   -1.4509    0.3980    1.4747 H   0  0  0  0  0  0  0  0  0  0  0  0
   -0.1753    0.8682    3.1306 C   0  0  0  0  0  0  0  0  0  0  0  0
    0.5281    1.6998    3.0175 H   0  0  0  0  0  0  0  0  0  0  0  0
   -1.0795    1.2427    3.6199 H   0  0  0  0  0  0  0  0  0  0  0  0
    0.2776    0.1085    3.7764 H   0  0  0  0  0  0  0  0  0  0  0  0
  1  2  1  0  0  0  0
  2  3  1  0  0  0  0
  2  4  1  0  0  0  0
  2  5  1  0  0  0  0
  5  6  2  0  0  0  0
  5  7  1  0  0  0  0
  7  8  1  0  0  0  0
  7  9  1  0  0  0  0
  9 10  1  0  0  0  0
  9 11  1  0  0  0  0
  9 22  1  0  0  0  0
 11 12  1  0  0  0  0
 11 13  1  0  0  0  0
 11 14  1  0  0  0  0
 14 15  1  0  0  0  0
 14 20  2  0  0  0  0
 15 16  1  0  0  0  0
 15 17  1  0  0  0  0
 17 18  1  0  0  0  0
 17 19  2  0  0  0  0
 19 20  1  0  0  0  0
 20 21  1  0  0  0  0
 22 23  2  0  0  0  0
 22 24  1  0  0  0  0
 24 25  1  0  0  0  0
 24 26  1  0  0  0  0
 26 27  1  0  0  0  0
 26 28  1  0  0  0  0
 26 29  1  0  0  0  0
M  END
$$$$

  -OEChem-03222214043D

 29 29  0     1  0  0  0  0  0999 V2000
   -2.9304   -4.0691    0.8321 H   0  0  0  0  0  0  0  0  0  0  0  0
   -2.9213   -3.1401    0.2547 C   0  0  0  0  0  0  0  0  0  0  0  0
   -3.5457   -2.4038    0.7662 H   0  0  0  0  0  0  0  0  0  0  0  0
   -3.3361   -3.3384   -0.7363 H   0  0  0  0  0  0  0  0  0  0  0  0
   -1.5014   -2.6215    0.1286 C   0  0  0  0  0  0  0  0  0  0  0  0
   -0.5795   -3.2572    0.6060 O   0  0  0  0  0  0  0  0  0  0  0  0
   -1.2620   -1.4298   -0.5274 N   0  0  0  0  0  0  0  0  0  0  0  0
   -2.0789   -0.8742   -0.7501 H   0  0  0  0  0  0  0  0  0  0  0  0
    0.0249   -0.7158   -0.4462 C   0  0  1  0  0  0  0  0  0  0  0  0
    0.8108   -1.3971   -0.7919 H   0  0  0  0  0  0  0  0  0  0  0  0
    0.0581    0.5312   -1.3537 C   0  0  0  0  0  0  0  0  0  0  0  0
    0.9407    1.1324   -1.1060 H   0  0  0  0  0  0  0  0  0  0  0  0
    0.1812    0.1987   -2.3892 H   0  0  0  0  0  0  0  0  0  0  0  0
   -1.1840    1.3955   -1.2864 C   0  0  0  0  0  0  0  0  0  0  0  0
   -2.4971    1.0800   -1.5811 N   0  0  0  0  0  0  0  0  0  0  0  0
   -2.8123    0.2723   -2.1149 H   0  0  0  0  0  0  0  0  0  0  0  0
   -3.2808    2.1872   -1.3109 C   0  0  0  0  0  0  0  0  0  0  0  0
   -4.3519    2.2522   -1.4802 H   0  0  0  0  0  0  0  0  0  0  0  0
   -2.5421    3.1538   -0.8274 N   0  0  0  0  0  0  0  0  0  0  0  0
   -1.2350    2.6812   -0.8127 C   0  0  0  0  0  0  0  0  0  0  0  0
   -0.3782    3.2455   -0.4564 H   0  0  0  0  0  0  0  0  0  0  0  0
    0.4129   -0.2987    0.9895 C   0  0  0  0  0  0  0  0  0  0  0  0
    1.5903   -0.2889    1.3219 O   0  0  0  0  0  0  0  0  0  0  0  0
   -0.5269    0.2777    1.8272 N   0  0  0  0  0  0  0  0  0  0  0  0
   -1.4597    0.4146    1.4517 H   0  0  0  0  0  0  0  0  0  0  0  0
   -0.1939    0.8646    3.1193 C   0  0  0  0  0  0  0  0  0  0  0  0
    0.4885    1.7113    2.9916 H   0  0  0  0  0  0  0  0  0  0  0  0
   -1.1003    1.2214    3.6175 H   0  0  0  0  0  0  0  0  0  0  0  0
    0.2843    0.1206    3.7652 H   0  0  0  0  0  0  0  0  0  0  0  0
  1  2  1  0  0  0  0
  2  3  1  0  0  0  0
  2  4  1  0  0  0  0
  2  5  1  0  0  0  0
  5  6  2  0  0  0  0
  5  7  1  0  0  0  0
  7  8  1  0  0  0  0
  7  9  1  0  0  0  0
  9 10  1  0  0  0  0
  9 11  1  0  0  0  0
  9 22  1  0  0  0  0
 11 12  1  0  0  0  0
 11 13  1  0  0  0  0
 11 14  1  0  0  0  0
 14 15  1  0  0  0  0
 14 20  2  0  0  0  0
 15 16  1  0  0  0  0
 15 17  1  0  0  0  0
 17 18  1  0  0  0  0
 17 19  2  0  0  0  0
 19 20  1  0  0  0  0
 20 21  1  0  0  0  0
 22 23  2  0  0  0  0
 22 24  1  0  0  0  0
 24 25  1  0  0  0  0
 24 26  1  0  0  0  0
 26 27  1  0  0  0  0
 26 28  1  0  0  0  0
 26 29  1  0  0  0  0
M  END
$$$$

  -OEChem-03222214043D

 29 29  0     1  0  0  0  0  0999 V2000
   -2.9250   -4.2470    0.6537 H   0  0  0  0  0  0  0  0  0  0  0  0
   -2.8817   -3.3560    0.0205 C   0  0  0  0  0  0  0  0  0  0  0  0
   -3.7538   -2.7332    0.2316 H   0  0  0  0  0  0  0  0  0  0  0  0
   -2.9075   -3.6693   -1.0260 H   0  0  0  0  0  0  0  0  0  0  0  0
   -1.6084   -2.5803    0.3011 C   0  0  0  0  0  0  0  0  0  0  0  0
   -0.8256   -2.9924    1.1361 O   0  0  0  0  0  0  0  0  0  0  0  0
   -1.3440   -1.4246   -0.4095 N   0  0  0  0  0  0  0  0  0  0  0  0
   -1.9186   -1.2811   -1.2313 H   0  0  0  0  0  0  0  0  0  0  0  0
   -0.0348   -0.7413   -0.3927 C   0  0  1  0  0  0  0  0  0  0  0  0
    0.7265   -1.4438   -0.7491 H   0  0  0  0  0  0  0  0  0  0  0  0
   -0.0272    0.4988   -1.3140 C   0  0  0  0  0  0  0  0  0  0  0  0
    0.8878    1.0759   -1.1345 H   0  0  0  0  0  0  0  0  0  0  0  0
    0.0248    0.1419   -2.3473 H   0  0  0  0  0  0  0  0  0  0  0  0
   -1.2341    1.4155   -1.2121 C   0  0  0  0  0  0  0  0  0  0  0  0
   -2.5914    1.1562   -1.1629 N   0  0  0  0  0  0  0  0  0  0  0  0
   -3.0379    0.2451   -1.1849 H   0  0  0  0  0  0  0  0  0  0  0  0
   -3.2689    2.3557   -1.0476 C   0  0  0  0  0  0  0  0  0  0  0  0
   -4.3484    2.4628   -0.9873 H   0  0  0  0  0  0  0  0  0  0  0  0
   -2.4184    3.3494   -1.0175 N   0  0  0  0  0  0  0  0  0  0  0  0
   -1.1533    2.7821   -1.1162 C   0  0  0  0  0  0  0  0  0  0  0  0
   -0.2257    3.3473   -1.1127 H   0  0  0  0  0  0  0  0  0  0  0  0
    0.4172   -0.2679    1.0080 C   0  0  0  0  0  0  0  0  0  0  0  0
    1.6096   -0.2669    1.2861 O   0  0  0  0  0  0  0  0  0  0  0  0
   -0.4727    0.3733    1.8509 N   0  0  0  0  0  0  0  0  0  0  0  0
   -1.4370    0.4352    1.5412 H   0  0  0  0  0  0  0  0  0  0  0  0
   -0.0900    0.9755    3.1209 C   0  0  0  0  0  0  0  0  0  0  0  0
    0.6430    1.7732    2.9612 H   0  0  0  0  0  0  0  0  0  0  0  0
   -0.9666    1.4050    3.6151 H   0  0  0  0  0  0  0  0  0  0  0  0
    0.3471    0.2220    3.7844 H   0  0  0  0  0  0  0  0  0  0  0  0
  1  2  1  0  0  0  0
  2  3  1  0  0  0  0
  2  4  1  0  0  0  0
  2  5  1  0  0  0  0
  5  6  2  0  0  0  0
  5  7  1  0  0  0  0
  7  8  1  0  0  0  0
  7  9  1  0  0  0  0
  9 10  1  0  0  0  0
  9 11  1  0  0  0  0
  9 22  1  0  0  0  0
 11 12  1  0  0  0  0
 11 13  1  0  0  0  0
 11 14  1  0  0  0  0
 14 15  1  0  0  0  0
 14 20  2  0  0  0  0
 15 16  1  0  0  0  0
 15 17  1  0  0  0  0
 17 18  1  0  0  0  0
 17 19  2  0  0  0  0
 19 20  1  0  0  0  0
 20 21  1  0  0  0  0
 22 23  2  0  0  0  0
 22 24  1  0  0  0  0
 24 25  1  0  0  0  0
 24 26  1  0  0  0  0
 26 27  1  0  0  0  0
 26 28  1  0  0  0  0
 26 29  1  0  0  0  0
M  END
$$$$

  -OEChem-03222214043D

 29 29  0     1  0  0  0  0  0999 V2000
   -2.9235   -4.2542    0.6060 H   0  0  0  0  0  0  0  0  0  0  0  0
   -2.8890   -3.3462   -0.0035 C   0  0  0  0  0  0  0  0  0  0  0  0
   -3.7669   -2.7374    0.2247 H   0  0  0  0  0  0  0  0  0  0  0  0
   -2.9130   -3.6313   -1.0580 H   0  0  0  0  0  0  0  0  0  0  0  0
   -1.6226   -2.5664    0.2966 C   0  0  0  0  0  0  0  0  0  0  0  0
   -0.8551   -2.9706    1.1492 O   0  0  0  0  0  0  0  0  0  0  0  0
   -1.3551   -1.4048   -0.4033 N   0  0  0  0  0  0  0  0  0  0  0  0
   -1.9202   -1.2615   -1.2344 H   0  0  0  0  0  0  0  0  0  0  0  0
   -0.0413   -0.7275   -0.3825 C   0  0  1  0  0  0  0  0  0  0  0  0
    0.7136   -1.4328   -0.7473 H   0  0  0  0  0  0  0  0  0  0  0  0
   -0.0360    0.5118   -1.3048 C   0  0  0  0  0  0  0  0  0  0  0  0
    0.8800    1.0893   -1.1316 H   0  0  0  0  0  0  0  0  0  0  0  0
    0.0107    0.1499   -2.3367 H   0  0  0  0  0  0  0  0  0  0  0  0
   -1.2401    1.4326   -1.2066 C   0  0  0  0  0  0  0  0  0  0  0  0
   -2.5621    1.1850   -0.8898 N   0  0  0  0  0  0  0  0  0  0  0  0
   -2.9539    0.2946   -0.5964 H   0  0  0  0  0  0  0  0  0  0  0  0
   -3.2601    2.3774   -0.9273 C   0  0  0  0  0  0  0  0  0  0  0  0
   -4.3198    2.4902   -0.7160 H   0  0  0  0  0  0  0  0  0  0  0  0
   -2.4543    3.3569   -1.2488 N   0  0  0  0  0  0  0  0  0  0  0  0
   -1.1974    2.7875   -1.4186 C   0  0  0  0  0  0  0  0  0  0  0  0
   -0.3024    3.3429   -1.6836 H   0  0  0  0  0  0  0  0  0  0  0  0
    0.4280   -0.2653    1.0163 C   0  0  0  0  0  0  0  0  0  0  0  0
    1.6229   -0.2826    1.2821 O   0  0  0  0  0  0  0  0  0  0  0  0
   -0.4436    0.3767    1.8775 N   0  0  0  0  0  0  0  0  0  0  0  0
   -1.4133    0.4423    1.5890 H   0  0  0  0  0  0  0  0  0  0  0  0
   -0.0386    0.9470    3.1556 C   0  0  0  0  0  0  0  0  0  0  0  0
    0.7115    1.7304    3.0053 H   0  0  0  0  0  0  0  0  0  0  0  0
   -0.9014    1.3871    3.6643 H   0  0  0  0  0  0  0  0  0  0  0  0
    0.3858    0.1716    3.8019 H   0  0  0  0  0  0  0  0  0  0  0  0
  1  2  1  0  0  0  0
  2  3  1  0  0  0  0
  2  4  1  0  0  0  0
  2  5  1  0  0  0  0
  5  6  2  0  0  0  0
  5  7  1  0  0  0  0
  7  8  1  0  0  0  0
  7  9  1  0  0  0  0
  9 10  1  0  0  0  0
  9 11  1  0  0  0  0
  9 22  1  0  0  0  0
 11 12  1  0  0  0  0
 11 13  1  0  0  0  0
 11 14  1  0  0  0  0
 14 15  1  0  0  0  0
 14 20  2  0  0  0  0
 15 16  1  0  0  0  0
 15 17  1  0  0  0  0
 17 18  1  0  0  0  0
 17 19  2  0  0  0  0
 19 20  1  0  0  0  0
 20 21  1  0  0  0  0
 22 23  2  0  0  0  0
 22 24  1  0  0  0  0
 24 25  1  0  0  0  0
 24 26  1  0  0  0  0
 26 27  1  0  0  0  0
 26 28  1  0  0  0  0
 26 29  1  0  0  0  0
M  END
$$$$

  -OEChem-03222214043D

 29 29  0     1  0  0  0  0  0999 V2000
   -2.9352   -4.2394    0.5758 H   0  0  0  0  0  0  0  0  0  0  0  0
   -2.9063   -3.3161   -0.0102 C   0  0  0  0  0  0  0  0  0  0  0  0
   -3.7792   -2.7109    0.2448 H   0  0  0  0  0  0  0  0  0  0  0  0
   -2.9454   -3.5741   -1.0712 H   0  0  0  0  0  0  0  0  0  0  0  0
   -1.6333   -2.5481    0.2923 C   0  0  0  0  0  0  0  0  0  0  0  0
   -0.8655   -2.9629    1.1397 O   0  0  0  0  0  0  0  0  0  0  0  0
   -1.3621   -1.3781   -0.3911 N   0  0  0  0  0  0  0  0  0  0  0  0
   -1.9516   -1.1927   -1.1979 H   0  0  0  0  0  0  0  0  0  0  0  0
   -0.0469   -0.7037   -0.3671 C   0  0  1  0  0  0  0  0  0  0  0  0
    0.7005   -1.4145   -0.7367 H   0  0  0  0  0  0  0  0  0  0  0  0
   -0.0388    0.5248   -1.3028 C   0  0  0  0  0  0  0  0  0  0  0  0
    0.8723    1.1086   -1.1269 H   0  0  0  0  0  0  0  0  0  0  0  0
    0.0191    0.1529   -2.3306 H   0  0  0  0  0  0  0  0  0  0  0  0
   -1.2443    1.4441   -1.2226 C   0  0  0  0  0  0  0  0  0  0  0  0
   -2.4932    1.2642   -0.6601 N   0  0  0  0  0  0  0  0  0  0  0  0
   -2.8121    0.4394   -0.1581 H   0  0  0  0  0  0  0  0  0  0  0  0
   -3.2323    2.4185   -0.8386 C   0  0  0  0  0  0  0  0  0  0  0  0
   -4.2530    2.5688   -0.4983 H   0  0  0  0  0  0  0  0  0  0  0  0
   -2.5203    3.3094   -1.4811 N   0  0  0  0  0  0  0  0  0  0  0  0
   -1.2822    2.7226   -1.7178 C   0  0  0  0  0  0  0  0  0  0  0  0
   -0.4579    3.2115   -2.2282 H   0  0  0  0  0  0  0  0  0  0  0  0
    0.4442   -0.2547    1.0289 C   0  0  0  0  0  0  0  0  0  0  0  0
    1.6430   -0.2808    1.2753 O   0  0  0  0  0  0  0  0  0  0  0  0
   -0.4072    0.3832    1.9131 N   0  0  0  0  0  0  0  0  0  0  0  0
   -1.3874    0.4249    1.6628 H   0  0  0  0  0  0  0  0  0  0  0  0
    0.0207    0.9072    3.2035 C   0  0  0  0  0  0  0  0  0  0  0  0
    0.7861    1.6787    3.0686 H   0  0  0  0  0  0  0  0  0  0  0  0
   -0.8280    1.3511    3.7322 H   0  0  0  0  0  0  0  0  0  0  0  0
    0.4338    0.1045    3.8235 H   0  0  0  0  0  0  0  0  0  0  0  0
  1  2  1  0  0  0  0
  2  3  1  0  0  0  0
  2  4  1  0  0  0  0
  2  5  1  0  0  0  0
  5  6  2  0  0  0  0
  5  7  1  0  0  0  0
  7  8  1  0  0  0  0
  7  9  1  0  0  0  0
  9 10  1  0  0  0  0
  9 11  1  0  0  0  0
  9 22  1  0  0  0  0
 11 12  1  0  0  0  0
 11 13  1  0  0  0  0
 11 14  1  0  0  0  0
 14 15  1  0  0  0  0
 14 20  2  0  0  0  0
 15 16  1  0  0  0  0
 15 17  1  0  0  0  0
 17 18  1  0  0  0  0
 17 19  2  0  0  0  0
 19 20  1  0  0  0  0
 20 21  1  0  0  0  0
 22 23  2  0  0  0  0
 22 24  1  0  0  0  0
 24 25  1  0  0  0  0
 24 26  1  0  0  0  0
 26 27  1  0  0  0  0
 26 28  1  0  0  0  0
 26 29  1  0  0  0  0
M  END
$$$$

  -OEChem-03222214043D

 29 29  0     1  0  0  0  0  0999 V2000
   -2.9540   -4.2046    0.5666 H   0  0  0  0  0  0  0  0  0  0  0  0
   -2.9226   -3.2755   -0.0098 C   0  0  0  0  0  0  0  0  0  0  0  0
   -3.7877   -2.6654    0.2599 H   0  0  0  0  0  0  0  0  0  0  0  0
   -2.9742   -3.5214   -1.0732 H   0  0  0  0  0  0  0  0  0  0  0  0
   -1.6397   -2.5221    0.2869 C   0  0  0  0  0  0  0  0  0  0  0  0
   -0.8620   -2.9531    1.1176 O   0  0  0  0  0  0  0  0  0  0  0  0
   -1.3727   -1.3356   -0.3676 N   0  0  0  0  0  0  0  0  0  0  0  0
   -2.0024   -1.0897   -1.1274 H   0  0  0  0  0  0  0  0  0  0  0  0
   -0.0596   -0.6580   -0.3457 C   0  0  1  0  0  0  0  0  0  0  0  0
    0.6794   -1.3756   -0.7201 H   0  0  0  0  0  0  0  0  0  0  0  0
   -0.0394    0.5518   -1.3045 C   0  0  0  0  0  0  0  0  0  0  0  0
    0.8644    1.1424   -1.1149 H   0  0  0  0  0  0  0  0  0  0  0  0
    0.0434    0.1670   -2.3260 H   0  0  0  0  0  0  0  0  0  0  0  0
   -1.2437    1.4710   -1.2579 C   0  0  0  0  0  0  0  0  0  0  0  0
   -2.3901    1.4229   -0.4907 N   0  0  0  0  0  0  0  0  0  0  0  0
   -2.6026    0.7360    0.2272 H   0  0  0  0  0  0  0  0  0  0  0  0
   -3.1890    2.5022   -0.8184 C   0  0  0  0  0  0  0  0  0  0  0  0
   -4.1519    2.7287   -0.3693 H   0  0  0  0  0  0  0  0  0  0  0  0
   -2.6156    3.2148   -1.7553 N   0  0  0  0  0  0  0  0  0  0  0  0
   -1.4038    2.5917   -2.0316 C   0  0  0  0  0  0  0  0  0  0  0  0
   -0.6832    2.9450   -2.7633 H   0  0  0  0  0  0  0  0  0  0  0  0
    0.4563   -0.2394    1.0506 C   0  0  0  0  0  0  0  0  0  0  0  0
    1.6640   -0.2127    1.2489 O   0  0  0  0  0  0  0  0  0  0  0  0
   -0.3818    0.3741    1.9651 N   0  0  0  0  0  0  0  0  0  0  0  0
   -1.3710    0.1979    1.8449 H   0  0  0  0  0  0  0  0  0  0  0  0
    0.0837    0.8417    3.2652 C   0  0  0  0  0  0  0  0  0  0  0  0
    0.8686    1.5956    3.1429 H   0  0  0  0  0  0  0  0  0  0  0  0
   -0.7422    1.2937    3.8224 H   0  0  0  0  0  0  0  0  0  0  0  0
    0.4845    0.0078    3.8513 H   0  0  0  0  0  0  0  0  0  0  0  0
  1  2  1  0  0  0  0
  2  3  1  0  0  0  0
  2  4  1  0  0  0  0
  2  5  1  0  0  0  0
  5  6  2  0  0  0  0
  5  7  1  0  0  0  0
  7  8  1  0  0  0  0
  7  9  1  0  0  0  0
  9 10  1  0  0  0  0
  9 11  1  0  0  0  0
  9 22  1  0  0  0  0
 11 12  1  0  0  0  0
 11 13  1  0  0  0  0
 11 14  1  0  0  0  0
 14 15  1  0  0  0  0
 14 20  2  0  0  0  0
 15 16  1  0  0  0  0
 15 17  1  0  0  0  0
 17 18  1  0  0  0  0
 17 19  2  0  0  0  0
 19 20  1  0  0  0  0
 20 21  1  0  0  0  0
 22 23  2  0  0  0  0
 22 24  1  0  0  0  0
 24 25  1  0  0  0  0
 24 26  1  0  0  0  0
 26 27  1  0  0  0  0
 26 28  1  0  0  0  0
 26 29  1  0  0  0  0
M  END
$$$$

  -OEChem-03222214043D

 29 29  0     1  0  0  0  0  0999 V2000
   -3.0108   -4.1360    0.5294 H   0  0  0  0  0  0  0  0  0  0  0  0
   -2.9652   -3.1898   -0.0175 C   0  0  0  0  0  0  0  0  0  0  0  0
   -3.7930   -2.5551    0.3069 H   0  0  0  0  0  0  0  0  0  0  0  0
   -3.0695   -3.3972   -1.0852 H   0  0  0  0  0  0  0  0  0  0  0  0
   -1.6425   -2.4969    0.2495 C   0  0  0  0  0  0  0  0  0  0  0  0
   -0.8539   -2.9751    1.0439 O   0  0  0  0  0  0  0  0  0  0  0  0
   -1.3537   -1.3010   -0.3755 N   0  0  0  0  0  0  0  0  0  0  0  0
   -2.0245   -0.9695   -1.0649 H   0  0  0  0  0  0  0  0  0  0  0  0
   -0.0374   -0.6329   -0.3422 C   0  0  1  0  0  0  0  0  0  0  0  0
    0.6964   -1.3553   -0.7170 H   0  0  0  0  0  0  0  0  0  0  0  0
   -0.0009    0.5722   -1.3061 C   0  0  0  0  0  0  0  0  0  0  0  0
    0.8967    1.1637   -1.0925 H   0  0  0  0  0  0  0  0  0  0  0  0
    0.1050    0.1918   -2.3273 H   0  0  0  0  0  0  0  0  0  0  0  0
   -1.2037    1.4908   -1.2674 C   0  0  0  0  0  0  0  0  0  0  0  0
   -2.2092    1.6001   -0.3304 N   0  0  0  0  0  0  0  0  0  0  0  0
   -2.2225    1.1547    0.5830 H   0  0  0  0  0  0  0  0  0  0  0  0
   -3.1141    2.5516   -0.7611 C   0  0  0  0  0  0  0  0  0  0  0  0
   -3.9976    2.8680   -0.2140 H   0  0  0  0  0  0  0  0  0  0  0  0
   -2.7506    3.0184   -1.9296 N   0  0  0  0  0  0  0  0  0  0  0  0
   -1.5635    2.3715   -2.2547 C   0  0  0  0  0  0  0  0  0  0  0  0
   -1.0051    2.5342   -3.1719 H   0  0  0  0  0  0  0  0  0  0  0  0
    0.4674   -0.2527    1.0682 C   0  0  0  0  0  0  0  0  0  0  0  0
    1.6743   -0.1778    1.2591 O   0  0  0  0  0  0  0  0  0  0  0  0
   -0.3887    0.3396    1.9816 N   0  0  0  0  0  0  0  0  0  0  0  0
   -1.3440    0.0060    1.9274 H   0  0  0  0  0  0  0  0  0  0  0  0
    0.0819    0.8128    3.2790 C   0  0  0  0  0  0  0  0  0  0  0  0
    0.8481    1.5851    3.1517 H   0  0  0  0  0  0  0  0  0  0  0  0
   -0.7469    1.2441    3.8484 H   0  0  0  0  0  0  0  0  0  0  0  0
    0.5091   -0.0141    3.8564 H   0  0  0  0  0  0  0  0  0  0  0  0
  1  2  1  0  0  0  0
  2  3  1  0  0  0  0
  2  4  1  0  0  0  0
  2  5  1  0  0  0  0
  5  6  2  0  0  0  0
  5  7  1  0  0  0  0
  7  8  1  0  0  0  0
  7  9  1  0  0  0  0
  9 10  1  0  0  0  0
  9 11  1  0  0  0  0
  9 22  1  0  0  0  0
 11 12  1  0  0  0  0
 11 13  1  0  0  0  0
 11 14  1  0  0  0  0
 14 15  1  0  0  0  0
 14 20  2  0  0  0  0
 15 16  1  0  0  0  0
 15 17  1  0  0  0  0
 17 18  1  0  0  0  0
 17 19  2  0  0  0  0
 19 20  1  0  0  0  0
 20 21  1  0  0  0  0
 22 23  2  0  0  0  0
 22 24  1  0  0  0  0
 24 25  1  0  0  0  0
 24 26  1  0  0  0  0
 26 27  1  0  0  0  0
 26 28  1  0  0  0  0
 26 29  1  0  0  0  0
M  END
$$$$

  -OEChem-03222214043D

 29 29  0     1  0  0  0  0  0999 V2000
   -3.0614   -4.0536    0.5520 H   0  0  0  0  0  0  0  0  0  0  0  0
   -2.9965   -3.1098    0.0029 C   0  0  0  0  0  0  0  0  0  0  0  0
   -3.7859   -2.4421    0.3556 H   0  0  0  0  0  0  0  0  0  0  0  0
   -3.1466   -3.3120   -1.0602 H   0  0  0  0  0  0  0  0  0  0  0  0
   -1.6381   -2.4719    0.2226 C   0  0  0  0  0  0  0  0  0  0  0  0
   -0.8370   -2.9888    0.9797 O   0  0  0  0  0  0  0  0  0  0  0  0
   -1.3282   -1.2815   -0.4024 N   0  0  0  0  0  0  0  0  0  0  0  0
   -2.0275   -0.8898   -1.0294 H   0  0  0  0  0  0  0  0  0  0  0  0
   -0.0063   -0.6257   -0.3634 C   0  0  1  0  0  0  0  0  0  0  0  0
    0.7267   -1.3538   -0.7282 H   0  0  0  0  0  0  0  0  0  0  0  0
    0.0421    0.5729   -1.3336 C   0  0  0  0  0  0  0  0  0  0  0  0
    0.9390    1.1637   -1.1162 H   0  0  0  0  0  0  0  0  0  0  0  0
    0.1511    0.1901   -2.3536 H   0  0  0  0  0  0  0  0  0  0  0  0
   -1.1625    1.4865   -1.2894 C   0  0  0  0  0  0  0  0  0  0  0  0
   -1.9925    1.7774   -0.2287 N   0  0  0  0  0  0  0  0  0  0  0  0
   -1.8007    1.5619    0.7480 H   0  0  0  0  0  0  0  0  0  0  0  0
   -3.0008    2.6108   -0.6736 C   0  0  0  0  0  0  0  0  0  0  0  0
   -3.7846    3.0333   -0.0513 H   0  0  0  0  0  0  0  0  0  0  0  0
   -2.8724    2.8205   -1.9606 N   0  0  0  0  0  0  0  0  0  0  0  0
   -1.7311    2.1320   -2.3563 C   0  0  0  0  0  0  0  0  0  0  0  0
   -1.3538    2.0974   -3.3741 H   0  0  0  0  0  0  0  0  0  0  0  0
    0.4743   -0.2536    1.0570 C   0  0  0  0  0  0  0  0  0  0  0  0
    1.6762   -0.1746    1.2738 O   0  0  0  0  0  0  0  0  0  0  0  0
   -0.4033    0.3424    1.9484 N   0  0  0  0  0  0  0  0  0  0  0  0
   -1.3550   -0.0012    1.8680 H   0  0  0  0  0  0  0  0  0  0  0  0
    0.0344    0.7965    3.2641 C   0  0  0  0  0  0  0  0  0  0  0  0
    0.8090    1.5647    3.1679 H   0  0  0  0  0  0  0  0  0  0  0  0
   -0.8072    1.2259    3.8156 H   0  0  0  0  0  0  0  0  0  0  0  0
    0.4393   -0.0404    3.8430 H   0  0  0  0  0  0  0  0  0  0  0  0
  1  2  1  0  0  0  0
  2  3  1  0  0  0  0
  2  4  1  0  0  0  0
  2  5  1  0  0  0  0
  5  6  2  0  0  0  0
  5  7  1  0  0  0  0
  7  8  1  0  0  0  0
  7  9  1  0  0  0  0
  9 10  1  0  0  0  0
  9 11  1  0  0  0  0
  9 22  1  0  0  0  0
 11 12  1  0  0  0  0
 11 13  1  0  0  0  0
 11 14  1  0  0  0  0
 14 15  1  0  0  0  0
 14 20  2  0  0  0  0
 15 16  1  0  0  0  0
 15 17  1  0  0  0  0
 17 18  1  0  0  0  0
 17 19  2  0  0  0  0
 19 20  1  0  0  0  0
 20 21  1  0  0  0  0
 22 23  2  0  0  0  0
 22 24  1  0  0  0  0
 24 25  1  0  0  0  0
 24 26  1  0  0  0  0
 26 27  1  0  0  0  0
 26 28  1  0  0  0  0
 26 29  1  0  0  0  0
M  END
$$$$

  -OEChem-03222214043D

 29 29  0     1  0  0  0  0  0999 V2000
   -3.0843   -4.0019    0.5889 H   0  0  0  0  0  0  0  0  0  0  0  0
   -3.0102   -3.0632    0.0325 C   0  0  0  0  0  0  0  0  0  0  0  0
   -3.7735   -2.3739    0.4011 H   0  0  0  0  0  0  0  0  0  0  0  0
   -3.1929   -3.2672   -1.0253 H   0  0  0  0  0  0  0  0  0  0  0  0
   -1.6309   -2.4579    0.2128 C   0  0  0  0  0  0  0  0  0  0  0  0
   -0.8196   -2.9960    0.9441 O   0  0  0  0  0  0  0  0  0  0  0  0
   -1.3092   -1.2778   -0.4255 N   0  0  0  0  0  0  0  0  0  0  0  0
   -2.0249   -0.8529   -1.0105 H   0  0  0  0  0  0  0  0  0  0  0  0
    0.0137   -0.6255   -0.3798 C   0  0  1  0  0  0  0  0  0  0  0  0
    0.7502   -1.3583   -0.7278 H   0  0  0  0  0  0  0  0  0  0  0  0
    0.0689    0.5620   -1.3619 C   0  0  0  0  0  0  0  0  0  0  0  0
    0.9625    1.1595   -1.1492 H   0  0  0  0  0  0  0  0  0  0  0  0
    0.1797    0.1686   -2.3776 H   0  0  0  0  0  0  0  0  0  0  0  0
   -1.1453    1.4609   -1.3199 C   0  0  0  0  0  0  0  0  0  0  0  0
   -1.7986    1.9577   -0.2139 N   0  0  0  0  0  0  0  0  0  0  0  0
   -1.4655    1.9006    0.7486 H   0  0  0  0  0  0  0  0  0  0  0  0
   -2.8844    2.6980   -0.6398 C   0  0  0  0  0  0  0  0  0  0  0  0
   -3.5729    3.2306    0.0102 H   0  0  0  0  0  0  0  0  0  0  0  0
   -2.9633    2.6628   -1.9478 N   0  0  0  0  0  0  0  0  0  0  0  0
   -1.8821    1.9061   -2.3860 C   0  0  0  0  0  0  0  0  0  0  0  0
   -1.6640    1.6859   -3.4269 H   0  0  0  0  0  0  0  0  0  0  0  0
    0.4749   -0.2350    1.0419 C   0  0  0  0  0  0  0  0  0  0  0  0
    1.6729   -0.1730    1.2838 O   0  0  0  0  0  0  0  0  0  0  0  0
   -0.4111    0.3764    1.9143 N   0  0  0  0  0  0  0  0  0  0  0  0
   -1.3785    0.0979    1.7798 H   0  0  0  0  0  0  0  0  0  0  0  0
   -0.0066    0.7929    3.2526 C   0  0  0  0  0  0  0  0  0  0  0  0
    0.7935    1.5388    3.1980 H   0  0  0  0  0  0  0  0  0  0  0  0
   -0.8539    1.2366    3.7840 H   0  0  0  0  0  0  0  0  0  0  0  0
    0.3534   -0.0667    3.8282 H   0  0  0  0  0  0  0  0  0  0  0  0
  1  2  1  0  0  0  0
  2  3  1  0  0  0  0
  2  4  1  0  0  0  0
  2  5  1  0  0  0  0
  5  6  2  0  0  0  0
  5  7  1  0  0  0  0
  7  8  1  0  0  0  0
  7  9  1  0  0  0  0
  9 10  1  0  0  0  0
  9 11  1  0  0  0  0
  9 22  1  0  0  0  0
 11 12  1  0  0  0  0
 11 13  1  0  0  0  0
 11 14  1  0  0  0  0
 14 15  1  0  0  0  0
 14 20  2  0  0  0  0
 15 16  1  0  0  0  0
 15 17  1  0  0  0  0
 17 18  1  0  0  0  0
 17 19  2  0  0  0  0
 19 20  1  0  0  0  0
 20 21  1  0  0  0  0
 22 23  2  0  0  0  0
 22 24  1  0  0  0  0
 24 25  1  0  0  0  0
 24 26  1  0  0  0  0
 26 27  1  0  0  0  0
 26 28  1  0  0  0  0
 26 29  1  0  0  0  0
M  END
$$$$

  -OEChem-03222214043D

 29 29  0     1  0  0  0  0  0999 V2000
   -3.0913   -3.9727    0.6302 H   0  0  0  0  0  0  0  0  0  0  0  0
   -3.0125   -3.0409    0.0630 C   0  0  0  0  0  0  0  0  0  0  0  0
   -3.7558   -2.3350    0.4408 H   0  0  0  0  0  0  0  0  0  0  0  0
   -3.2209   -3.2514   -0.9887 H   0  0  0  0  0  0  0  0  0  0  0  0
   -1.6199   -2.4577    0.2085 C   0  0  0  0  0  0  0  0  0  0  0  0
   -0.8019   -3.0042    0.9262 O   0  0  0  0  0  0  0  0  0  0  0  0
   -1.2923   -1.2893   -0.4483 N   0  0  0  0  0  0  0  0  0  0  0  0
   -2.0167   -0.8520   -1.0126 H   0  0  0  0  0  0  0  0  0  0  0  0
    0.0303   -0.6361   -0.3983 C   0  0  1  0  0  0  0  0  0  0  0  0
    0.7733   -1.3691   -0.7326 H   0  0  0  0  0  0  0  0  0  0  0  0
    0.0859    0.5478   -1.3836 C   0  0  0  0  0  0  0  0  0  0  0  0
    0.9785    1.1504   -1.1816 H   0  0  0  0  0  0  0  0  0  0  0  0
    0.1902    0.1488   -2.3977 H   0  0  0  0  0  0  0  0  0  0  0  0
   -1.1383    1.4308   -1.3335 C   0  0  0  0  0  0  0  0  0  0  0  0
   -1.6203    2.1377   -0.2547 N   0  0  0  0  0  0  0  0  0  0  0  0
   -1.1727    2.2126    0.6595 H   0  0  0  0  0  0  0  0  0  0  0  0
   -2.7692    2.8001   -0.6420 C   0  0  0  0  0  0  0  0  0  0  0  0
   -3.3657    3.4457   -0.0035 H   0  0  0  0  0  0  0  0  0  0  0  0
   -3.0385    2.5297   -1.8967 N   0  0  0  0  0  0  0  0  0  0  0  0
   -2.0220    1.6947   -2.3466 C   0  0  0  0  0  0  0  0  0  0  0  0
   -1.9495    1.2962   -3.3544 H   0  0  0  0  0  0  0  0  0  0  0  0
    0.4722   -0.2203    1.0221 C   0  0  0  0  0  0  0  0  0  0  0  0
    1.6653   -0.1747    1.2902 O   0  0  0  0  0  0  0  0  0  0  0  0
   -0.4224    0.4076    1.8733 N   0  0  0  0  0  0  0  0  0  0  0  0
   -1.3993    0.2013    1.6857 H   0  0  0  0  0  0  0  0  0  0  0  0
   -0.0529    0.8097    3.2257 C   0  0  0  0  0  0  0  0  0  0  0  0
    0.7627    1.5402    3.2004 H   0  0  0  0  0  0  0  0  0  0  0  0
   -0.9083    1.2668    3.7322 H   0  0  0  0  0  0  0  0  0  0  0  0
    0.2719   -0.0597    3.8075 H   0  0  0  0  0  0  0  0  0  0  0  0
  1  2  1  0  0  0  0
  2  3  1  0  0  0  0
  2  4  1  0  0  0  0
  2  5  1  0  0  0  0
  5  6  2  0  0  0  0
  5  7  1  0  0  0  0
  7  8  1  0  0  0  0
  7  9  1  0  0  0  0
  9 10  1  0  0  0  0
  9 11  1  0  0  0  0
  9 22  1  0  0  0  0
 11 12  1  0  0  0  0
 11 13  1  0  0  0  0
 11 14  1  0  0  0  0
 14 15  1  0  0  0  0
 14 20  2  0  0  0  0
 15 16  1  0  0  0  0
 15 17  1  0  0  0  0
 17 18  1  0  0  0  0
 17 19  2  0  0  0  0
 19 20  1  0  0  0  0
 20 21  1  0  0  0  0
 22 23  2  0  0  0  0
 22 24  1  0  0  0  0
 24 25  1  0  0  0  0
 24 26  1  0  0  0  0
 26 27  1  0  0  0  0
 26 28  1  0  0  0  0
 26 29  1  0  0  0  0
M  END
$$$$

  -OEChem-03222214043D

 29 29  0     1  0  0  0  0  0999 V2000
   -3.0872   -3.9651    0.6700 H   0  0  0  0  0  0  0  0  0  0  0  0
   -3.0090   -3.0412    0.0896 C   0  0  0  0  0  0  0  0  0  0  0  0
   -3.7389   -2.3234    0.4710 H   0  0  0  0  0  0  0  0  0  0  0  0
   -3.2369   -3.2634   -0.9557 H   0  0  0  0  0  0  0  0  0  0  0  0
   -1.6081   -2.4705    0.2047 C   0  0  0  0  0  0  0  0  0  0  0  0
   -0.7807   -3.0243    0.9057 O   0  0  0  0  0  0  0  0  0  0  0  0
   -1.2806   -1.3115   -0.4689 N   0  0  0  0  0  0  0  0  0  0  0  0
   -2.0184   -0.8581   -1.0016 H   0  0  0  0  0  0  0  0  0  0  0  0
    0.0401   -0.6539   -0.4163 C   0  0  1  0  0  0  0  0  0  0  0  0
    0.7903   -1.3832   -0.7416 H   0  0  0  0  0  0  0  0  0  0  0  0
    0.0950    0.5339   -1.3958 C   0  0  0  0  0  0  0  0  0  0  0  0
    0.9875    1.1392   -1.2016 H   0  0  0  0  0  0  0  0  0  0  0  0
    0.1908    0.1365   -2.4116 H   0  0  0  0  0  0  0  0  0  0  0  0
   -1.1371    1.4033   -1.3314 C   0  0  0  0  0  0  0  0  0  0  0  0
   -1.4651    2.3084   -0.3472 N   0  0  0  0  0  0  0  0  0  0  0  0
   -0.9118    2.5186    0.4838 H   0  0  0  0  0  0  0  0  0  0  0  0
   -2.6657    2.9040   -0.6838 C   0  0  0  0  0  0  0  0  0  0  0  0
   -3.1785    3.6576   -0.0926 H   0  0  0  0  0  0  0  0  0  0  0  0
   -3.1018    2.4183   -1.8218 N   0  0  0  0  0  0  0  0  0  0  0  0
   -2.1474    1.5035   -2.2509 C   0  0  0  0  0  0  0  0  0  0  0  0
   -2.2031    0.9395   -3.1774 H   0  0  0  0  0  0  0  0  0  0  0  0
    0.4658   -0.2146    1.0021 C   0  0  0  0  0  0  0  0  0  0  0  0
    1.6542   -0.1811    1.2922 O   0  0  0  0  0  0  0  0  0  0  0  0
   -0.4377    0.4250    1.8340 N   0  0  0  0  0  0  0  0  0  0  0  0
   -1.4165    0.2856    1.6005 H   0  0  0  0  0  0  0  0  0  0  0  0
   -0.0965    0.8401    3.1895 C   0  0  0  0  0  0  0  0  0  0  0  0
    0.7251    1.5641    3.1749 H   0  0  0  0  0  0  0  0  0  0  0  0
   -0.9600    1.3093    3.6705 H   0  0  0  0  0  0  0  0  0  0  0  0
    0.2079   -0.0246    3.7887 H   0  0  0  0  0  0  0  0  0  0  0  0
  1  2  1  0  0  0  0
  2  3  1  0  0  0  0
  2  4  1  0  0  0  0
  2  5  1  0  0  0  0
  5  6  2  0  0  0  0
  5  7  1  0  0  0  0
  7  8  1  0  0  0  0
  7  9  1  0  0  0  0
  9 10  1  0  0  0  0
  9 11  1  0  0  0  0
  9 22  1  0  0  0  0
 11 12  1  0  0  0  0
 11 13  1  0  0  0  0
 11 14  1  0  0  0  0
 14 15  1  0  0  0  0
 14 20  2  0  0  0  0
 15 16  1  0  0  0  0
 15 17  1  0  0  0  0
 17 18  1  0  0  0  0
 17 19  2  0  0  0  0
 19 20  1  0  0  0  0
 20 21  1  0  0  0  0
 22 23  2  0  0  0  0
 22 24  1  0  0  0  0
 24 25  1  0  0  0  0
 24 26  1  0  0  0  0
 26 27  1  0  0  0  0
 26 28  1  0  0  0  0
 26 29  1  0  0  0  0
M  END
$$$$

  -OEChem-03222214043D

 29 29  0     1  0  0  0  0  0999 V2000
   -3.0680   -3.9647    0.7282 H   0  0  0  0  0  0  0  0  0  0  0  0
   -2.9959   -3.0481    0.1355 C   0  0  0  0  0  0  0  0  0  0  0  0
   -3.6978   -2.3135    0.5371 H   0  0  0  0  0  0  0  0  0  0  0  0
   -3.2683   -3.2755   -0.8978 H   0  0  0  0  0  0  0  0  0  0  0  0
   -1.5823   -2.5010    0.1912 C   0  0  0  0  0  0  0  0  0  0  0  0
   -0.7345   -3.0711    0.8538 O   0  0  0  0  0  0  0  0  0  0  0  0
   -1.2663   -1.3452   -0.4937 N   0  0  0  0  0  0  0  0  0  0  0  0
   -2.0231   -0.8743   -0.9814 H   0  0  0  0  0  0  0  0  0  0  0  0
    0.0487   -0.6767   -0.4381 C   0  0  1  0  0  0  0  0  0  0  0  0
    0.8095   -1.3962   -0.7607 H   0  0  0  0  0  0  0  0  0  0  0  0
    0.0980    0.5254   -1.3995 C   0  0  0  0  0  0  0  0  0  0  0  0
    0.9904    1.1307   -1.2051 H   0  0  0  0  0  0  0  0  0  0  0  0
    0.1876    0.1406   -2.4206 H   0  0  0  0  0  0  0  0  0  0  0  0
   -1.1391    1.3859   -1.3183 C   0  0  0  0  0  0  0  0  0  0  0  0
   -1.3397    2.4640   -0.4859 N   0  0  0  0  0  0  0  0  0  0  0  0
   -0.6911    2.8065    0.2226 H   0  0  0  0  0  0  0  0  0  0  0  0
   -2.5788    3.0075   -0.7670 C   0  0  0  0  0  0  0  0  0  0  0  0
   -3.0171    3.8624   -0.2597 H   0  0  0  0  0  0  0  0  0  0  0  0
   -3.1541    2.3332   -1.7347 N   0  0  0  0  0  0  0  0  0  0  0  0
   -2.2550    1.3433   -2.1118 C   0  0  0  0  0  0  0  0  0  0  0  0
   -2.4183    0.6327   -2.9168 H   0  0  0  0  0  0  0  0  0  0  0  0
    0.4552   -0.2233    0.9814 C   0  0  0  0  0  0  0  0  0  0  0  0
    1.6382   -0.1920    1.2934 O   0  0  0  0  0  0  0  0  0  0  0  0
   -0.4641    0.4153    1.7964 N   0  0  0  0  0  0  0  0  0  0  0  0
   -1.4379    0.3301    1.5215 H   0  0  0  0  0  0  0  0  0  0  0  0
   -0.1500    0.8660    3.1462 C   0  0  0  0  0  0  0  0  0  0  0  0
    0.6687    1.5931    3.1283 H   0  0  0  0  0  0  0  0  0  0  0  0
   -1.0243    1.3434    3.5988 H   0  0  0  0  0  0  0  0  0  0  0  0
    0.1464    0.0176    3.7720 H   0  0  0  0  0  0  0  0  0  0  0  0
  1  2  1  0  0  0  0
  2  3  1  0  0  0  0
  2  4  1  0  0  0  0
  2  5  1  0  0  0  0
  5  6  2  0  0  0  0
  5  7  1  0  0  0  0
  7  8  1  0  0  0  0
  7  9  1  0  0  0  0
  9 10  1  0  0  0  0
  9 11  1  0  0  0  0
  9 22  1  0  0  0  0
 11 12  1  0  0  0  0
 11 13  1  0  0  0  0
 11 14  1  0  0  0  0
 14 15  1  0  0  0  0
 14 20  2  0  0  0  0
 15 16  1  0  0  0  0
 15 17  1  0  0  0  0
 17 18  1  0  0  0  0
 17 19  2  0  0  0  0
 19 20  1  0  0  0  0
 20 21  1  0  0  0  0
 22 23  2  0  0  0  0
 22 24  1  0  0  0  0
 24 25  1  0  0  0  0
 24 26  1  0  0  0  0
 26 27  1  0  0  0  0
 26 28  1  0  0  0  0
 26 29  1  0  0  0  0
M  END
$$$$

  -OEChem-03222214043D

 29 29  0     1  0  0  0  0  0999 V2000
   -3.0345   -4.0034    0.7588 H   0  0  0  0  0  0  0  0  0  0  0  0
   -2.9775   -3.0893    0.1611 C   0  0  0  0  0  0  0  0  0  0  0  0
   -3.6814   -2.3589    0.5670 H   0  0  0  0  0  0  0  0  0  0  0  0
   -3.2585   -3.3247   -0.8682 H   0  0  0  0  0  0  0  0  0  0  0  0
   -1.5684   -2.5295    0.1996 C   0  0  0  0  0  0  0  0  0  0  0  0
   -0.7068   -3.0950    0.8482 O   0  0  0  0  0  0  0  0  0  0  0  0
   -1.2701   -1.3733   -0.4930 N   0  0  0  0  0  0  0  0  0  0  0  0
   -2.0380   -0.9111   -0.9698 H   0  0  0  0  0  0  0  0  0  0  0  0
    0.0388   -0.6915   -0.4455 C   0  0  1  0  0  0  0  0  0  0  0  0
    0.8055   -1.4036   -0.7706 H   0  0  0  0  0  0  0  0  0  0  0  0
    0.0855    0.5213   -1.3949 C   0  0  0  0  0  0  0  0  0  0  0  0
    0.9814    1.1209   -1.1988 H   0  0  0  0  0  0  0  0  0  0  0  0
    0.1709    0.1452   -2.4196 H   0  0  0  0  0  0  0  0  0  0  0  0
   -1.1480    1.3882   -1.3111 C   0  0  0  0  0  0  0  0  0  0  0  0
   -1.2438    2.6146   -0.6932 N   0  0  0  0  0  0  0  0  0  0  0  0
   -0.5117    3.0759   -0.1546 H   0  0  0  0  0  0  0  0  0  0  0  0
   -2.5126    3.1173   -0.9101 C   0  0  0  0  0  0  0  0  0  0  0  0
   -2.8861    4.0616   -0.5237 H   0  0  0  0  0  0  0  0  0  0  0  0
   -3.2047    2.2821   -1.6481 N   0  0  0  0  0  0  0  0  0  0  0  0
   -2.3555    1.2221   -1.9372 C   0  0  0  0  0  0  0  0  0  0  0  0
   -2.6153    0.3795   -2.5709 H   0  0  0  0  0  0  0  0  0  0  0  0
    0.4415   -0.2302    0.9725 C   0  0  0  0  0  0  0  0  0  0  0  0
    1.6233   -0.2002    1.2895 O   0  0  0  0  0  0  0  0  0  0  0  0
   -0.4833    0.4017    1.7862 N   0  0  0  0  0  0  0  0  0  0  0  0
   -1.4529    0.3602    1.4878 H   0  0  0  0  0  0  0  0  0  0  0  0
   -0.1737    0.8805    3.1274 C   0  0  0  0  0  0  0  0  0  0  0  0
    0.6356    1.6174    3.0959 H   0  0  0  0  0  0  0  0  0  0  0  0
   -1.0537    1.3541    3.5725 H   0  0  0  0  0  0  0  0  0  0  0  0
    0.1339    0.0472    3.7680 H   0  0  0  0  0  0  0  0  0  0  0  0
  1  2  1  0  0  0  0
  2  3  1  0  0  0  0
  2  4  1  0  0  0  0
  2  5  1  0  0  0  0
  5  6  2  0  0  0  0
  5  7  1  0  0  0  0
  7  8  1  0  0  0  0
  7  9  1  0  0  0  0
  9 10  1  0  0  0  0
  9 11  1  0  0  0  0
  9 22  1  0  0  0  0
 11 12  1  0  0  0  0
 11 13  1  0  0  0  0
 11 14  1  0  0  0  0
 14 15  1  0  0  0  0
 14 20  2  0  0  0  0
 15 16  1  0  0  0  0
 15 17  1  0  0  0  0
 17 18  1  0  0  0  0
 17 19  2  0  0  0  0
 19 20  1  0  0  0  0
 20 21  1  0  0  0  0
 22 23  2  0  0  0  0
 22 24  1  0  0  0  0
 24 25  1  0  0  0  0
 24 26  1  0  0  0  0
 26 27  1  0  0  0  0
 26 28  1  0  0  0  0
 26 29  1  0  0  0  0
M  END
$$$$

  -OEChem-03222214043D

 29 29  0     1  0  0  0  0  0999 V2000
   -2.9997   -4.0808    0.7504 H   0  0  0  0  0  0  0  0  0  0  0  0
   -2.9545   -3.1658    0.1527 C   0  0  0  0  0  0  0  0  0  0  0  0
   -3.6949   -2.4591    0.5351 H   0  0  0  0  0  0  0  0  0  0  0  0
   -3.1954   -3.4114   -0.8844 H   0  0  0  0  0  0  0  0  0  0  0  0
   -1.5668   -2.5584    0.2332 C   0  0  0  0  0  0  0  0  0  0  0  0
   -0.7078   -3.0893    0.9134 O   0  0  0  0  0  0  0  0  0  0  0  0
   -1.2861   -1.4005   -0.4641 N   0  0  0  0  0  0  0  0  0  0  0  0
   -2.0399   -0.9994   -1.0108 H   0  0  0  0  0  0  0  0  0  0  0  0
    0.0144   -0.7025   -0.4354 C   0  0  1  0  0  0  0  0  0  0  0  0
    0.7839   -1.4084   -0.7670 H   0  0  0  0  0  0  0  0  0  0  0  0
    0.0520    0.5175   -1.3799 C   0  0  0  0  0  0  0  0  0  0  0  0
    0.9525    1.1099   -1.1820 H   0  0  0  0  0  0  0  0  0  0  0  0
    0.1370    0.1463   -2.4063 H   0  0  0  0  0  0  0  0  0  0  0  0
   -1.1705    1.4059   -1.3083 C   0  0  0  0  0  0  0  0  0  0  0  0
   -1.1762    2.7382   -0.9593 N   0  0  0  0  0  0  0  0  0  0  0  0
   -0.3760    3.2771   -0.6314 H   0  0  0  0  0  0  0  0  0  0  0  0
   -2.4617    3.2265   -1.0966 C   0  0  0  0  0  0  0  0  0  0  0  0
   -2.7731    4.2423   -0.8699 H   0  0  0  0  0  0  0  0  0  0  0  0
   -3.2548    2.2806   -1.5396 N   0  0  0  0  0  0  0  0  0  0  0  0
   -2.4581    1.1570   -1.7095 C   0  0  0  0  0  0  0  0  0  0  0  0
   -2.8116    0.2150   -2.1170 H   0  0  0  0  0  0  0  0  0  0  0  0
    0.4288   -0.2328    0.9766 C   0  0  0  0  0  0  0  0  0  0  0  0
    1.6149   -0.1892    1.2767 O   0  0  0  0  0  0  0  0  0  0  0  0
   -0.4926    0.3892    1.8009 N   0  0  0  0  0  0  0  0  0  0  0  0
   -1.4647    0.3501    1.5109 H   0  0  0  0  0  0  0  0  0  0  0  0
   -0.1662    0.8994    3.1261 C   0  0  0  0  0  0  0  0  0  0  0  0
    0.6106    1.6683    3.0611 H   0  0  0  0  0  0  0  0  0  0  0  0
   -1.0527    1.3427    3.5895 H   0  0  0  0  0  0  0  0  0  0  0  0
    0.1931    0.0886    3.7686 H   0  0  0  0  0  0  0  0  0  0  0  0
  1  2  1  0  0  0  0
  2  3  1  0  0  0  0
  2  4  1  0  0  0  0
  2  5  1  0  0  0  0
  5  6  2  0  0  0  0
  5  7  1  0  0  0  0
  7  8  1  0  0  0  0
  7  9  1  0  0  0  0
  9 10  1  0  0  0  0
  9 11  1  0  0  0  0
  9 22  1  0  0  0  0
 11 12  1  0  0  0  0
 11 13  1  0  0  0  0
 11 14  1  0  0  0  0
 14 15  1  0  0  0  0
 14 20  2  0  0  0  0
 15 16  1  0  0  0  0
 15 17  1  0  0  0  0
 17 18  1  0  0  0  0
 17 19  2  0  0  0  0
 19 20  1  0  0  0  0
 20 21  1  0  0  0  0
 22 23  2  0  0  0  0
 22 24  1  0  0  0  0
 24 25  1  0  0  0  0
 24 26  1  0  0  0  0
 26 27  1  0  0  0  0
 26 28  1  0  0  0  0
 26 29  1  0  0  0  0
M  END
$$$$

  -OEChem-03222214043D

 29 29  0     1  0  0  0  0  0999 V2000
   -2.9251   -4.1961    0.7180 H   0  0  0  0  0  0  0  0  0  0  0  0
   -2.9017   -3.2891    0.1073 C   0  0  0  0  0  0  0  0  0  0  0  0
   -3.7219   -2.6366    0.4161 H   0  0  0  0  0  0  0  0  0  0  0  0
   -3.0388   -3.5677   -0.9402 H   0  0  0  0  0  0  0  0  0  0  0  0
   -1.5751   -2.5756    0.2855 C   0  0  0  0  0  0  0  0  0  0  0  0
   -0.7434   -3.0254    1.0523 O   0  0  0  0  0  0  0  0  0  0  0  0
   -1.3178   -1.4231   -0.4312 N   0  0  0  0  0  0  0  0  0  0  0  0
   -1.9976   -1.1730   -1.1414 H   0  0  0  0  0  0  0  0  0  0  0  0
   -0.0240   -0.7130   -0.4269 C   0  0  1  0  0  0  0  0  0  0  0  0
    0.7479   -1.4148   -0.7612 H   0  0  0  0  0  0  0  0  0  0  0  0
   -0.0031    0.5071   -1.3756 C   0  0  0  0  0  0  0  0  0  0  0  0
    0.9003    1.0932   -1.1732 H   0  0  0  0  0  0  0  0  0  0  0  0
    0.0874    0.1365   -2.4015 H   0  0  0  0  0  0  0  0  0  0  0  0
   -1.2092    1.4262   -1.3267 C   0  0  0  0  0  0  0  0  0  0  0  0
   -1.1271    2.8017   -1.2932 N   0  0  0  0  0  0  0  0  0  0  0  0
   -0.2698    3.3510   -1.2626 H   0  0  0  0  0  0  0  0  0  0  0  0
   -2.4044    3.3271   -1.2675 C   0  0  0  0  0  0  0  0  0  0  0  0
   -2.6450    4.3857   -1.2263 H   0  0  0  0  0  0  0  0  0  0  0  0
   -3.2863    2.3582   -1.2986 N   0  0  0  0  0  0  0  0  0  0  0  0
   -2.5599    1.1766   -1.3488 C   0  0  0  0  0  0  0  0  0  0  0  0
   -3.0199    0.1964   -1.4079 H   0  0  0  0  0  0  0  0  0  0  0  0
    0.4055   -0.2218    0.9743 C   0  0  0  0  0  0  0  0  0  0  0  0
    1.5961   -0.1703    1.2563 O   0  0  0  0  0  0  0  0  0  0  0  0
   -0.5079    0.4025    1.8052 N   0  0  0  0  0  0  0  0  0  0  0  0
   -1.4838    0.3536    1.5303 H   0  0  0  0  0  0  0  0  0  0  0  0
   -0.1660    0.9315    3.1187 C   0  0  0  0  0  0  0  0  0  0  0  0
    0.6050    1.7042    3.0321 H   0  0  0  0  0  0  0  0  0  0  0  0
   -1.0485    1.3755    3.5891 H   0  0  0  0  0  0  0  0  0  0  0  0
    0.2075    0.1314    3.7664 H   0  0  0  0  0  0  0  0  0  0  0  0
  1  2  1  0  0  0  0
  2  3  1  0  0  0  0
  2  4  1  0  0  0  0
  2  5  1  0  0  0  0
  5  6  2  0  0  0  0
  5  7  1  0  0  0  0
  7  8  1  0  0  0  0
  7  9  1  0  0  0  0
  9 10  1  0  0  0  0
  9 11  1  0  0  0  0
  9 22  1  0  0  0  0
 11 12  1  0  0  0  0
 11 13  1  0  0  0  0
 11 14  1  0  0  0  0
 14 15  1  0  0  0  0
 14 20  2  0  0  0  0
 15 16  1  0  0  0  0
 15 17  1  0  0  0  0
 17 18  1  0  0  0  0
 17 19  2  0  0  0  0
 19 20  1  0  0  0  0
 20 21  1  0  0  0  0
 22 23  2  0  0  0  0
 22 24  1  0  0  0  0
 24 25  1  0  0  0  0
 24 26  1  0  0  0  0
 26 27  1  0  0  0  0
 26 28  1  0  0  0  0
 26 29  1  0  0  0  0
M  END
$$$$

  -OEChem-03222214043D

 29 29  0     1  0  0  0  0  0999 V2000
   -2.8734   -4.2579    0.6875 H   0  0  0  0  0  0  0  0  0  0  0  0
   -2.8711   -3.3395    0.0933 C   0  0  0  0  0  0  0  0  0  0  0  0
   -3.7039   -2.7099    0.4154 H   0  0  0  0  0  0  0  0  0  0  0  0
   -3.0062   -3.6024   -0.9585 H   0  0  0  0  0  0  0  0  0  0  0  0
   -1.5595   -2.6006    0.2807 C   0  0  0  0  0  0  0  0  0  0  0  0
   -0.7220   -3.0370    1.0488 O   0  0  0  0  0  0  0  0  0  0  0  0
   -1.3221   -1.4384   -0.4270 N   0  0  0  0  0  0  0  0  0  0  0  0
   -2.0029   -1.1978   -1.1411 H   0  0  0  0  0  0  0  0  0  0  0  0
   -0.0389   -0.7099   -0.4225 C   0  0  1  0  0  0  0  0  0  0  0  0
    0.7402   -1.4006   -0.7634 H   0  0  0  0  0  0  0  0  0  0  0  0
   -0.0408    0.5083   -1.3743 C   0  0  0  0  0  0  0  0  0  0  0  0
    0.8545    1.1049   -1.1646 H   0  0  0  0  0  0  0  0  0  0  0  0
    0.0643    0.1350   -2.3977 H   0  0  0  0  0  0  0  0  0  0  0  0
   -1.2494    1.4293   -1.3497 C   0  0  0  0  0  0  0  0  0  0  0  0
   -1.1725    2.7763   -1.6355 N   0  0  0  0  0  0  0  0  0  0  0  0
   -0.3313    3.2856   -1.9006 H   0  0  0  0  0  0  0  0  0  0  0  0
   -2.4209    3.3450   -1.4762 C   0  0  0  0  0  0  0  0  0  0  0  0
   -2.6567    4.3933   -1.6371 H   0  0  0  0  0  0  0  0  0  0  0  0
   -3.2816    2.4320   -1.1003 N   0  0  0  0  0  0  0  0  0  0  0  0
   -2.5687    1.2447   -1.0074 C   0  0  0  0  0  0  0  0  0  0  0  0
   -3.0215    0.3109   -0.6951 H   0  0  0  0  0  0  0  0  0  0  0  0
    0.3967   -0.2215    0.9780 C   0  0  0  0  0  0  0  0  0  0  0  0
    1.5897   -0.1568    1.2470 O   0  0  0  0  0  0  0  0  0  0  0  0
   -0.5154    0.3854    1.8233 N   0  0  0  0  0  0  0  0  0  0  0  0
   -1.4953    0.3118    1.5695 H   0  0  0  0  0  0  0  0  0  0  0  0
   -0.1618    0.9156    3.1334 C   0  0  0  0  0  0  0  0  0  0  0  0
    0.6050    1.6917    3.0393 H   0  0  0  0  0  0  0  0  0  0  0  0
   -1.0410    1.3563    3.6125 H   0  0  0  0  0  0  0  0  0  0  0  0
    0.2215    0.1170    3.7773 H   0  0  0  0  0  0  0  0  0  0  0  0
  1  2  1  0  0  0  0
  2  3  1  0  0  0  0
  2  4  1  0  0  0  0
  2  5  1  0  0  0  0
  5  6  2  0  0  0  0
  5  7  1  0  0  0  0
  7  8  1  0  0  0  0
  7  9  1  0  0  0  0
  9 10  1  0  0  0  0
  9 11  1  0  0  0  0
  9 22  1  0  0  0  0
 11 12  1  0  0  0  0
 11 13  1  0  0  0  0
 11 14  1  0  0  0  0
 14 15  1  0  0  0  0
 14 20  2  0  0  0  0
 15 16  1  0  0  0  0
 15 17  1  0  0  0  0
 17 18  1  0  0  0  0
 17 19  2  0  0  0  0
 19 20  1  0  0  0  0
 20 21  1  0  0  0  0
 22 23  2  0  0  0  0
 22 24  1  0  0  0  0
 24 25  1  0  0  0  0
 24 26  1  0  0  0  0
 26 27  1  0  0  0  0
 26 28  1  0  0  0  0
 26 29  1  0  0  0  0
M  END
$$$$

  -OEChem-03222214043D

 29 29  0     1  0  0  0  0  0999 V2000
   -2.8780   -4.2547    0.6661 H   0  0  0  0  0  0  0  0  0  0  0  0
   -2.8774   -3.3267    0.0870 C   0  0  0  0  0  0  0  0  0  0  0  0
   -3.6985   -2.6948    0.4339 H   0  0  0  0  0  0  0  0  0  0  0  0
   -3.0331   -3.5704   -0.9666 H   0  0  0  0  0  0  0  0  0  0  0  0
   -1.5562   -2.6026    0.2641 C   0  0  0  0  0  0  0  0  0  0  0  0
   -0.7110   -3.0558    1.0138 O   0  0  0  0  0  0  0  0  0  0  0  0
   -1.3212   -1.4294   -0.4251 N   0  0  0  0  0  0  0  0  0  0  0  0
   -2.0188   -1.1563   -1.1115 H   0  0  0  0  0  0  0  0  0  0  0  0
   -0.0398   -0.6976   -0.4117 C   0  0  1  0  0  0  0  0  0  0  0  0
    0.7391   -1.3852   -0.7597 H   0  0  0  0  0  0  0  0  0  0  0  0
   -0.0537    0.5147   -1.3694 C   0  0  0  0  0  0  0  0  0  0  0  0
    0.8350    1.1233   -1.1666 H   0  0  0  0  0  0  0  0  0  0  0  0
    0.0517    0.1320   -2.3892 H   0  0  0  0  0  0  0  0  0  0  0  0
   -1.2720    1.4223   -1.3519 C   0  0  0  0  0  0  0  0  0  0  0  0
   -1.2878    2.6775   -1.9230 N   0  0  0  0  0  0  0  0  0  0  0  0
   -0.5208    3.1147   -2.4306 H   0  0  0  0  0  0  0  0  0  0  0  0
   -2.5113    3.2704   -1.6778 C   0  0  0  0  0  0  0  0  0  0  0  0
   -2.8086    4.2580   -2.0191 H   0  0  0  0  0  0  0  0  0  0  0  0
   -3.2637    2.4638   -0.9712 N   0  0  0  0  0  0  0  0  0  0  0  0
   -2.5015    1.3266   -0.7428 C   0  0  0  0  0  0  0  0  0  0  0  0
   -2.8495    0.4932   -0.1430 H   0  0  0  0  0  0  0  0  0  0  0  0
    0.4062   -0.2250    0.9907 C   0  0  0  0  0  0  0  0  0  0  0  0
    1.6017   -0.1579    1.2469 O   0  0  0  0  0  0  0  0  0  0  0  0
   -0.4975    0.3702    1.8530 N   0  0  0  0  0  0  0  0  0  0  0  0
   -1.4809    0.2701    1.6248 H   0  0  0  0  0  0  0  0  0  0  0  0
   -0.1287    0.8844    3.1654 C   0  0  0  0  0  0  0  0  0  0  0  0
    0.6417    1.6568    3.0717 H   0  0  0  0  0  0  0  0  0  0  0  0
   -1.0009    1.3259    3.6567 H   0  0  0  0  0  0  0  0  0  0  0  0
    0.2559    0.0775    3.7980 H   0  0  0  0  0  0  0  0  0  0  0  0
  1  2  1  0  0  0  0
  2  3  1  0  0  0  0
  2  4  1  0  0  0  0
  2  5  1  0  0  0  0
  5  6  2  0  0  0  0
  5  7  1  0  0  0  0
  7  8  1  0  0  0  0
  7  9  1  0  0  0  0
  9 10  1  0  0  0  0
  9 11  1  0  0  0  0
  9 22  1  0  0  0  0
 11 12  1  0  0  0  0
 11 13  1  0  0  0  0
 11 14  1  0  0  0  0
 14 15  1  0  0  0  0
 14 20  2  0  0  0  0
 15 16  1  0  0  0  0
 15 17  1  0  0  0  0
 17 18  1  0  0  0  0
 17 19  2  0  0  0  0
 19 20  1  0  0  0  0
 20 21  1  0  0  0  0
 22 23  2  0  0  0  0
 22 24  1  0  0  0  0
 24 25  1  0  0  0  0
 24 26  1  0  0  0  0
 26 27  1  0  0  0  0
 26 28  1  0  0  0  0
 26 29  1  0  0  0  0
M  END
$$$$

  -OEChem-03222214043D

 29 29  0     1  0  0  0  0  0999 V2000
   -2.9626   -4.1740    0.5596 H   0  0  0  0  0  0  0  0  0  0  0  0
   -2.9446   -3.2209    0.0235 C   0  0  0  0  0  0  0  0  0  0  0  0
   -3.7386   -2.5814    0.4164 H   0  0  0  0  0  0  0  0  0  0  0  0
   -3.1285   -3.4108   -1.0365 H   0  0  0  0  0  0  0  0  0  0  0  0
   -1.5976   -2.5473    0.2054 C   0  0  0  0  0  0  0  0  0  0  0  0
   -0.7437   -3.0720    0.8968 O   0  0  0  0  0  0  0  0  0  0  0  0
   -1.3492   -1.3312   -0.3988 N   0  0  0  0  0  0  0  0  0  0  0  0
   -2.0791   -0.9520   -0.9961 H   0  0  0  0  0  0  0  0  0  0  0  0
   -0.0591   -0.6190   -0.3331 C   0  0  1  0  0  0  0  0  0  0  0  0
    0.6922   -1.3287   -0.6984 H   0  0  0  0  0  0  0  0  0  0  0  0
   -0.0314    0.5631   -1.3208 C   0  0  0  0  0  0  0  0  0  0  0  0
    0.9558    1.0341   -1.2589 H   0  0  0  0  0  0  0  0  0  0  0  0
   -0.1351    0.1641   -2.3347 H   0  0  0  0  0  0  0  0  0  0  0  0
   -1.0813    1.6380   -1.1274 C   0  0  0  0  0  0  0  0  0  0  0  0
   -1.1994    2.7617   -1.9172 N   0  0  0  0  0  0  0  0  0  0  0  0
   -0.5735    3.0336   -2.6730 H   0  0  0  0  0  0  0  0  0  0  0  0
   -2.2886    3.4962   -1.4889 C   0  0  0  0  0  0  0  0  0  0  0  0
   -2.6161    4.4383   -1.9198 H   0  0  0  0  0  0  0  0  0  0  0  0
   -2.8736    2.8867   -0.4873 N   0  0  0  0  0  0  0  0  0  0  0  0
   -2.1340    1.7355   -0.2513 C   0  0  0  0  0  0  0  0  0  0  0  0
   -2.3874    1.0052    0.5089 H   0  0  0  0  0  0  0  0  0  0  0  0
    0.4467   -0.2258    1.0750 C   0  0  0  0  0  0  0  0  0  0  0  0
    1.6541   -0.1856    1.2746 O   0  0  0  0  0  0  0  0  0  0  0  0
   -0.3961    0.3388    2.0156 N   0  0  0  0  0  0  0  0  0  0  0  0
   -1.3916    0.2215    1.8618 H   0  0  0  0  0  0  0  0  0  0  0  0
    0.0584    0.7809    3.3279 C   0  0  0  0  0  0  0  0  0  0  0  0
    0.8365    1.5448    3.2275 H   0  0  0  0  0  0  0  0  0  0  0  0
   -0.7749    1.2117    3.8911 H   0  0  0  0  0  0  0  0  0  0  0  0
    0.4634   -0.0630    3.8961 H   0  0  0  0  0  0  0  0  0  0  0  0
  1  2  1  0  0  0  0
  2  3  1  0  0  0  0
  2  4  1  0  0  0  0
  2  5  1  0  0  0  0
  5  6  2  0  0  0  0
  5  7  1  0  0  0  0
  7  8  1  0  0  0  0
  7  9  1  0  0  0  0
  9 10  1  0  0  0  0
  9 11  1  0  0  0  0
  9 22  1  0  0  0  0
 11 12  1  0  0  0  0
 11 13  1  0  0  0  0
 11 14  1  0  0  0  0
 14 15  1  0  0  0  0
 14 20  2  0  0  0  0
 15 16  1  0  0  0  0
 15 17  1  0  0  0  0
 17 18  1  0  0  0  0
 17 19  2  0  0  0  0
 19 20  1  0  0  0  0
 20 21  1  0  0  0  0
 22 23  2  0  0  0  0
 22 24  1  0  0  0  0
 24 25  1  0  0  0  0
 24 26  1  0  0  0  0
 26 27  1  0  0  0  0
 26 28  1  0  0  0  0
 26 29  1  0  0  0  0
M  END
$$$$

  -OEChem-03222214043D

 29 29  0     1  0  0  0  0  0999 V2000
   -2.9967   -4.1625    0.4946 H   0  0  0  0  0  0  0  0  0  0  0  0
   -2.9739   -3.1924   -0.0103 C   0  0  0  0  0  0  0  0  0  0  0  0
   -3.7626   -2.5606    0.4051 H   0  0  0  0  0  0  0  0  0  0  0  0
   -3.1616   -3.3465   -1.0756 H   0  0  0  0  0  0  0  0  0  0  0  0
   -1.6220   -2.5335    0.1879 C   0  0  0  0  0  0  0  0  0  0  0  0
   -0.7646   -3.0879    0.8512 O   0  0  0  0  0  0  0  0  0  0  0  0
   -1.3717   -1.2982   -0.3740 N   0  0  0  0  0  0  0  0  0  0  0  0
   -2.1126   -0.8828   -0.9322 H   0  0  0  0  0  0  0  0  0  0  0  0
   -0.0794   -0.5936   -0.2968 C   0  0  1  0  0  0  0  0  0  0  0  0
    0.6591   -1.3095   -0.6761 H   0  0  0  0  0  0  0  0  0  0  0  0
   -0.0380    0.5823   -1.2910 C   0  0  0  0  0  0  0  0  0  0  0  0
    0.9513    1.0494   -1.2310 H   0  0  0  0  0  0  0  0  0  0  0  0
   -0.1384    0.1697   -2.2998 H   0  0  0  0  0  0  0  0  0  0  0  0
   -1.0846    1.6648   -1.1221 C   0  0  0  0  0  0  0  0  0  0  0  0
   -1.3721    2.6129   -2.0813 N   0  0  0  0  0  0  0  0  0  0  0  0
   -0.8723    2.7513   -2.9575 H   0  0  0  0  0  0  0  0  0  0  0  0
   -2.4296    3.3872   -1.6447 C   0  0  0  0  0  0  0  0  0  0  0  0
   -2.8597    4.2243   -2.1875 H   0  0  0  0  0  0  0  0  0  0  0  0
   -2.8447    2.9584   -0.4789 N   0  0  0  0  0  0  0  0  0  0  0  0
   -2.0231    1.8897   -0.1449 C   0  0  0  0  0  0  0  0  0  0  0  0
   -2.1551    1.2982    0.7519 H   0  0  0  0  0  0  0  0  0  0  0  0
    0.4599   -0.2429    1.1105 C   0  0  0  0  0  0  0  0  0  0  0  0
    1.6724   -0.2038    1.2765 O   0  0  0  0  0  0  0  0  0  0  0  0
   -0.3522    0.2972    2.0911 N   0  0  0  0  0  0  0  0  0  0  0  0
   -1.3514    0.1709    1.9709 H   0  0  0  0  0  0  0  0  0  0  0  0
    0.1450    0.7212    3.3944 C   0  0  0  0  0  0  0  0  0  0  0  0
    0.8954    1.5107    3.2803 H   0  0  0  0  0  0  0  0  0  0  0  0
   -0.6760    1.1130    4.0025 H   0  0  0  0  0  0  0  0  0  0  0  0
    0.5987   -0.1226    3.9250 H   0  0  0  0  0  0  0  0  0  0  0  0
  1  2  1  0  0  0  0
  2  3  1  0  0  0  0
  2  4  1  0  0  0  0
  2  5  1  0  0  0  0
  5  6  2  0  0  0  0
  5  7  1  0  0  0  0
  7  8  1  0  0  0  0
  7  9  1  0  0  0  0
  9 10  1  0  0  0  0
  9 11  1  0  0  0  0
  9 22  1  0  0  0  0
 11 12  1  0  0  0  0
 11 13  1  0  0  0  0
 11 14  1  0  0  0  0
 14 15  1  0  0  0  0
 14 20  2  0  0  0  0
 15 16  1  0  0  0  0
 15 17  1  0  0  0  0
 17 18  1  0  0  0  0
 17 19  2  0  0  0  0
 19 20  1  0  0  0  0
 20 21  1  0  0  0  0
 22 23  2  0  0  0  0
 22 24  1  0  0  0  0
 24 25  1  0  0  0  0
 24 26  1  0  0  0  0
 26 27  1  0  0  0  0
 26 28  1  0  0  0  0
 26 29  1  0  0  0  0
M  END
$$$$

  -OEChem-03222214043D

 29 29  0     1  0  0  0  0  0999 V2000
   -2.9728   -4.1456    0.5510 H   0  0  0  0  0  0  0  0  0  0  0  0
   -2.9630   -3.1773    0.0424 C   0  0  0  0  0  0  0  0  0  0  0  0
   -3.7259   -2.5370    0.4915 H   0  0  0  0  0  0  0  0  0  0  0  0
   -3.1999   -3.3322   -1.0129 H   0  0  0  0  0  0  0  0  0  0  0  0
   -1.5972   -2.5316    0.1769 C   0  0  0  0  0  0  0  0  0  0  0  0
   -0.7054   -3.1122    0.7687 O   0  0  0  0  0  0  0  0  0  0  0  0
   -1.3725   -1.2795   -0.3587 N   0  0  0  0  0  0  0  0  0  0  0  0
   -2.1517   -0.8256   -0.8281 H   0  0  0  0  0  0  0  0  0  0  0  0
   -0.0872   -0.5623   -0.2918 C   0  0  1  0  0  0  0  0  0  0  0  0
    0.6493   -1.2730   -0.6847 H   0  0  0  0  0  0  0  0  0  0  0  0
   -0.0577    0.6048   -1.2970 C   0  0  0  0  0  0  0  0  0  0  0  0
    0.9300    1.0771   -1.2518 H   0  0  0  0  0  0  0  0  0  0  0  0
   -0.1605    0.1742   -2.2980 H   0  0  0  0  0  0  0  0  0  0  0  0
   -1.1085    1.6862   -1.1469 C   0  0  0  0  0  0  0  0  0  0  0  0
   -1.6010    2.4159   -2.2091 N   0  0  0  0  0  0  0  0  0  0  0  0
   -1.2770    2.3660   -3.1732 H   0  0  0  0  0  0  0  0  0  0  0  0
   -2.5858    3.2692   -1.7517 C   0  0  0  0  0  0  0  0  0  0  0  0
   -3.1432    3.9700   -2.3667 H   0  0  0  0  0  0  0  0  0  0  0  0
   -2.7547    3.1027   -0.4643 N   0  0  0  0  0  0  0  0  0  0  0  0
   -1.8418    2.1306   -0.0739 C   0  0  0  0  0  0  0  0  0  0  0  0
   -1.7611    1.7770    0.9441 H   0  0  0  0  0  0  0  0  0  0  0  0
    0.4710   -0.2450    1.1146 C   0  0  0  0  0  0  0  0  0  0  0  0
    1.6850   -0.1959    1.2649 O   0  0  0  0  0  0  0  0  0  0  0  0
   -0.3341    0.2566    2.1204 N   0  0  0  0  0  0  0  0  0  0  0  0
   -1.3341    0.1285    2.0045 H   0  0  0  0  0  0  0  0  0  0  0  0
    0.1732    0.6343    3.4338 C   0  0  0  0  0  0  0  0  0  0  0  0
    0.9354    1.4151    3.3410 H   0  0  0  0  0  0  0  0  0  0  0  0
   -0.6395    1.0207    4.0561 H   0  0  0  0  0  0  0  0  0  0  0  0
    0.6151   -0.2323    3.9365 H   0  0  0  0  0  0  0  0  0  0  0  0
  1  2  1  0  0  0  0
  2  3  1  0  0  0  0
  2  4  1  0  0  0  0
  2  5  1  0  0  0  0
  5  6  2  0  0  0  0
  5  7  1  0  0  0  0
  7  8  1  0  0  0  0
  7  9  1  0  0  0  0
  9 10  1  0  0  0  0
  9 11  1  0  0  0  0
  9 22  1  0  0  0  0
 11 12  1  0  0  0  0
 11 13  1  0  0  0  0
 11 14  1  0  0  0  0
 14 15  1  0  0  0  0
 14 20  2  0  0  0  0
 15 16  1  0  0  0  0
 15 17  1  0  0  0  0
 17 18  1  0  0  0  0
 17 19  2  0  0  0  0
 19 20  1  0  0  0  0
 20 21  1  0  0  0  0
 22 23  2  0  0  0  0
 22 24  1  0  0  0  0
 24 25  1  0  0  0  0
 24 26  1  0  0  0  0
 26 27  1  0  0  0  0
 26 28  1  0  0  0  0
 26 29  1  0  0  0  0
M  END
$$$$

  -OEChem-03222214043D

 29 29  0     1  0  0  0  0  0999 V2000
   -2.9806   -4.1208    0.5966 H   0  0  0  0  0  0  0  0  0  0  0  0
   -2.9624   -3.1587    0.0768 C   0  0  0  0  0  0  0  0  0  0  0  0
   -3.6976   -2.4957    0.5393 H   0  0  0  0  0  0  0  0  0  0  0  0
   -3.2321   -3.3194   -0.9698 H   0  0  0  0  0  0  0  0  0  0  0  0
   -1.5783   -2.5445    0.1659 C   0  0  0  0  0  0  0  0  0  0  0  0
   -0.6826   -3.1428    0.7337 O   0  0  0  0  0  0  0  0  0  0  0  0
   -1.3407   -1.3036   -0.3899 N   0  0  0  0  0  0  0  0  0  0  0  0
   -2.1303   -0.8226   -0.8122 H   0  0  0  0  0  0  0  0  0  0  0  0
   -0.0523   -0.5914   -0.3234 C   0  0  1  0  0  0  0  0  0  0  0  0
    0.6949   -1.2962   -0.7064 H   0  0  0  0  0  0  0  0  0  0  0  0
   -0.0434    0.5779   -1.3277 C   0  0  0  0  0  0  0  0  0  0  0  0
    0.9379    1.0634   -1.2851 H   0  0  0  0  0  0  0  0  0  0  0  0
   -0.1488    0.1588   -2.3333 H   0  0  0  0  0  0  0  0  0  0  0  0
   -1.1068    1.6380   -1.1374 C   0  0  0  0  0  0  0  0  0  0  0  0
   -1.8664    2.1729   -2.1570 N   0  0  0  0  0  0  0  0  0  0  0  0
   -1.8160    1.9192   -3.1418 H   0  0  0  0  0  0  0  0  0  0  0  0
   -2.6850    3.1561   -1.6364 C   0  0  0  0  0  0  0  0  0  0  0  0
   -3.4020    3.7414   -2.2051 H   0  0  0  0  0  0  0  0  0  0  0  0
   -2.4701    3.2789   -0.3508 N   0  0  0  0  0  0  0  0  0  0  0  0
   -1.4666    2.3710   -0.0335 C   0  0  0  0  0  0  0  0  0  0  0  0
   -1.0210    2.2947    0.9502 H   0  0  0  0  0  0  0  0  0  0  0  0
    0.4591   -0.2691    1.0983 C   0  0  0  0  0  0  0  0  0  0  0  0
    1.6658   -0.2241    1.2981 O   0  0  0  0  0  0  0  0  0  0  0  0
   -0.3893    0.2412    2.0639 N   0  0  0  0  0  0  0  0  0  0  0  0
   -1.3851    0.1526    1.8884 H   0  0  0  0  0  0  0  0  0  0  0  0
    0.0574    0.6300    3.3956 C   0  0  0  0  0  0  0  0  0  0  0  0
    0.8129    1.4200    3.3315 H   0  0  0  0  0  0  0  0  0  0  0  0
   -0.7859    1.0075    3.9815 H   0  0  0  0  0  0  0  0  0  0  0  0
    0.4883   -0.2294    3.9199 H   0  0  0  0  0  0  0  0  0  0  0  0
  1  2  1  0  0  0  0
  2  3  1  0  0  0  0
  2  4  1  0  0  0  0
  2  5  1  0  0  0  0
  5  6  2  0  0  0  0
  5  7  1  0  0  0  0
  7  8  1  0  0  0  0
  7  9  1  0  0  0  0
  9 10  1  0  0  0  0
  9 11  1  0  0  0  0
  9 22  1  0  0  0  0
 11 12  1  0  0  0  0
 11 13  1  0  0  0  0
 11 14  1  0  0  0  0
 14 15  1  0  0  0  0
 14 20  2  0  0  0  0
 15 16  1  0  0  0  0
 15 17  1  0  0  0  0
 17 18  1  0  0  0  0
 17 19  2  0  0  0  0
 19 20  1  0  0  0  0
 20 21  1  0  0  0  0
 22 23  2  0  0  0  0
 22 24  1  0  0  0  0
 24 25  1  0  0  0  0
 24 26  1  0  0  0  0
 26 27  1  0  0  0  0
 26 28  1  0  0  0  0
 26 29  1  0  0  0  0
M  END
$$$$

  -OEChem-03222214043D

 29 29  0     1  0  0  0  0  0999 V2000
   -3.0045   -4.0828    0.6403 H   0  0  0  0  0  0  0  0  0  0  0  0
   -2.9706   -3.1334    0.0979 C   0  0  0  0  0  0  0  0  0  0  0  0
   -3.6791   -2.4407    0.5581 H   0  0  0  0  0  0  0  0  0  0  0  0
   -3.2637   -3.3109   -0.9395 H   0  0  0  0  0  0  0  0  0  0  0  0
   -1.5692   -2.5549    0.1487 C   0  0  0  0  0  0  0  0  0  0  0  0
   -0.6791   -3.1674    0.7101 O   0  0  0  0  0  0  0  0  0  0  0  0
   -1.3078   -1.3336   -0.4391 N   0  0  0  0  0  0  0  0  0  0  0  0
   -2.0969   -0.8283   -0.8316 H   0  0  0  0  0  0  0  0  0  0  0  0
   -0.0128   -0.6345   -0.3585 C   0  0  1  0  0  0  0  0  0  0  0  0
    0.7440   -1.3373   -0.7255 H   0  0  0  0  0  0  0  0  0  0  0  0
   -0.0000    0.5500   -1.3424 C   0  0  0  0  0  0  0  0  0  0  0  0
    0.9788    1.0386   -1.2813 H   0  0  0  0  0  0  0  0  0  0  0  0
   -0.1033    0.1649   -2.3617 H   0  0  0  0  0  0  0  0  0  0  0  0
   -1.0715    1.5864   -1.0943 C   0  0  0  0  0  0  0  0  0  0  0  0
   -2.0620    1.9572   -1.9792 N   0  0  0  0  0  0  0  0  0  0  0  0
   -2.2129    1.5754   -2.9110 H   0  0  0  0  0  0  0  0  0  0  0  0
   -2.7771    3.0038   -1.4281 C   0  0  0  0  0  0  0  0  0  0  0  0
   -3.6262    3.4962   -1.8939 H   0  0  0  0  0  0  0  0  0  0  0  0
   -2.2805    3.3171   -0.2572 N   0  0  0  0  0  0  0  0  0  0  0  0
   -1.1942    2.4736   -0.0544 C   0  0  0  0  0  0  0  0  0  0  0  0
   -0.5265    2.5323    0.7993 H   0  0  0  0  0  0  0  0  0  0  0  0
    0.4511   -0.2820    1.0723 C   0  0  0  0  0  0  0  0  0  0  0  0
    1.6488   -0.2527    1.3212 O   0  0  0  0  0  0  0  0  0  0  0  0
   -0.4298    0.2634    1.9896 N   0  0  0  0  0  0  0  0  0  0  0  0
   -1.4164    0.2426    1.7519 H   0  0  0  0  0  0  0  0  0  0  0  0
   -0.0313    0.7154    3.3168 C   0  0  0  0  0  0  0  0  0  0  0  0
    0.7281    1.5011    3.2432 H   0  0  0  0  0  0  0  0  0  0  0  0
   -0.8946    1.1204    3.8533 H   0  0  0  0  0  0  0  0  0  0  0  0
    0.3788   -0.1180    3.8969 H   0  0  0  0  0  0  0  0  0  0  0  0
  1  2  1  0  0  0  0
  2  3  1  0  0  0  0
  2  4  1  0  0  0  0
  2  5  1  0  0  0  0
  5  6  2  0  0  0  0
  5  7  1  0  0  0  0
  7  8  1  0  0  0  0
  7  9  1  0  0  0  0
  9 10  1  0  0  0  0
  9 11  1  0  0  0  0
  9 22  1  0  0  0  0
 11 12  1  0  0  0  0
 11 13  1  0  0  0  0
 11 14  1  0  0  0  0
 14 15  1  0  0  0  0
 14 20  2  0  0  0  0
 15 16  1  0  0  0  0
 15 17  1  0  0  0  0
 17 18  1  0  0  0  0
 17 19  2  0  0  0  0
 19 20  1  0  0  0  0
 20 21  1  0  0  0  0
 22 23  2  0  0  0  0
 22 24  1  0  0  0  0
 24 25  1  0  0  0  0
 24 26  1  0  0  0  0
 26 27  1  0  0  0  0
 26 28  1  0  0  0  0
 26 29  1  0  0  0  0
M  END
$$$$

  -OEChem-03222214043D

 29 29  0     1  0  0  0  0  0999 V2000
   -3.0313   -4.0428    0.6584 H   0  0  0  0  0  0  0  0  0  0  0  0
   -2.9831   -3.0987    0.1081 C   0  0  0  0  0  0  0  0  0  0  0  0
   -3.6677   -2.3857    0.5734 H   0  0  0  0  0  0  0  0  0  0  0  0
   -3.2959   -3.2770   -0.9234 H   0  0  0  0  0  0  0  0  0  0  0  0
   -1.5677   -2.5535    0.1336 C   0  0  0  0  0  0  0  0  0  0  0  0
   -0.6852   -3.1803    0.6911 O   0  0  0  0  0  0  0  0  0  0  0  0
   -1.2863   -1.3467   -0.4747 N   0  0  0  0  0  0  0  0  0  0  0  0
   -2.0735   -0.8195   -0.8397 H   0  0  0  0  0  0  0  0  0  0  0  0
    0.0151   -0.6609   -0.3808 C   0  0  1  0  0  0  0  0  0  0  0  0
    0.7751   -1.3664   -0.7356 H   0  0  0  0  0  0  0  0  0  0  0  0
    0.0412    0.5353   -1.3487 C   0  0  0  0  0  0  0  0  0  0  0  0
    1.0213    1.0198   -1.2739 H   0  0  0  0  0  0  0  0  0  0  0  0
   -0.0621    0.1747   -2.3768 H   0  0  0  0  0  0  0  0  0  0  0  0
   -1.0327    1.5577   -1.0633 C   0  0  0  0  0  0  0  0  0  0  0  0
   -2.1940    1.7615   -1.7782 N   0  0  0  0  0  0  0  0  0  0  0  0
   -2.4763    1.2721   -2.6253 H   0  0  0  0  0  0  0  0  0  0  0  0
   -2.8626    2.8388   -1.2265 C   0  0  0  0  0  0  0  0  0  0  0  0
   -3.8111    3.2344   -1.5788 H   0  0  0  0  0  0  0  0  0  0  0  0
   -2.1838    3.3167   -0.2129 N   0  0  0  0  0  0  0  0  0  0  0  0
   -1.0256    2.5530   -0.1199 C   0  0  0  0  0  0  0  0  0  0  0  0
   -0.2292    2.7226    0.5990 H   0  0  0  0  0  0  0  0  0  0  0  0
    0.4514   -0.2867    1.0534 C   0  0  0  0  0  0  0  0  0  0  0  0
    1.6422   -0.2793    1.3348 O   0  0  0  0  0  0  0  0  0  0  0  0
   -0.4441    0.2871    1.9392 N   0  0  0  0  0  0  0  0  0  0  0  0
   -1.4151    0.3428    1.6483 H   0  0  0  0  0  0  0  0  0  0  0  0
   -0.0679    0.7881    3.2550 C   0  0  0  0  0  0  0  0  0  0  0  0
    0.6792    1.5834    3.1636 H   0  0  0  0  0  0  0  0  0  0  0  0
   -0.9439    1.1949    3.7693 H   0  0  0  0  0  0  0  0  0  0  0  0
    0.3489   -0.0193    3.8661 H   0  0  0  0  0  0  0  0  0  0  0  0
  1  2  1  0  0  0  0
  2  3  1  0  0  0  0
  2  4  1  0  0  0  0
  2  5  1  0  0  0  0
  5  6  2  0  0  0  0
  5  7  1  0  0  0  0
  7  8  1  0  0  0  0
  7  9  1  0  0  0  0
  9 10  1  0  0  0  0
  9 11  1  0  0  0  0
  9 22  1  0  0  0  0
 11 12  1  0  0  0  0
 11 13  1  0  0  0  0
 11 14  1  0  0  0  0
 14 15  1  0  0  0  0
 14 20  2  0  0  0  0
 15 16  1  0  0  0  0
 15 17  1  0  0  0  0
 17 18  1  0  0  0  0
 17 19  2  0  0  0  0
 19 20  1  0  0  0  0
 20 21  1  0  0  0  0
 22 23  2  0  0  0  0
 22 24  1  0  0  0  0
 24 25  1  0  0  0  0
 24 26  1  0  0  0  0
 26 27  1  0  0  0  0
 26 28  1  0  0  0  0
 26 29  1  0  0  0  0
M  END
$$$$

  -OEChem-03222214043D

 29 29  0     1  0  0  0  0  0999 V2000
   -3.0423   -4.0270    0.6657 H   0  0  0  0  0  0  0  0  0  0  0  0
   -2.9900   -3.0807    0.1198 C   0  0  0  0  0  0  0  0  0  0  0  0
   -3.6513   -2.3590    0.6049 H   0  0  0  0  0  0  0  0  0  0  0  0
   -3.3290   -3.2475   -0.9054 H   0  0  0  0  0  0  0  0  0  0  0  0
   -1.5650   -2.5608    0.1161 C   0  0  0  0  0  0  0  0  0  0  0  0
   -0.6828   -3.2038    0.6549 O   0  0  0  0  0  0  0  0  0  0  0  0
   -1.2743   -1.3615   -0.5030 N   0  0  0  0  0  0  0  0  0  0  0  0
   -2.0633   -0.8115   -0.8250 H   0  0  0  0  0  0  0  0  0  0  0  0
    0.0296   -0.6833   -0.3960 C   0  0  1  0  0  0  0  0  0  0  0  0
    0.7922   -1.3890   -0.7446 H   0  0  0  0  0  0  0  0  0  0  0  0
    0.0698    0.5264   -1.3456 C   0  0  0  0  0  0  0  0  0  0  0  0
    1.0528    1.0031   -1.2597 H   0  0  0  0  0  0  0  0  0  0  0  0
   -0.0352    0.1860   -2.3803 H   0  0  0  0  0  0  0  0  0  0  0  0
   -1.0026    1.5442   -1.0397 C   0  0  0  0  0  0  0  0  0  0  0  0
   -2.2821    1.5982   -1.5524 N   0  0  0  0  0  0  0  0  0  0  0  0
   -2.6640    1.0076   -2.2886 H   0  0  0  0  0  0  0  0  0  0  0  0
   -2.9122    2.7121   -1.0282 C   0  0  0  0  0  0  0  0  0  0  0  0
   -3.9275    3.0232   -1.2577 H   0  0  0  0  0  0  0  0  0  0  0  0
   -2.1041    3.3433   -0.2128 N   0  0  0  0  0  0  0  0  0  0  0  0
   -0.9021    2.6444   -0.2277 C   0  0  0  0  0  0  0  0  0  0  0  0
   -0.0143    2.9247    0.3321 H   0  0  0  0  0  0  0  0  0  0  0  0
    0.4464   -0.2977    1.0412 C   0  0  0  0  0  0  0  0  0  0  0  0
    1.6312   -0.3077    1.3469 O   0  0  0  0  0  0  0  0  0  0  0  0
   -0.4606    0.2918    1.9053 N   0  0  0  0  0  0  0  0  0  0  0  0
   -1.4065    0.4269    1.5630 H   0  0  0  0  0  0  0  0  0  0  0  0
   -0.0922    0.8479    3.2010 C   0  0  0  0  0  0  0  0  0  0  0  0
    0.6161    1.6737    3.0767 H   0  0  0  0  0  0  0  0  0  0  0  0
   -0.9801    1.2273    3.7156 H   0  0  0  0  0  0  0  0  0  0  0  0
    0.3691    0.0789    3.8298 H   0  0  0  0  0  0  0  0  0  0  0  0
  1  2  1  0  0  0  0
  2  3  1  0  0  0  0
  2  4  1  0  0  0  0
  2  5  1  0  0  0  0
  5  6  2  0  0  0  0
  5  7  1  0  0  0  0
  7  8  1  0  0  0  0
  7  9  1  0  0  0  0
  9 10  1  0  0  0  0
  9 11  1  0  0  0  0
  9 22  1  0  0  0  0
 11 12  1  0  0  0  0
 11 13  1  0  0  0  0
 11 14  1  0  0  0  0
 14 15  1  0  0  0  0
 14 20  2  0  0  0  0
 15 16  1  0  0  0  0
 15 17  1  0  0  0  0
 17 18  1  0  0  0  0
 17 19  2  0  0  0  0
 19 20  1  0  0  0  0
 20 21  1  0  0  0  0
 22 23  2  0  0  0  0
 22 24  1  0  0  0  0
 24 25  1  0  0  0  0
 24 26  1  0  0  0  0
 26 27  1  0  0  0  0
 26 28  1  0  0  0  0
 26 29  1  0  0  0  0
M  END
$$$$

  -OEChem-03222214043D

 29 29  0     1  0  0  0  0  0999 V2000
   -3.0291   -4.0404    0.6840 H   0  0  0  0  0  0  0  0  0  0  0  0
   -2.9831   -3.0938    0.1378 C   0  0  0  0  0  0  0  0  0  0  0  0
   -3.6349   -2.3710    0.6339 H   0  0  0  0  0  0  0  0  0  0  0  0
   -3.3383   -3.2596   -0.8820 H   0  0  0  0  0  0  0  0  0  0  0  0
   -1.5570   -2.5773    0.1128 C   0  0  0  0  0  0  0  0  0  0  0  0
   -0.6704   -3.2194    0.6452 O   0  0  0  0  0  0  0  0  0  0  0  0
   -1.2709   -1.3826   -0.5182 N   0  0  0  0  0  0  0  0  0  0  0  0
   -2.0629   -0.8350   -0.8322 H   0  0  0  0  0  0  0  0  0  0  0  0
    0.0313   -0.7007   -0.4106 C   0  0  1  0  0  0  0  0  0  0  0  0
    0.7980   -1.4039   -0.7554 H   0  0  0  0  0  0  0  0  0  0  0  0
    0.0827    0.5219   -1.3445 C   0  0  0  0  0  0  0  0  0  0  0  0
    1.0707    0.9882   -1.2558 H   0  0  0  0  0  0  0  0  0  0  0  0
   -0.0262    0.1925   -2.3825 H   0  0  0  0  0  0  0  0  0  0  0  0
   -0.9832    1.5476   -1.0336 C   0  0  0  0  0  0  0  0  0  0  0  0
   -2.3348    1.4961   -1.3102 N   0  0  0  0  0  0  0  0  0  0  0  0
   -2.8018    0.8238   -1.9147 H   0  0  0  0  0  0  0  0  0  0  0  0
   -2.9204    2.6507   -0.8232 C   0  0  0  0  0  0  0  0  0  0  0  0
   -3.9729    2.9047   -0.9131 H   0  0  0  0  0  0  0  0  0  0  0  0
   -2.0192    3.4004   -0.2396 N   0  0  0  0  0  0  0  0  0  0  0  0
   -0.8050    2.7367   -0.3748 C   0  0  0  0  0  0  0  0  0  0  0  0
    0.1458    3.1007    0.0039 H   0  0  0  0  0  0  0  0  0  0  0  0
    0.4353   -0.3030    1.0271 C   0  0  0  0  0  0  0  0  0  0  0  0
    1.6157   -0.3226    1.3492 O   0  0  0  0  0  0  0  0  0  0  0  0
   -0.4825    0.2917    1.8763 N   0  0  0  0  0  0  0  0  0  0  0  0
   -1.4042    0.4784    1.4950 H   0  0  0  0  0  0  0  0  0  0  0  0
   -0.1177    0.8924    3.1529 C   0  0  0  0  0  0  0  0  0  0  0  0
    0.5542    1.7430    2.9976 H   0  0  0  0  0  0  0  0  0  0  0  0
   -1.0125    1.2468    3.6733 H   0  0  0  0  0  0  0  0  0  0  0  0
    0.3839    0.1581    3.7922 H   0  0  0  0  0  0  0  0  0  0  0  0
  1  2  1  0  0  0  0
  2  3  1  0  0  0  0
  2  4  1  0  0  0  0
  2  5  1  0  0  0  0
  5  6  2  0  0  0  0
  5  7  1  0  0  0  0
  7  8  1  0  0  0  0
  7  9  1  0  0  0  0
  9 10  1  0  0  0  0
  9 11  1  0  0  0  0
  9 22  1  0  0  0  0
 11 12  1  0  0  0  0
 11 13  1  0  0  0  0
 11 14  1  0  0  0  0
 14 15  1  0  0  0  0
 14 20  2  0  0  0  0
 15 16  1  0  0  0  0
 15 17  1  0  0  0  0
 17 18  1  0  0  0  0
 17 19  2  0  0  0  0
 19 20  1  0  0  0  0
 20 21  1  0  0  0  0
 22 23  2  0  0  0  0
 22 24  1  0  0  0  0
 24 25  1  0  0  0  0
 24 26  1  0  0  0  0
 26 27  1  0  0  0  0
 26 28  1  0  0  0  0
 26 29  1  0  0  0  0
M  END
$$$$

  -OEChem-03222214043D

 29 29  0     1  0  0  0  0  0999 V2000
   -3.0126   -4.1848    0.5429 H   0  0  0  0  0  0  0  0  0  0  0  0
   -2.9616   -3.2543   -0.0300 C   0  0  0  0  0  0  0  0  0  0  0  0
   -3.7973   -2.6152    0.2641 H   0  0  0  0  0  0  0  0  0  0  0  0
   -3.0470   -3.4928   -1.0926 H   0  0  0  0  0  0  0  0  0  0  0  0
   -1.6467   -2.5480    0.2423 C   0  0  0  0  0  0  0  0  0  0  0  0
   -0.8613   -3.0255    1.0395 O   0  0  0  0  0  0  0  0  0  0  0  0
   -1.3445   -1.3794   -0.4307 N   0  0  0  0  0  0  0  0  0  0  0  0
   -1.9520   -1.1411   -1.2054 H   0  0  0  0  0  0  0  0  0  0  0  0
   -0.0247   -0.7207   -0.3710 C   0  0  1  0  0  0  0  0  0  0  0  0
    0.7214   -1.4413   -0.7244 H   0  0  0  0  0  0  0  0  0  0  0  0
    0.0155    0.4989   -1.3116 C   0  0  0  0  0  0  0  0  0  0  0  0
    1.0192    0.9380   -1.2718 H   0  0  0  0  0  0  0  0  0  0  0  0
   -0.1453    0.1601   -2.3396 H   0  0  0  0  0  0  0  0  0  0  0  0
   -1.0101    1.5650   -0.9858 C   0  0  0  0  0  0  0  0  0  0  0  0
   -2.3889    1.4934   -0.9466 N   0  0  0  0  0  0  0  0  0  0  0  0
   -2.9636    0.6888   -1.1784 H   0  0  0  0  0  0  0  0  0  0  0  0
   -2.8828    2.7326   -0.5829 C   0  0  0  0  0  0  0  0  0  0  0  0
   -3.9351    2.9816   -0.4786 H   0  0  0  0  0  0  0  0  0  0  0  0
   -1.8953    3.5679   -0.3816 N   0  0  0  0  0  0  0  0  0  0  0  0
   -0.7254    2.8588   -0.6295 C   0  0  0  0  0  0  0  0  0  0  0  0
    0.2753    3.2722   -0.5450 H   0  0  0  0  0  0  0  0  0  0  0  0
    0.4305   -0.2823    1.0404 C   0  0  0  0  0  0  0  0  0  0  0  0
    1.6224   -0.3096    1.3191 O   0  0  0  0  0  0  0  0  0  0  0  0
   -0.4459    0.3612    1.8963 N   0  0  0  0  0  0  0  0  0  0  0  0
   -1.3901    0.5103    1.5557 H   0  0  0  0  0  0  0  0  0  0  0  0
   -0.0355    0.9869    3.1462 C   0  0  0  0  0  0  0  0  0  0  0  0
    0.6741    1.7981    2.9534 H   0  0  0  0  0  0  0  0  0  0  0  0
   -0.9052    1.4021    3.6643 H   0  0  0  0  0  0  0  0  0  0  0  0
    0.4391    0.2508    3.8039 H   0  0  0  0  0  0  0  0  0  0  0  0
  1  2  1  0  0  0  0
  2  3  1  0  0  0  0
  2  4  1  0  0  0  0
  2  5  1  0  0  0  0
  5  6  2  0  0  0  0
  5  7  1  0  0  0  0
  7  8  1  0  0  0  0
  7  9  1  0  0  0  0
  9 10  1  0  0  0  0
  9 11  1  0  0  0  0
  9 22  1  0  0  0  0
 11 12  1  0  0  0  0
 11 13  1  0  0  0  0
 11 14  1  0  0  0  0
 14 15  1  0  0  0  0
 14 20  2  0  0  0  0
 15 16  1  0  0  0  0
 15 17  1  0  0  0  0
 17 18  1  0  0  0  0
 17 19  2  0  0  0  0
 19 20  1  0  0  0  0
 20 21  1  0  0  0  0
 22 23  2  0  0  0  0
 22 24  1  0  0  0  0
 24 25  1  0  0  0  0
 24 26  1  0  0  0  0
 26 27  1  0  0  0  0
 26 28  1  0  0  0  0
 26 29  1  0  0  0  0
M  END
$$$$

  -OEChem-03222214043D

 29 29  0     1  0  0  0  0  0999 V2000
   -3.0418   -4.1726    0.5304 H   0  0  0  0  0  0  0  0  0  0  0  0
   -2.9638   -3.2649   -0.0753 C   0  0  0  0  0  0  0  0  0  0  0  0
   -3.8208   -2.6234    0.1424 H   0  0  0  0  0  0  0  0  0  0  0  0
   -2.9835   -3.5463   -1.1310 H   0  0  0  0  0  0  0  0  0  0  0  0
   -1.6730   -2.5350    0.2461 C   0  0  0  0  0  0  0  0  0  0  0  0
   -0.9186   -2.9886    1.0859 O   0  0  0  0  0  0  0  0  0  0  0  0
   -1.3619   -1.3684   -0.4264 N   0  0  0  0  0  0  0  0  0  0  0  0
   -1.9264   -1.1724   -1.2465 H   0  0  0  0  0  0  0  0  0  0  0  0
   -0.0340   -0.7232   -0.3585 C   0  0  1  0  0  0  0  0  0  0  0  0
    0.7061   -1.4480   -0.7152 H   0  0  0  0  0  0  0  0  0  0  0  0
    0.0068    0.4984   -1.2963 C   0  0  0  0  0  0  0  0  0  0  0  0
    1.0126    0.9331   -1.2675 H   0  0  0  0  0  0  0  0  0  0  0  0
   -0.1654    0.1568   -2.3217 H   0  0  0  0  0  0  0  0  0  0  0  0
   -1.0128    1.5719   -0.9709 C   0  0  0  0  0  0  0  0  0  0  0  0
   -2.3544    1.4615   -0.6613 N   0  0  0  0  0  0  0  0  0  0  0  0
   -2.8912    0.6010   -0.5952 H   0  0  0  0  0  0  0  0  0  0  0  0
   -2.8572    2.7264   -0.4197 C   0  0  0  0  0  0  0  0  0  0  0  0
   -3.8862    2.9517   -0.1539 H   0  0  0  0  0  0  0  0  0  0  0  0
   -1.9083    3.6182   -0.5537 N   0  0  0  0  0  0  0  0  0  0  0  0
   -0.7561    2.9169   -0.8920 C   0  0  0  0  0  0  0  0  0  0  0  0
    0.2140    3.3735   -1.0651 H   0  0  0  0  0  0  0  0  0  0  0  0
    0.4329   -0.2860    1.0499 C   0  0  0  0  0  0  0  0  0  0  0  0
    1.6245   -0.3416    1.3259 O   0  0  0  0  0  0  0  0  0  0  0  0
   -0.4269    0.3713    1.9118 N   0  0  0  0  0  0  0  0  0  0  0  0
   -1.3608    0.5610    1.5651 H   0  0  0  0  0  0  0  0  0  0  0  0
    0.0085    0.9979    3.1530 C   0  0  0  0  0  0  0  0  0  0  0  0
    0.7136    1.8094    2.9448 H   0  0  0  0  0  0  0  0  0  0  0  0
   -0.8502    1.4123    3.6895 H   0  0  0  0  0  0  0  0  0  0  0  0
    0.4977    0.2629    3.8009 H   0  0  0  0  0  0  0  0  0  0  0  0
  1  2  1  0  0  0  0
  2  3  1  0  0  0  0
  2  4  1  0  0  0  0
  2  5  1  0  0  0  0
  5  6  2  0  0  0  0
  5  7  1  0  0  0  0
  7  8  1  0  0  0  0
  7  9  1  0  0  0  0
  9 10  1  0  0  0  0
  9 11  1  0  0  0  0
  9 22  1  0  0  0  0
 11 12  1  0  0  0  0
 11 13  1  0  0  0  0
 11 14  1  0  0  0  0
 14 15  1  0  0  0  0
 14 20  2  0  0  0  0
 15 16  1  0  0  0  0
 15 17  1  0  0  0  0
 17 18  1  0  0  0  0
 17 19  2  0  0  0  0
 19 20  1  0  0  0  0
 20 21  1  0  0  0  0
 22 23  2  0  0  0  0
 22 24  1  0  0  0  0
 24 25  1  0  0  0  0
 24 26  1  0  0  0  0
 26 27  1  0  0  0  0
 26 28  1  0  0  0  0
 26 29  1  0  0  0  0
M  END
$$$$

  -OEChem-03222214043D

 29 29  0     1  0  0  0  0  0999 V2000
   -3.0328   -4.1781    0.5082 H   0  0  0  0  0  0  0  0  0  0  0  0
   -2.9641   -3.2597   -0.0820 C   0  0  0  0  0  0  0  0  0  0  0  0
   -3.8247   -2.6283    0.1499 H   0  0  0  0  0  0  0  0  0  0  0  0
   -2.9862   -3.5227   -1.1422 H   0  0  0  0  0  0  0  0  0  0  0  0
   -1.6771   -2.5267    0.2458 C   0  0  0  0  0  0  0  0  0  0  0  0
   -0.9216   -2.9819    1.0833 O   0  0  0  0  0  0  0  0  0  0  0  0
   -1.3709   -1.3507   -0.4122 N   0  0  0  0  0  0  0  0  0  0  0  0
   -1.9482   -1.1325   -1.2187 H   0  0  0  0  0  0  0  0  0  0  0  0
   -0.0440   -0.7037   -0.3421 C   0  0  1  0  0  0  0  0  0  0  0  0
    0.6911   -1.4313   -0.7036 H   0  0  0  0  0  0  0  0  0  0  0  0
   -0.0018    0.5078   -1.2922 C   0  0  0  0  0  0  0  0  0  0  0  0
    1.0031    0.9449   -1.2675 H   0  0  0  0  0  0  0  0  0  0  0  0
   -0.1710    0.1497   -2.3125 H   0  0  0  0  0  0  0  0  0  0  0  0
   -1.0228    1.5873   -0.9939 C   0  0  0  0  0  0  0  0  0  0  0  0
   -2.2819    1.4911   -0.4343 N   0  0  0  0  0  0  0  0  0  0  0  0
   -2.7461    0.6357   -0.1385 H   0  0  0  0  0  0  0  0  0  0  0  0
   -2.8183    2.7614   -0.3325 C   0  0  0  0  0  0  0  0  0  0  0  0
   -3.8014    2.9966    0.0655 H   0  0  0  0  0  0  0  0  0  0  0  0
   -1.9659    3.6446   -0.7878 N   0  0  0  0  0  0  0  0  0  0  0  0
   -0.8426    2.9321   -1.1934 C   0  0  0  0  0  0  0  0  0  0  0  0
    0.0546    3.3817   -1.6087 H   0  0  0  0  0  0  0  0  0  0  0  0
    0.4442   -0.2776    1.0629 C   0  0  0  0  0  0  0  0  0  0  0  0
    1.6381   -0.3507    1.3237 O   0  0  0  0  0  0  0  0  0  0  0  0
   -0.3955    0.3725    1.9499 N   0  0  0  0  0  0  0  0  0  0  0  0
   -1.3377    0.5640    1.6317 H   0  0  0  0  0  0  0  0  0  0  0  0
    0.0603    0.9552    3.2053 C   0  0  0  0  0  0  0  0  0  0  0  0
    0.7890    1.7503    3.0161 H   0  0  0  0  0  0  0  0  0  0  0  0
   -0.7849    1.3821    3.7533 H   0  0  0  0  0  0  0  0  0  0  0  0
    0.5280    0.1901    3.8341 H   0  0  0  0  0  0  0  0  0  0  0  0
  1  2  1  0  0  0  0
  2  3  1  0  0  0  0
  2  4  1  0  0  0  0
  2  5  1  0  0  0  0
  5  6  2  0  0  0  0
  5  7  1  0  0  0  0
  7  8  1  0  0  0  0
  7  9  1  0  0  0  0
  9 10  1  0  0  0  0
  9 11  1  0  0  0  0
  9 22  1  0  0  0  0
 11 12  1  0  0  0  0
 11 13  1  0  0  0  0
 11 14  1  0  0  0  0
 14 15  1  0  0  0  0
 14 20  2  0  0  0  0
 15 16  1  0  0  0  0
 15 17  1  0  0  0  0
 17 18  1  0  0  0  0
 17 19  2  0  0  0  0
 19 20  1  0  0  0  0
 20 21  1  0  0  0  0
 22 23  2  0  0  0  0
 22 24  1  0  0  0  0
 24 25  1  0  0  0  0
 24 26  1  0  0  0  0
 26 27  1  0  0  0  0
 26 28  1  0  0  0  0
 26 29  1  0  0  0  0
M  END
$$$$

  -OEChem-03222214043D

 29 29  0     1  0  0  0  0  0999 V2000
   -2.9898   -4.1901    0.4873 H   0  0  0  0  0  0  0  0  0  0  0  0
   -2.9501   -3.2478   -0.0670 C   0  0  0  0  0  0  0  0  0  0  0  0
   -3.8161   -2.6418    0.2086 H   0  0  0  0  0  0  0  0  0  0  0  0
   -2.9923   -3.4691   -1.1361 H   0  0  0  0  0  0  0  0  0  0  0  0
   -1.6684   -2.5048    0.2600 C   0  0  0  0  0  0  0  0  0  0  0  0
   -0.9068   -2.9502    1.0980 O   0  0  0  0  0  0  0  0  0  0  0  0
   -1.3838   -1.3118   -0.3748 N   0  0  0  0  0  0  0  0  0  0  0  0
   -1.9970   -1.0571   -1.1445 H   0  0  0  0  0  0  0  0  0  0  0  0
   -0.0647   -0.6485   -0.3192 C   0  0  1  0  0  0  0  0  0  0  0  0
    0.6630   -1.3819   -0.6841 H   0  0  0  0  0  0  0  0  0  0  0  0
   -0.0162    0.5376   -1.3007 C   0  0  0  0  0  0  0  0  0  0  0  0
    0.9867    0.9790   -1.2722 H   0  0  0  0  0  0  0  0  0  0  0  0
   -0.1673    0.1504   -2.3133 H   0  0  0  0  0  0  0  0  0  0  0  0
   -1.0374    1.6272   -1.0562 C   0  0  0  0  0  0  0  0  0  0  0  0
   -2.1785    1.6216   -0.2807 N   0  0  0  0  0  0  0  0  0  0  0  0
   -2.5326    0.8381    0.2606 H   0  0  0  0  0  0  0  0  0  0  0  0
   -2.7634    2.8722   -0.3453 C   0  0  0  0  0  0  0  0  0  0  0  0
   -3.6764    3.1640    0.1660 H   0  0  0  0  0  0  0  0  0  0  0  0
   -2.0566    3.6577   -1.1188 N   0  0  0  0  0  0  0  0  0  0  0  0
   -0.9746    2.9020   -1.5571 C   0  0  0  0  0  0  0  0  0  0  0  0
   -0.1868    3.2731   -2.2063 H   0  0  0  0  0  0  0  0  0  0  0  0
    0.4582   -0.2424    1.0793 C   0  0  0  0  0  0  0  0  0  0  0  0
    1.6667   -0.2450    1.2759 O   0  0  0  0  0  0  0  0  0  0  0  0
   -0.3616    0.3774    2.0058 N   0  0  0  0  0  0  0  0  0  0  0  0
   -1.3571    0.2517    1.8771 H   0  0  0  0  0  0  0  0  0  0  0  0
    0.1192    0.8444    3.3003 C   0  0  0  0  0  0  0  0  0  0  0  0
    0.9066    1.5941    3.1686 H   0  0  0  0  0  0  0  0  0  0  0  0
   -0.6989    1.3015    3.8651 H   0  0  0  0  0  0  0  0  0  0  0  0
    0.5213    0.0094    3.8836 H   0  0  0  0  0  0  0  0  0  0  0  0
  1  2  1  0  0  0  0
  2  3  1  0  0  0  0
  2  4  1  0  0  0  0
  2  5  1  0  0  0  0
  5  6  2  0  0  0  0
  5  7  1  0  0  0  0
  7  8  1  0  0  0  0
  7  9  1  0  0  0  0
  9 10  1  0  0  0  0
  9 11  1  0  0  0  0
  9 22  1  0  0  0  0
 11 12  1  0  0  0  0
 11 13  1  0  0  0  0
 11 14  1  0  0  0  0
 14 15  1  0  0  0  0
 14 20  2  0  0  0  0
 15 16  1  0  0  0  0
 15 17  1  0  0  0  0
 17 18  1  0  0  0  0
 17 19  2  0  0  0  0
 19 20  1  0  0  0  0
 20 21  1  0  0  0  0
 22 23  2  0  0  0  0
 22 24  1  0  0  0  0
 24 25  1  0  0  0  0
 24 26  1  0  0  0  0
 26 27  1  0  0  0  0
 26 28  1  0  0  0  0
 26 29  1  0  0  0  0
M  END
$$$$

  -OEChem-03222214043D

 29 29  0     1  0  0  0  0  0999 V2000
   -3.0081   -4.1523    0.4654 H   0  0  0  0  0  0  0  0  0  0  0  0
   -2.9662   -3.1938   -0.0602 C   0  0  0  0  0  0  0  0  0  0  0  0
   -3.8010   -2.5728    0.2730 H   0  0  0  0  0  0  0  0  0  0  0  0
   -3.0624   -3.3785   -1.1329 H   0  0  0  0  0  0  0  0  0  0  0  0
   -1.6508   -2.4971    0.2312 C   0  0  0  0  0  0  0  0  0  0  0  0
   -0.8650   -2.9858    1.0219 O   0  0  0  0  0  0  0  0  0  0  0  0
   -1.3677   -1.2843   -0.3638 N   0  0  0  0  0  0  0  0  0  0  0  0
   -2.0335   -0.9478   -1.0549 H   0  0  0  0  0  0  0  0  0  0  0  0
   -0.0527   -0.6164   -0.3076 C   0  0  1  0  0  0  0  0  0  0  0  0
    0.6725   -1.3465   -0.6841 H   0  0  0  0  0  0  0  0  0  0  0  0
    0.0024    0.5687   -1.2906 C   0  0  0  0  0  0  0  0  0  0  0  0
    1.0043    1.0097   -1.2411 H   0  0  0  0  0  0  0  0  0  0  0  0
   -0.1277    0.1825   -2.3066 H   0  0  0  0  0  0  0  0  0  0  0  0
   -1.0121    1.6669   -1.0662 C   0  0  0  0  0  0  0  0  0  0  0  0
   -1.9975    1.7909   -0.1111 N   0  0  0  0  0  0  0  0  0  0  0  0
   -2.1275    1.1844    0.6932 H   0  0  0  0  0  0  0  0  0  0  0  0
   -2.6846    2.9689   -0.3338 C   0  0  0  0  0  0  0  0  0  0  0  0
   -3.5035    3.3407    0.2753 H   0  0  0  0  0  0  0  0  0  0  0  0
   -2.2029    3.5760   -1.3898 N   0  0  0  0  0  0  0  0  0  0  0  0
   -1.1589    2.7817   -1.8506 C   0  0  0  0  0  0  0  0  0  0  0  0
   -0.5483    3.0113   -2.7188 H   0  0  0  0  0  0  0  0  0  0  0  0
    0.4676   -0.2630    1.1046 C   0  0  0  0  0  0  0  0  0  0  0  0
    1.6773   -0.1979    1.2807 O   0  0  0  0  0  0  0  0  0  0  0  0
   -0.3715    0.3115    2.0451 N   0  0  0  0  0  0  0  0  0  0  0  0
   -1.3266   -0.0250    2.0060 H   0  0  0  0  0  0  0  0  0  0  0  0
    0.1239    0.7668    3.3395 C   0  0  0  0  0  0  0  0  0  0  0  0
    0.8869    1.5414    3.2082 H   0  0  0  0  0  0  0  0  0  0  0  0
   -0.6940    1.1893    3.9306 H   0  0  0  0  0  0  0  0  0  0  0  0
    0.5623   -0.0677    3.8970 H   0  0  0  0  0  0  0  0  0  0  0  0
  1  2  1  0  0  0  0
  2  3  1  0  0  0  0
  2  4  1  0  0  0  0
  2  5  1  0  0  0  0
  5  6  2  0  0  0  0
  5  7  1  0  0  0  0
  7  8  1  0  0  0  0
  7  9  1  0  0  0  0
  9 10  1  0  0  0  0
  9 11  1  0  0  0  0
  9 22  1  0  0  0  0
 11 12  1  0  0  0  0
 11 13  1  0  0  0  0
 11 14  1  0  0  0  0
 14 15  1  0  0  0  0
 14 20  2  0  0  0  0
 15 16  1  0  0  0  0
 15 17  1  0  0  0  0
 17 18  1  0  0  0  0
 17 19  2  0  0  0  0
 19 20  1  0  0  0  0
 20 21  1  0  0  0  0
 22 23  2  0  0  0  0
 22 24  1  0  0  0  0
 24 25  1  0  0  0  0
 24 26  1  0  0  0  0
 26 27  1  0  0  0  0
 26 28  1  0  0  0  0
 26 29  1  0  0  0  0
M  END
$$$$

  -OEChem-03222214043D

 29 29  0     1  0  0  0  0  0999 V2000
   -3.0492   -4.0805    0.4858 H   0  0  0  0  0  0  0  0  0  0  0  0
   -2.9919   -3.1211   -0.0366 C   0  0  0  0  0  0  0  0  0  0  0  0
   -3.7894   -2.4714    0.3313 H   0  0  0  0  0  0  0  0  0  0  0  0
   -3.1360   -3.2950   -1.1057 H   0  0  0  0  0  0  0  0  0  0  0  0
   -1.6407   -2.4758    0.2056 C   0  0  0  0  0  0  0  0  0  0  0  0
   -0.8333   -3.0106    0.9434 O   0  0  0  0  0  0  0  0  0  0  0  0
   -1.3432   -1.2605   -0.3764 N   0  0  0  0  0  0  0  0  0  0  0  0
   -2.0449   -0.8579   -0.9927 H   0  0  0  0  0  0  0  0  0  0  0  0
   -0.0241   -0.6022   -0.3205 C   0  0  1  0  0  0  0  0  0  0  0  0
    0.6981   -1.3341   -0.6999 H   0  0  0  0  0  0  0  0  0  0  0  0
    0.0323    0.5827   -1.3045 C   0  0  0  0  0  0  0  0  0  0  0  0
    1.0343    1.0219   -1.2435 H   0  0  0  0  0  0  0  0  0  0  0  0
   -0.0882    0.2001   -2.3231 H   0  0  0  0  0  0  0  0  0  0  0  0
   -0.9753    1.6870   -1.0789 C   0  0  0  0  0  0  0  0  0  0  0  0
   -1.7633    1.9598    0.0174 N   0  0  0  0  0  0  0  0  0  0  0  0
   -1.6357    1.5660    0.9478 H   0  0  0  0  0  0  0  0  0  0  0  0
   -2.5752    3.0381   -0.2780 C   0  0  0  0  0  0  0  0  0  0  0  0
   -3.2767    3.5008    0.4106 H   0  0  0  0  0  0  0  0  0  0  0  0
   -2.3716    3.4270   -1.5122 N   0  0  0  0  0  0  0  0  0  0  0  0
   -1.3786    2.5977   -2.0210 C   0  0  0  0  0  0  0  0  0  0  0  0
   -0.9867    2.6556   -3.0322 H   0  0  0  0  0  0  0  0  0  0  0  0
    0.4838   -0.2747    1.1019 C   0  0  0  0  0  0  0  0  0  0  0  0
    1.6904   -0.1986    1.2920 O   0  0  0  0  0  0  0  0  0  0  0  0
   -0.3712    0.2889    2.0358 N   0  0  0  0  0  0  0  0  0  0  0  0
   -1.3228   -0.0603    1.9744 H   0  0  0  0  0  0  0  0  0  0  0  0
    0.1023    0.7062    3.3512 C   0  0  0  0  0  0  0  0  0  0  0  0
    0.8682    1.4832    3.2551 H   0  0  0  0  0  0  0  0  0  0  0  0
   -0.7254    1.1121    3.9408 H   0  0  0  0  0  0  0  0  0  0  0  0
    0.5306   -0.1447    3.8917 H   0  0  0  0  0  0  0  0  0  0  0  0
  1  2  1  0  0  0  0
  2  3  1  0  0  0  0
  2  4  1  0  0  0  0
  2  5  1  0  0  0  0
  5  6  2  0  0  0  0
  5  7  1  0  0  0  0
  7  8  1  0  0  0  0
  7  9  1  0  0  0  0
  9 10  1  0  0  0  0
  9 11  1  0  0  0  0
  9 22  1  0  0  0  0
 11 12  1  0  0  0  0
 11 13  1  0  0  0  0
 11 14  1  0  0  0  0
 14 15  1  0  0  0  0
 14 20  2  0  0  0  0
 15 16  1  0  0  0  0
 15 17  1  0  0  0  0
 17 18  1  0  0  0  0
 17 19  2  0  0  0  0
 19 20  1  0  0  0  0
 20 21  1  0  0  0  0
 22 23  2  0  0  0  0
 22 24  1  0  0  0  0
 24 25  1  0  0  0  0
 24 26  1  0  0  0  0
 26 27  1  0  0  0  0
 26 28  1  0  0  0  0
 26 29  1  0  0  0  0
M  END
$$$$

  -OEChem-03222214043D

 29 29  0     1  0  0  0  0  0999 V2000
   -3.0741   -4.0246    0.5314 H   0  0  0  0  0  0  0  0  0  0  0  0
   -3.0086   -3.0700    0.0013 C   0  0  0  0  0  0  0  0  0  0  0  0
   -3.7761   -2.3973    0.3912 H   0  0  0  0  0  0  0  0  0  0  0  0
   -3.1923   -3.2457   -1.0615 H   0  0  0  0  0  0  0  0  0  0  0  0
   -1.6337   -2.4594    0.1960 C   0  0  0  0  0  0  0  0  0  0  0  0
   -0.8119   -3.0198    0.8982 O   0  0  0  0  0  0  0  0  0  0  0  0
   -1.3280   -1.2493   -0.3927 N   0  0  0  0  0  0  0  0  0  0  0  0
   -2.0490   -0.8125   -0.9615 H   0  0  0  0  0  0  0  0  0  0  0  0
   -0.0072   -0.5957   -0.3347 C   0  0  1  0  0  0  0  0  0  0  0  0
    0.7149   -1.3328   -0.7043 H   0  0  0  0  0  0  0  0  0  0  0  0
    0.0545    0.5787   -1.3309 C   0  0  0  0  0  0  0  0  0  0  0  0
    1.0554    1.0199   -1.2683 H   0  0  0  0  0  0  0  0  0  0  0  0
   -0.0600    0.1860   -2.3465 H   0  0  0  0  0  0  0  0  0  0  0  0
   -0.9570    1.6809   -1.1131 C   0  0  0  0  0  0  0  0  0  0  0  0
   -1.5380    2.1223    0.0547 N   0  0  0  0  0  0  0  0  0  0  0  0
   -1.2384    1.8712    0.9971 H   0  0  0  0  0  0  0  0  0  0  0  0
   -2.4486    3.1153   -0.2501 C   0  0  0  0  0  0  0  0  0  0  0  0
   -3.0363    3.6705    0.4757 H   0  0  0  0  0  0  0  0  0  0  0  0
   -2.4986    3.2924   -1.5475 N   0  0  0  0  0  0  0  0  0  0  0  0
   -1.5736    2.4114   -2.0958 C   0  0  0  0  0  0  0  0  0  0  0  0
   -1.3785    2.3075   -3.1591 H   0  0  0  0  0  0  0  0  0  0  0  0
    0.4911   -0.2615    1.0896 C   0  0  0  0  0  0  0  0  0  0  0  0
    1.6955   -0.2066    1.2986 O   0  0  0  0  0  0  0  0  0  0  0  0
   -0.3663    0.3113    2.0156 N   0  0  0  0  0  0  0  0  0  0  0  0
   -1.3372    0.0331    1.9037 H   0  0  0  0  0  0  0  0  0  0  0  0
    0.0817    0.6774    3.3550 C   0  0  0  0  0  0  0  0  0  0  0  0
    0.8765    1.4293    3.3031 H   0  0  0  0  0  0  0  0  0  0  0  0
   -0.7491    1.0956    3.9314 H   0  0  0  0  0  0  0  0  0  0  0  0
    0.4643   -0.2021    3.8840 H   0  0  0  0  0  0  0  0  0  0  0  0
  1  2  1  0  0  0  0
  2  3  1  0  0  0  0
  2  4  1  0  0  0  0
  2  5  1  0  0  0  0
  5  6  2  0  0  0  0
  5  7  1  0  0  0  0
  7  8  1  0  0  0  0
  7  9  1  0  0  0  0
  9 10  1  0  0  0  0
  9 11  1  0  0  0  0
  9 22  1  0  0  0  0
 11 12  1  0  0  0  0
 11 13  1  0  0  0  0
 11 14  1  0  0  0  0
 14 15  1  0  0  0  0
 14 20  2  0  0  0  0
 15 16  1  0  0  0  0
 15 17  1  0  0  0  0
 17 18  1  0  0  0  0
 17 19  2  0  0  0  0
 19 20  1  0  0  0  0
 20 21  1  0  0  0  0
 22 23  2  0  0  0  0
 22 24  1  0  0  0  0
 24 25  1  0  0  0  0
 24 26  1  0  0  0  0
 26 27  1  0  0  0  0
 26 28  1  0  0  0  0
 26 29  1  0  0  0  0
M  END
$$$$

  -OEChem-03222214043D

 29 29  0     1  0  0  0  0  0999 V2000
   -3.0924   -3.9871    0.5720 H   0  0  0  0  0  0  0  0  0  0  0  0
   -3.0193   -3.0401    0.0298 C   0  0  0  0  0  0  0  0  0  0  0  0
   -3.7675   -2.3495    0.4252 H   0  0  0  0  0  0  0  0  0  0  0  0
   -3.2250   -3.2244   -1.0273 H   0  0  0  0  0  0  0  0  0  0  0  0
   -1.6305   -2.4524    0.1930 C   0  0  0  0  0  0  0  0  0  0  0  0
   -0.8043   -3.0233    0.8816 O   0  0  0  0  0  0  0  0  0  0  0  0
   -1.3160   -1.2527   -0.4118 N   0  0  0  0  0  0  0  0  0  0  0  0
   -2.0456   -0.7985   -0.9553 H   0  0  0  0  0  0  0  0  0  0  0  0
    0.0055   -0.6022   -0.3487 C   0  0  1  0  0  0  0  0  0  0  0  0
    0.7312   -1.3431   -0.7033 H   0  0  0  0  0  0  0  0  0  0  0  0
    0.0713    0.5623   -1.3550 C   0  0  0  0  0  0  0  0  0  0  0  0
    1.0702    1.0086   -1.2969 H   0  0  0  0  0  0  0  0  0  0  0  0
   -0.0433    0.1605   -2.3670 H   0  0  0  0  0  0  0  0  0  0  0  0
   -0.9496    1.6554   -1.1377 C   0  0  0  0  0  0  0  0  0  0  0  0
   -1.3229    2.2729    0.0350 N   0  0  0  0  0  0  0  0  0  0  0  0
   -0.8901    2.1293    0.9486 H   0  0  0  0  0  0  0  0  0  0  0  0
   -2.3141    3.1935   -0.2436 C   0  0  0  0  0  0  0  0  0  0  0  0
   -2.7918    3.8402    0.4871 H   0  0  0  0  0  0  0  0  0  0  0  0
   -2.5982    3.1693   -1.5230 N   0  0  0  0  0  0  0  0  0  0  0  0
   -1.7504    2.2261   -2.0929 C   0  0  0  0  0  0  0  0  0  0  0  0
   -1.7358    1.9695   -3.1480 H   0  0  0  0  0  0  0  0  0  0  0  0
    0.4906   -0.2455    1.0747 C   0  0  0  0  0  0  0  0  0  0  0  0
    1.6921   -0.2076    1.3025 O   0  0  0  0  0  0  0  0  0  0  0  0
   -0.3697    0.3463    1.9854 N   0  0  0  0  0  0  0  0  0  0  0  0
   -1.3530    0.1415    1.8310 H   0  0  0  0  0  0  0  0  0  0  0  0
    0.0535    0.6937    3.3373 C   0  0  0  0  0  0  0  0  0  0  0  0
    0.8668    1.4267    3.3094 H   0  0  0  0  0  0  0  0  0  0  0  0
   -0.7812    1.1274    3.8962 H   0  0  0  0  0  0  0  0  0  0  0  0
    0.4023   -0.1978    3.8695 H   0  0  0  0  0  0  0  0  0  0  0  0
  1  2  1  0  0  0  0
  2  3  1  0  0  0  0
  2  4  1  0  0  0  0
  2  5  1  0  0  0  0
  5  6  2  0  0  0  0
  5  7  1  0  0  0  0
  7  8  1  0  0  0  0
  7  9  1  0  0  0  0
  9 10  1  0  0  0  0
  9 11  1  0  0  0  0
  9 22  1  0  0  0  0
 11 12  1  0  0  0  0
 11 13  1  0  0  0  0
 11 14  1  0  0  0  0
 14 15  1  0  0  0  0
 14 20  2  0  0  0  0
 15 16  1  0  0  0  0
 15 17  1  0  0  0  0
 17 18  1  0  0  0  0
 17 19  2  0  0  0  0
 19 20  1  0  0  0  0
 20 21  1  0  0  0  0
 22 23  2  0  0  0  0
 22 24  1  0  0  0  0
 24 25  1  0  0  0  0
 24 26  1  0  0  0  0
 26 27  1  0  0  0  0
 26 28  1  0  0  0  0
 26 29  1  0  0  0  0
M  END
$$$$

  -OEChem-03222214043D

 29 29  0     1  0  0  0  0  0999 V2000
   -3.0992   -3.9640    0.6140 H   0  0  0  0  0  0  0  0  0  0  0  0
   -3.0218   -3.0252    0.0583 C   0  0  0  0  0  0  0  0  0  0  0  0
   -3.7525   -2.3183    0.4581 H   0  0  0  0  0  0  0  0  0  0  0  0
   -3.2488   -3.2194   -0.9926 H   0  0  0  0  0  0  0  0  0  0  0  0
   -1.6218   -2.4558    0.1895 C   0  0  0  0  0  0  0  0  0  0  0  0
   -0.7908   -3.0322    0.8677 O   0  0  0  0  0  0  0  0  0  0  0  0
   -1.3010   -1.2686   -0.4368 N   0  0  0  0  0  0  0  0  0  0  0  0
   -2.0384   -0.8028   -0.9588 H   0  0  0  0  0  0  0  0  0  0  0  0
    0.0205   -0.6176   -0.3705 C   0  0  1  0  0  0  0  0  0  0  0  0
    0.7525   -1.3585   -0.7117 H   0  0  0  0  0  0  0  0  0  0  0  0
    0.0869    0.5450   -1.3780 C   0  0  0  0  0  0  0  0  0  0  0  0
    1.0844    0.9954   -1.3313 H   0  0  0  0  0  0  0  0  0  0  0  0
   -0.0370    0.1414   -2.3882 H   0  0  0  0  0  0  0  0  0  0  0  0
   -0.9441    1.6238   -1.1450 C   0  0  0  0  0  0  0  0  0  0  0  0
   -1.1188    2.4122   -0.0297 N   0  0  0  0  0  0  0  0  0  0  0  0
   -0.5529    2.3819    0.8196 H   0  0  0  0  0  0  0  0  0  0  0  0
   -2.1837    3.2633   -0.2528 C   0  0  0  0  0  0  0  0  0  0  0  0
   -2.5548    4.0003    0.4537 H   0  0  0  0  0  0  0  0  0  0  0  0
   -2.6880    3.0447   -1.4435 N   0  0  0  0  0  0  0  0  0  0  0  0
   -1.9154    2.0412   -2.0167 C   0  0  0  0  0  0  0  0  0  0  0  0
   -2.0694    1.6376   -3.0130 H   0  0  0  0  0  0  0  0  0  0  0  0
    0.4851   -0.2331    1.0528 C   0  0  0  0  0  0  0  0  0  0  0  0
    1.6821   -0.2059    1.3047 O   0  0  0  0  0  0  0  0  0  0  0  0
   -0.3850    0.3776    1.9407 N   0  0  0  0  0  0  0  0  0  0  0  0
   -1.3721    0.2439    1.7408 H   0  0  0  0  0  0  0  0  0  0  0  0
    0.0050    0.7378    3.2991 C   0  0  0  0  0  0  0  0  0  0  0  0
    0.8260    1.4625    3.2847 H   0  0  0  0  0  0  0  0  0  0  0  0
   -0.8406    1.1861    3.8295 H   0  0  0  0  0  0  0  0  0  0  0  0
    0.3299   -0.1505    3.8514 H   0  0  0  0  0  0  0  0  0  0  0  0
  1  2  1  0  0  0  0
  2  3  1  0  0  0  0
  2  4  1  0  0  0  0
  2  5  1  0  0  0  0
  5  6  2  0  0  0  0
  5  7  1  0  0  0  0
  7  8  1  0  0  0  0
  7  9  1  0  0  0  0
  9 10  1  0  0  0  0
  9 11  1  0  0  0  0
  9 22  1  0  0  0  0
 11 12  1  0  0  0  0
 11 13  1  0  0  0  0
 11 14  1  0  0  0  0
 14 15  1  0  0  0  0
 14 20  2  0  0  0  0
 15 16  1  0  0  0  0
 15 17  1  0  0  0  0
 17 18  1  0  0  0  0
 17 19  2  0  0  0  0
 19 20  1  0  0  0  0
 20 21  1  0  0  0  0
 22 23  2  0  0  0  0
 22 24  1  0  0  0  0
 24 25  1  0  0  0  0
 24 26  1  0  0  0  0
 26 27  1  0  0  0  0
 26 28  1  0  0  0  0
 26 29  1  0  0  0  0
M  END
$$$$

  -OEChem-03222214043D

 29 29  0     1  0  0  0  0  0999 V2000
   -3.0991   -3.9558    0.6477 H   0  0  0  0  0  0  0  0  0  0  0  0
   -3.0202   -3.0246    0.0792 C   0  0  0  0  0  0  0  0  0  0  0  0
   -3.7382   -2.3057    0.4808 H   0  0  0  0  0  0  0  0  0  0  0  0
   -3.2643   -3.2296   -0.9658 H   0  0  0  0  0  0  0  0  0  0  0  0
   -1.6127   -2.4683    0.1834 C   0  0  0  0  0  0  0  0  0  0  0  0
   -0.7756   -3.0502    0.8495 O   0  0  0  0  0  0  0  0  0  0  0  0
   -1.2889   -1.2921   -0.4622 N   0  0  0  0  0  0  0  0  0  0  0  0
   -2.0344   -0.8166   -0.9627 H   0  0  0  0  0  0  0  0  0  0  0  0
    0.0313   -0.6377   -0.3915 C   0  0  1  0  0  0  0  0  0  0  0  0
    0.7707   -1.3762   -0.7218 H   0  0  0  0  0  0  0  0  0  0  0  0
    0.0986    0.5293   -1.3919 C   0  0  0  0  0  0  0  0  0  0  0  0
    1.0943    0.9843   -1.3508 H   0  0  0  0  0  0  0  0  0  0  0  0
   -0.0338    0.1318   -2.4034 H   0  0  0  0  0  0  0  0  0  0  0  0
   -0.9421    1.5911   -1.1356 C   0  0  0  0  0  0  0  0  0  0  0  0
   -0.9469    2.5404   -0.1381 N   0  0  0  0  0  0  0  0  0  0  0  0
   -0.2504    2.6381    0.6011 H   0  0  0  0  0  0  0  0  0  0  0  0
   -2.0732    3.3266   -0.2865 C   0  0  0  0  0  0  0  0  0  0  0  0
   -2.3501    4.1525    0.3627 H   0  0  0  0  0  0  0  0  0  0  0  0
   -2.7668    2.9231   -1.3244 N   0  0  0  0  0  0  0  0  0  0  0  0
   -2.0617    1.8606   -1.8771 C   0  0  0  0  0  0  0  0  0  0  0  0
   -2.3628    1.3154   -2.7666 H   0  0  0  0  0  0  0  0  0  0  0  0
    0.4753   -0.2269    1.0305 C   0  0  0  0  0  0  0  0  0  0  0  0
    1.6677   -0.2059    1.3049 O   0  0  0  0  0  0  0  0  0  0  0  0
   -0.4077    0.3989    1.8939 N   0  0  0  0  0  0  0  0  0  0  0  0
   -1.3916    0.3299    1.6506 H   0  0  0  0  0  0  0  0  0  0  0  0
   -0.0442    0.7978    3.2481 C   0  0  0  0  0  0  0  0  0  0  0  0
    0.7756    1.5235    3.2283 H   0  0  0  0  0  0  0  0  0  0  0  0
   -0.9005    1.2587    3.7495 H   0  0  0  0  0  0  0  0  0  0  0  0
    0.2719   -0.0738    3.8311 H   0  0  0  0  0  0  0  0  0  0  0  0
  1  2  1  0  0  0  0
  2  3  1  0  0  0  0
  2  4  1  0  0  0  0
  2  5  1  0  0  0  0
  5  6  2  0  0  0  0
  5  7  1  0  0  0  0
  7  8  1  0  0  0  0
  7  9  1  0  0  0  0
  9 10  1  0  0  0  0
  9 11  1  0  0  0  0
  9 22  1  0  0  0  0
 11 12  1  0  0  0  0
 11 13  1  0  0  0  0
 11 14  1  0  0  0  0
 14 15  1  0  0  0  0
 14 20  2  0  0  0  0
 15 16  1  0  0  0  0
 15 17  1  0  0  0  0
 17 18  1  0  0  0  0
 17 19  2  0  0  0  0
 19 20  1  0  0  0  0
 20 21  1  0  0  0  0
 22 23  2  0  0  0  0
 22 24  1  0  0  0  0
 24 25  1  0  0  0  0
 24 26  1  0  0  0  0
 26 27  1  0  0  0  0
 26 28  1  0  0  0  0
 26 29  1  0  0  0  0
M  END
$$$$

  -OEChem-03222214043D

 29 29  0     1  0  0  0  0  0999 V2000
   -3.0909   -3.9631    0.6731 H   0  0  0  0  0  0  0  0  0  0  0  0
   -3.0128   -3.0384    0.0943 C   0  0  0  0  0  0  0  0  0  0  0  0
   -3.7225   -2.3110    0.4956 H   0  0  0  0  0  0  0  0  0  0  0  0
   -3.2687   -3.2528   -0.9461 H   0  0  0  0  0  0  0  0  0  0  0  0
   -1.6018   -2.4884    0.1787 C   0  0  0  0  0  0  0  0  0  0  0  0
   -0.7598   -3.0707    0.8383 O   0  0  0  0  0  0  0  0  0  0  0  0
   -1.2794   -1.3216   -0.4847 N   0  0  0  0  0  0  0  0  0  0  0  0
   -2.0304   -0.8463   -0.9760 H   0  0  0  0  0  0  0  0  0  0  0  0
    0.0387   -0.6625   -0.4124 C   0  0  1  0  0  0  0  0  0  0  0  0
    0.7866   -1.3950   -0.7363 H   0  0  0  0  0  0  0  0  0  0  0  0
    0.1040    0.5165   -1.3976 C   0  0  0  0  0  0  0  0  0  0  0  0
    1.0994    0.9723   -1.3609 H   0  0  0  0  0  0  0  0  0  0  0  0
   -0.0386    0.1322   -2.4128 H   0  0  0  0  0  0  0  0  0  0  0  0
   -0.9417    1.5656   -1.1138 C   0  0  0  0  0  0  0  0  0  0  0  0
   -0.8140    2.6605   -0.2884 N   0  0  0  0  0  0  0  0  0  0  0  0
   -0.0063    2.8854    0.2920 H   0  0  0  0  0  0  0  0  0  0  0  0
   -1.9868    3.3891   -0.3443 C   0  0  0  0  0  0  0  0  0  0  0  0
   -2.1859    4.2986    0.2157 H   0  0  0  0  0  0  0  0  0  0  0  0
   -2.8309    2.8164   -1.1700 N   0  0  0  0  0  0  0  0  0  0  0  0
   -2.1823    1.6979   -1.6784 C   0  0  0  0  0  0  0  0  0  0  0  0
   -2.6044    1.0209   -2.4149 H   0  0  0  0  0  0  0  0  0  0  0  0
    0.4634   -0.2295    1.0091 C   0  0  0  0  0  0  0  0  0  0  0  0
    1.6508   -0.2139    1.3059 O   0  0  0  0  0  0  0  0  0  0  0  0
   -0.4346    0.4067    1.8488 N   0  0  0  0  0  0  0  0  0  0  0  0
   -1.4089    0.3962    1.5630 H   0  0  0  0  0  0  0  0  0  0  0  0
   -0.0934    0.8626    3.1900 C   0  0  0  0  0  0  0  0  0  0  0  0
    0.7161    1.5989    3.1509 H   0  0  0  0  0  0  0  0  0  0  0  0
   -0.9621    1.3296    3.6636 H   0  0  0  0  0  0  0  0  0  0  0  0
    0.2278    0.0183    3.8091 H   0  0  0  0  0  0  0  0  0  0  0  0
  1  2  1  0  0  0  0
  2  3  1  0  0  0  0
  2  4  1  0  0  0  0
  2  5  1  0  0  0  0
  5  6  2  0  0  0  0
  5  7  1  0  0  0  0
  7  8  1  0  0  0  0
  7  9  1  0  0  0  0
  9 10  1  0  0  0  0
  9 11  1  0  0  0  0
  9 22  1  0  0  0  0
 11 12  1  0  0  0  0
 11 13  1  0  0  0  0
 11 14  1  0  0  0  0
 14 15  1  0  0  0  0
 14 20  2  0  0  0  0
 15 16  1  0  0  0  0
 15 17  1  0  0  0  0
 17 18  1  0  0  0  0
 17 19  2  0  0  0  0
 19 20  1  0  0  0  0
 20 21  1  0  0  0  0
 22 23  2  0  0  0  0
 22 24  1  0  0  0  0
 24 25  1  0  0  0  0
 24 26  1  0  0  0  0
 26 27  1  0  0  0  0
 26 28  1  0  0  0  0
 26 29  1  0  0  0  0
M  END
$$$$

  -OEChem-03222214043D

 29 29  0     1  0  0  0  0  0999 V2000
   -3.0812   -4.0026    0.6627 H   0  0  0  0  0  0  0  0  0  0  0  0
   -3.0067   -3.0790    0.0816 C   0  0  0  0  0  0  0  0  0  0  0  0
   -3.7348   -2.3614    0.4672 H   0  0  0  0  0  0  0  0  0  0  0  0
   -3.2399   -3.3016   -0.9624 H   0  0  0  0  0  0  0  0  0  0  0  0
   -1.6061   -2.5067    0.1900 C   0  0  0  0  0  0  0  0  0  0  0  0
   -0.7696   -3.0706    0.8719 O   0  0  0  0  0  0  0  0  0  0  0  0
   -1.2858   -1.3455   -0.4843 N   0  0  0  0  0  0  0  0  0  0  0  0
   -2.0238   -0.9059   -1.0243 H   0  0  0  0  0  0  0  0  0  0  0  0
    0.0301   -0.6812   -0.4163 C   0  0  1  0  0  0  0  0  0  0  0  0
    0.7815   -1.4102   -0.7396 H   0  0  0  0  0  0  0  0  0  0  0  0
    0.0949    0.5078   -1.3905 C   0  0  0  0  0  0  0  0  0  0  0  0
    1.0923    0.9593   -1.3538 H   0  0  0  0  0  0  0  0  0  0  0  0
   -0.0536    0.1346   -2.4090 H   0  0  0  0  0  0  0  0  0  0  0  0
   -0.9480    1.5577   -1.0955 C   0  0  0  0  0  0  0  0  0  0  0  0
   -0.7330    2.7803   -0.5000 N   0  0  0  0  0  0  0  0  0  0  0  0
    0.1495    3.1160   -0.1158 H   0  0  0  0  0  0  0  0  0  0  0  0
   -1.9337    3.4628   -0.4562 C   0  0  0  0  0  0  0  0  0  0  0  0
   -2.0774    4.4482   -0.0220 H   0  0  0  0  0  0  0  0  0  0  0  0
   -2.8795    2.7426   -1.0117 N   0  0  0  0  0  0  0  0  0  0  0  0
   -2.2740    1.5685   -1.4393 C   0  0  0  0  0  0  0  0  0  0  0  0
   -2.7849    0.7700   -1.9689 H   0  0  0  0  0  0  0  0  0  0  0  0
    0.4511   -0.2328    1.0017 C   0  0  0  0  0  0  0  0  0  0  0  0
    1.6377   -0.2210    1.3030 O   0  0  0  0  0  0  0  0  0  0  0  0
   -0.4505    0.4092    1.8329 N   0  0  0  0  0  0  0  0  0  0  0  0
   -1.4185    0.4344    1.5273 H   0  0  0  0  0  0  0  0  0  0  0  0
   -0.1081    0.9171    3.1548 C   0  0  0  0  0  0  0  0  0  0  0  0
    0.6779    1.6760    3.0831 H   0  0  0  0  0  0  0  0  0  0  0  0
   -0.9859    1.3718    3.6242 H   0  0  0  0  0  0  0  0  0  0  0  0
    0.2454    0.1028    3.7962 H   0  0  0  0  0  0  0  0  0  0  0  0
  1  2  1  0  0  0  0
  2  3  1  0  0  0  0
  2  4  1  0  0  0  0
  2  5  1  0  0  0  0
  5  6  2  0  0  0  0
  5  7  1  0  0  0  0
  7  8  1  0  0  0  0
  7  9  1  0  0  0  0
  9 10  1  0  0  0  0
  9 11  1  0  0  0  0
  9 22  1  0  0  0  0
 11 12  1  0  0  0  0
 11 13  1  0  0  0  0
 11 14  1  0  0  0  0
 14 15  1  0  0  0  0
 14 20  2  0  0  0  0
 15 16  1  0  0  0  0
 15 17  1  0  0  0  0
 17 18  1  0  0  0  0
 17 19  2  0  0  0  0
 19 20  1  0  0  0  0
 20 21  1  0  0  0  0
 22 23  2  0  0  0  0
 22 24  1  0  0  0  0
 24 25  1  0  0  0  0
 24 26  1  0  0  0  0
 26 27  1  0  0  0  0
 26 28  1  0  0  0  0
 26 29  1  0  0  0  0
M  END
$$$$

  -OEChem-03222214043D

 29 29  0     1  0  0  0  0  0999 V2000
   -3.0481   -4.0824    0.6272 H   0  0  0  0  0  0  0  0  0  0  0  0
   -2.9863   -3.1566    0.0478 C   0  0  0  0  0  0  0  0  0  0  0  0
   -3.7619   -2.4708    0.3967 H   0  0  0  0  0  0  0  0  0  0  0  0
   -3.1606   -3.3895   -1.0054 H   0  0  0  0  0  0  0  0  0  0  0  0
   -1.6188   -2.5233    0.2206 C   0  0  0  0  0  0  0  0  0  0  0  0
   -0.7984   -3.0401    0.9569 O   0  0  0  0  0  0  0  0  0  0  0  0
   -1.3099   -1.3640   -0.4627 N   0  0  0  0  0  0  0  0  0  0  0  0
   -2.0065   -1.0138   -1.1119 H   0  0  0  0  0  0  0  0  0  0  0  0
    0.0027   -0.6919   -0.4072 C   0  0  1  0  0  0  0  0  0  0  0  0
    0.7552   -1.4180   -0.7342 H   0  0  0  0  0  0  0  0  0  0  0  0
    0.0624    0.5038   -1.3761 C   0  0  0  0  0  0  0  0  0  0  0  0
    1.0632    0.9472   -1.3325 H   0  0  0  0  0  0  0  0  0  0  0  0
   -0.0824    0.1384   -2.3976 H   0  0  0  0  0  0  0  0  0  0  0  0
   -0.9693    1.5717   -1.0919 C   0  0  0  0  0  0  0  0  0  0  0  0
   -0.7027    2.8861   -0.7792 N   0  0  0  0  0  0  0  0  0  0  0  0
    0.2199    3.2965   -0.6427 H   0  0  0  0  0  0  0  0  0  0  0  0
   -1.9021    3.5534   -0.6196 C   0  0  0  0  0  0  0  0  0  0  0  0
   -2.0041    4.6014   -0.3527 H   0  0  0  0  0  0  0  0  0  0  0  0
   -2.9033    2.7337   -0.8341 N   0  0  0  0  0  0  0  0  0  0  0  0
   -2.3376    1.5054   -1.1476 C   0  0  0  0  0  0  0  0  0  0  0  0
   -2.9095    0.6192   -1.4032 H   0  0  0  0  0  0  0  0  0  0  0  0
    0.4339   -0.2318    1.0042 C   0  0  0  0  0  0  0  0  0  0  0  0
    1.6237   -0.2198    1.2941 O   0  0  0  0  0  0  0  0  0  0  0  0
   -0.4621    0.4112    1.8404 N   0  0  0  0  0  0  0  0  0  0  0  0
   -1.4320    0.4401    1.5416 H   0  0  0  0  0  0  0  0  0  0  0  0
   -0.1027    0.9505    3.1449 C   0  0  0  0  0  0  0  0  0  0  0  0
    0.6715    1.7180    3.0427 H   0  0  0  0  0  0  0  0  0  0  0  0
   -0.9777    1.4036    3.6206 H   0  0  0  0  0  0  0  0  0  0  0  0
    0.2733    0.1544    3.7962 H   0  0  0  0  0  0  0  0  0  0  0  0
  1  2  1  0  0  0  0
  2  3  1  0  0  0  0
  2  4  1  0  0  0  0
  2  5  1  0  0  0  0
  5  6  2  0  0  0  0
  5  7  1  0  0  0  0
  7  8  1  0  0  0  0
  7  9  1  0  0  0  0
  9 10  1  0  0  0  0
  9 11  1  0  0  0  0
  9 22  1  0  0  0  0
 11 12  1  0  0  0  0
 11 13  1  0  0  0  0
 11 14  1  0  0  0  0
 14 15  1  0  0  0  0
 14 20  2  0  0  0  0
 15 16  1  0  0  0  0
 15 17  1  0  0  0  0
 17 18  1  0  0  0  0
 17 19  2  0  0  0  0
 19 20  1  0  0  0  0
 20 21  1  0  0  0  0
 22 23  2  0  0  0  0
 22 24  1  0  0  0  0
 24 25  1  0  0  0  0
 24 26  1  0  0  0  0
 26 27  1  0  0  0  0
 26 28  1  0  0  0  0
 26 29  1  0  0  0  0
M  END
$$$$

  -OEChem-03222214043D

 29 29  0     1  0  0  0  0  0999 V2000
   -2.9966   -4.1470    0.6109 H   0  0  0  0  0  0  0  0  0  0  0  0
   -2.9549   -3.2178    0.0354 C   0  0  0  0  0  0  0  0  0  0  0  0
   -3.7550   -2.5566    0.3768 H   0  0  0  0  0  0  0  0  0  0  0  0
   -3.1086   -3.4521   -1.0207 H   0  0  0  0  0  0  0  0  0  0  0  0
   -1.6091   -2.5452    0.2291 C   0  0  0  0  0  0  0  0  0  0  0  0
   -0.7882   -3.0363    0.9821 O   0  0  0  0  0  0  0  0  0  0  0  0
   -1.3217   -1.3790   -0.4525 N   0  0  0  0  0  0  0  0  0  0  0  0
   -2.0023   -1.0723   -1.1403 H   0  0  0  0  0  0  0  0  0  0  0  0
   -0.0184   -0.6892   -0.4019 C   0  0  1  0  0  0  0  0  0  0  0  0
    0.7409   -1.4062   -0.7330 H   0  0  0  0  0  0  0  0  0  0  0  0
    0.0260    0.5088   -1.3709 C   0  0  0  0  0  0  0  0  0  0  0  0
    1.0250    0.9549   -1.3112 H   0  0  0  0  0  0  0  0  0  0  0  0
   -0.1001    0.1435   -2.3948 H   0  0  0  0  0  0  0  0  0  0  0  0
   -1.0044    1.5896   -1.1155 C   0  0  0  0  0  0  0  0  0  0  0  0
   -0.7420    2.9423   -1.1166 N   0  0  0  0  0  0  0  0  0  0  0  0
    0.1658    3.3785   -1.2684 H   0  0  0  0  0  0  0  0  0  0  0  0
   -1.9086    3.6223   -0.8244 C   0  0  0  0  0  0  0  0  0  0  0  0
   -2.0011    4.7021   -0.7498 H   0  0  0  0  0  0  0  0  0  0  0  0
   -2.8907    2.7720   -0.6482 N   0  0  0  0  0  0  0  0  0  0  0  0
   -2.3447    1.5089   -0.8287 C   0  0  0  0  0  0  0  0  0  0  0  0
   -2.9169    0.5911   -0.7476 H   0  0  0  0  0  0  0  0  0  0  0  0
    0.4173   -0.2270    1.0078 C   0  0  0  0  0  0  0  0  0  0  0  0
    1.6093   -0.2090    1.2881 O   0  0  0  0  0  0  0  0  0  0  0  0
   -0.4777    0.4021    1.8556 N   0  0  0  0  0  0  0  0  0  0  0  0
   -1.4539    0.4060    1.5775 H   0  0  0  0  0  0  0  0  0  0  0  0
   -0.1098    0.9365    3.1598 C   0  0  0  0  0  0  0  0  0  0  0  0
    0.6633    1.7047    3.0553 H   0  0  0  0  0  0  0  0  0  0  0  0
   -0.9816    1.3875    3.6432 H   0  0  0  0  0  0  0  0  0  0  0  0
    0.2707    0.1378    3.8051 H   0  0  0  0  0  0  0  0  0  0  0  0
  1  2  1  0  0  0  0
  2  3  1  0  0  0  0
  2  4  1  0  0  0  0
  2  5  1  0  0  0  0
  5  6  2  0  0  0  0
  5  7  1  0  0  0  0
  7  8  1  0  0  0  0
  7  9  1  0  0  0  0
  9 10  1  0  0  0  0
  9 11  1  0  0  0  0
  9 22  1  0  0  0  0
 11 12  1  0  0  0  0
 11 13  1  0  0  0  0
 11 14  1  0  0  0  0
 14 15  1  0  0  0  0
 14 20  2  0  0  0  0
 15 16  1  0  0  0  0
 15 17  1  0  0  0  0
 17 18  1  0  0  0  0
 17 19  2  0  0  0  0
 19 20  1  0  0  0  0
 20 21  1  0  0  0  0
 22 23  2  0  0  0  0
 22 24  1  0  0  0  0
 24 25  1  0  0  0  0
 24 26  1  0  0  0  0
 26 27  1  0  0  0  0
 26 28  1  0  0  0  0
 26 29  1  0  0  0  0
M  END
$$$$

  -OEChem-03222214043D

 29 29  0     1  0  0  0  0  0999 V2000
   -2.9696   -4.1803    0.5883 H   0  0  0  0  0  0  0  0  0  0  0  0
   -2.9395   -3.2431    0.0251 C   0  0  0  0  0  0  0  0  0  0  0  0
   -3.7453   -2.5950    0.3778 H   0  0  0  0  0  0  0  0  0  0  0  0
   -3.0946   -3.4645   -1.0335 H   0  0  0  0  0  0  0  0  0  0  0  0
   -1.5997   -2.5598    0.2221 C   0  0  0  0  0  0  0  0  0  0  0  0
   -0.7693   -3.0535    0.9629 O   0  0  0  0  0  0  0  0  0  0  0  0
   -1.3286   -1.3786   -0.4396 N   0  0  0  0  0  0  0  0  0  0  0  0
   -2.0227   -1.0573   -1.1080 H   0  0  0  0  0  0  0  0  0  0  0  0
   -0.0328   -0.6751   -0.3850 C   0  0  1  0  0  0  0  0  0  0  0  0
    0.7294   -1.3847   -0.7262 H   0  0  0  0  0  0  0  0  0  0  0  0
   -0.0043    0.5195   -1.3589 C   0  0  0  0  0  0  0  0  0  0  0  0
    0.9889    0.9774   -1.2929 H   0  0  0  0  0  0  0  0  0  0  0  0
   -0.1166    0.1451   -2.3812 H   0  0  0  0  0  0  0  0  0  0  0  0
   -1.0426    1.6004   -1.1289 C   0  0  0  0  0  0  0  0  0  0  0  0
   -0.8605    2.9320   -1.4347 N   0  0  0  0  0  0  0  0  0  0  0  0
   -0.0241    3.3457   -1.8425 H   0  0  0  0  0  0  0  0  0  0  0  0
   -1.9888    3.6357   -1.0595 C   0  0  0  0  0  0  0  0  0  0  0  0
   -2.1272    4.7067   -1.1795 H   0  0  0  0  0  0  0  0  0  0  0  0
   -2.8712    2.8201   -0.5361 N   0  0  0  0  0  0  0  0  0  0  0  0
   -2.2942    1.5582   -0.5643 C   0  0  0  0  0  0  0  0  0  0  0  0
   -2.7828    0.6698   -0.1797 H   0  0  0  0  0  0  0  0  0  0  0  0
    0.4185   -0.2282    1.0249 C   0  0  0  0  0  0  0  0  0  0  0  0
    1.6147   -0.2000    1.2856 O   0  0  0  0  0  0  0  0  0  0  0  0
   -0.4674    0.3798    1.8969 N   0  0  0  0  0  0  0  0  0  0  0  0
   -1.4512    0.3487    1.6520 H   0  0  0  0  0  0  0  0  0  0  0  0
   -0.0817    0.8941    3.2044 C   0  0  0  0  0  0  0  0  0  0  0  0
    0.6888    1.6654    3.1017 H   0  0  0  0  0  0  0  0  0  0  0  0
   -0.9474    1.3365    3.7063 H   0  0  0  0  0  0  0  0  0  0  0  0
    0.3084    0.0864    3.8326 H   0  0  0  0  0  0  0  0  0  0  0  0
  1  2  1  0  0  0  0
  2  3  1  0  0  0  0
  2  4  1  0  0  0  0
  2  5  1  0  0  0  0
  5  6  2  0  0  0  0
  5  7  1  0  0  0  0
  7  8  1  0  0  0  0
  7  9  1  0  0  0  0
  9 10  1  0  0  0  0
  9 11  1  0  0  0  0
  9 22  1  0  0  0  0
 11 12  1  0  0  0  0
 11 13  1  0  0  0  0
 11 14  1  0  0  0  0
 14 15  1  0  0  0  0
 14 20  2  0  0  0  0
 15 16  1  0  0  0  0
 15 17  1  0  0  0  0
 17 18  1  0  0  0  0
 17 19  2  0  0  0  0
 19 20  1  0  0  0  0
 20 21  1  0  0  0  0
 22 23  2  0  0  0  0
 22 24  1  0  0  0  0
 24 25  1  0  0  0  0
 24 26  1  0  0  0  0
 26 27  1  0  0  0  0
 26 28  1  0  0  0  0
 26 29  1  0  0  0  0
M  END
$$$$

  -OEChem-03222214043D

 29 29  0     1  0  0  0  0  0999 V2000
   -2.9659   -4.1835    0.5684 H   0  0  0  0  0  0  0  0  0  0  0  0
   -2.9407   -3.2384    0.0182 C   0  0  0  0  0  0  0  0  0  0  0  0
   -3.7442   -2.5960    0.3864 H   0  0  0  0  0  0  0  0  0  0  0  0
   -3.1041   -3.4454   -1.0421 H   0  0  0  0  0  0  0  0  0  0  0  0
   -1.5997   -2.5568    0.2146 C   0  0  0  0  0  0  0  0  0  0  0  0
   -0.7620   -3.0613    0.9398 O   0  0  0  0  0  0  0  0  0  0  0  0
   -1.3385   -1.3595   -0.4212 N   0  0  0  0  0  0  0  0  0  0  0  0
   -2.0452   -1.0163   -1.0657 H   0  0  0  0  0  0  0  0  0  0  0  0
   -0.0456   -0.6508   -0.3601 C   0  0  1  0  0  0  0  0  0  0  0  0
    0.7129   -1.3592   -0.7120 H   0  0  0  0  0  0  0  0  0  0  0  0
   -0.0214    0.5370   -1.3417 C   0  0  0  0  0  0  0  0  0  0  0  0
    0.9672    1.0045   -1.2764 H   0  0  0  0  0  0  0  0  0  0  0  0
   -0.1280    0.1500   -2.3598 H   0  0  0  0  0  0  0  0  0  0  0  0
   -1.0674    1.6132   -1.1303 C   0  0  0  0  0  0  0  0  0  0  0  0
   -1.0228    2.8668   -1.7015 N   0  0  0  0  0  0  0  0  0  0  0  0
   -0.2882    3.2247   -2.3091 H   0  0  0  0  0  0  0  0  0  0  0  0
   -2.1261    3.5871   -1.2847 C   0  0  0  0  0  0  0  0  0  0  0  0
   -2.3503    4.6103   -1.5727 H   0  0  0  0  0  0  0  0  0  0  0  0
   -2.8661    2.8533   -0.4900 N   0  0  0  0  0  0  0  0  0  0  0  0
   -2.2164    1.6317   -0.3781 C   0  0  0  0  0  0  0  0  0  0  0  0
   -2.5846    0.8092    0.2257 H   0  0  0  0  0  0  0  0  0  0  0  0
    0.4302   -0.2265    1.0494 C   0  0  0  0  0  0  0  0  0  0  0  0
    1.6320   -0.1946    1.2822 O   0  0  0  0  0  0  0  0  0  0  0  0
   -0.4358    0.3629    1.9535 N   0  0  0  0  0  0  0  0  0  0  0  0
   -1.4273    0.2876    1.7546 H   0  0  0  0  0  0  0  0  0  0  0  0
   -0.0181    0.8413    3.2650 C   0  0  0  0  0  0  0  0  0  0  0  0
    0.7544    1.6110    3.1649 H   0  0  0  0  0  0  0  0  0  0  0  0
   -0.8696    1.2759    3.7972 H   0  0  0  0  0  0  0  0  0  0  0  0
    0.3817    0.0158    3.8631 H   0  0  0  0  0  0  0  0  0  0  0  0
  1  2  1  0  0  0  0
  2  3  1  0  0  0  0
  2  4  1  0  0  0  0
  2  5  1  0  0  0  0
  5  6  2  0  0  0  0
  5  7  1  0  0  0  0
  7  8  1  0  0  0  0
  7  9  1  0  0  0  0
  9 10  1  0  0  0  0
  9 11  1  0  0  0  0
  9 22  1  0  0  0  0
 11 12  1  0  0  0  0
 11 13  1  0  0  0  0
 11 14  1  0  0  0  0
 14 15  1  0  0  0  0
 14 20  2  0  0  0  0
 15 16  1  0  0  0  0
 15 17  1  0  0  0  0
 17 18  1  0  0  0  0
 17 19  2  0  0  0  0
 19 20  1  0  0  0  0
 20 21  1  0  0  0  0
 22 23  2  0  0  0  0
 22 24  1  0  0  0  0
 24 25  1  0  0  0  0
 24 26  1  0  0  0  0
 26 27  1  0  0  0  0
 26 28  1  0  0  0  0
 26 29  1  0  0  0  0
M  END
$$$$

  -OEChem-03222214043D

 29 29  0     1  0  0  0  0  0999 V2000
   -3.0244   -4.1513    0.4179 H   0  0  0  0  0  0  0  0  0  0  0  0
   -2.9933   -3.1710   -0.0662 C   0  0  0  0  0  0  0  0  0  0  0  0
   -3.7761   -2.5416    0.3636 H   0  0  0  0  0  0  0  0  0  0  0  0
   -3.1835   -3.3007   -1.1343 H   0  0  0  0  0  0  0  0  0  0  0  0
   -1.6353   -2.5290    0.1450 C   0  0  0  0  0  0  0  0  0  0  0  0
   -0.7788   -3.1116    0.7848 O   0  0  0  0  0  0  0  0  0  0  0  0
   -1.3785   -1.2778   -0.3781 N   0  0  0  0  0  0  0  0  0  0  0  0
   -2.1220   -0.8358   -0.9114 H   0  0  0  0  0  0  0  0  0  0  0  0
   -0.0846   -0.5804   -0.2695 C   0  0  1  0  0  0  0  0  0  0  0  0
    0.6437   -1.3072   -0.6483 H   0  0  0  0  0  0  0  0  0  0  0  0
   -0.0029    0.5871   -1.2717 C   0  0  0  0  0  0  0  0  0  0  0  0
    1.0504    0.8800   -1.3444 H   0  0  0  0  0  0  0  0  0  0  0  0
   -0.3046    0.2238   -2.2590 H   0  0  0  0  0  0  0  0  0  0  0  0
   -0.7983    1.8348   -0.9532 C   0  0  0  0  0  0  0  0  0  0  0  0
   -0.8239    2.9608   -1.7484 N   0  0  0  0  0  0  0  0  0  0  0  0
   -0.2513    3.1255   -2.5741 H   0  0  0  0  0  0  0  0  0  0  0  0
   -1.7255    3.8636   -1.2181 C   0  0  0  0  0  0  0  0  0  0  0  0
   -1.9364    4.8494   -1.6230 H   0  0  0  0  0  0  0  0  0  0  0  0
   -2.2969    3.3529   -0.1558 N   0  0  0  0  0  0  0  0  0  0  0  0
   -1.7384    2.0925    0.0137 C   0  0  0  0  0  0  0  0  0  0  0  0
   -2.0579    1.3978    0.7806 H   0  0  0  0  0  0  0  0  0  0  0  0
    0.4565   -0.2677    1.1463 C   0  0  0  0  0  0  0  0  0  0  0  0
    1.6692   -0.2423    1.3136 O   0  0  0  0  0  0  0  0  0  0  0  0
   -0.3517    0.2497    2.1424 N   0  0  0  0  0  0  0  0  0  0  0  0
   -1.3534    0.1536    2.0143 H   0  0  0  0  0  0  0  0  0  0  0  0
    0.1512    0.6662    3.4457 C   0  0  0  0  0  0  0  0  0  0  0  0
    0.8886    1.4679    3.3328 H   0  0  0  0  0  0  0  0  0  0  0  0
   -0.6696    1.0391    4.0657 H   0  0  0  0  0  0  0  0  0  0  0  0
    0.6223   -0.1767    3.9621 H   0  0  0  0  0  0  0  0  0  0  0  0
  1  2  1  0  0  0  0
  2  3  1  0  0  0  0
  2  4  1  0  0  0  0
  2  5  1  0  0  0  0
  5  6  2  0  0  0  0
  5  7  1  0  0  0  0
  7  8  1  0  0  0  0
  7  9  1  0  0  0  0
  9 10  1  0  0  0  0
  9 11  1  0  0  0  0
  9 22  1  0  0  0  0
 11 12  1  0  0  0  0
 11 13  1  0  0  0  0
 11 14  1  0  0  0  0
 14 15  1  0  0  0  0
 14 20  2  0  0  0  0
 15 16  1  0  0  0  0
 15 17  1  0  0  0  0
 17 18  1  0  0  0  0
 17 19  2  0  0  0  0
 19 20  1  0  0  0  0
 20 21  1  0  0  0  0
 22 23  2  0  0  0  0
 22 24  1  0  0  0  0
 24 25  1  0  0  0  0
 24 26  1  0  0  0  0
 26 27  1  0  0  0  0
 26 28  1  0  0  0  0
 26 29  1  0  0  0  0
M  END
$$$$

  -OEChem-03222214043D

 29 29  0     1  0  0  0  0  0999 V2000
   -2.9923   -4.1614    0.4241 H   0  0  0  0  0  0  0  0  0  0  0  0
   -2.9793   -3.1731   -0.0443 C   0  0  0  0  0  0  0  0  0  0  0  0
   -3.7556   -2.5563    0.4146 H   0  0  0  0  0  0  0  0  0  0  0  0
   -3.1943   -3.2868   -1.1094 H   0  0  0  0  0  0  0  0  0  0  0  0
   -1.6205   -2.5254    0.1440 C   0  0  0  0  0  0  0  0  0  0  0  0
   -0.7380   -3.1220    0.7337 O   0  0  0  0  0  0  0  0  0  0  0  0
   -1.3920   -1.2538   -0.3426 N   0  0  0  0  0  0  0  0  0  0  0  0
   -2.1622   -0.7927   -0.8190 H   0  0  0  0  0  0  0  0  0  0  0  0
   -0.1054   -0.5418   -0.2458 C   0  0  1  0  0  0  0  0  0  0  0  0
    0.6176   -1.2625   -0.6459 H   0  0  0  0  0  0  0  0  0  0  0  0
   -0.0343    0.6215   -1.2548 C   0  0  0  0  0  0  0  0  0  0  0  0
    1.0175    0.9151   -1.3433 H   0  0  0  0  0  0  0  0  0  0  0  0
   -0.3426    0.2373   -2.2323 H   0  0  0  0  0  0  0  0  0  0  0  0
   -0.8278    1.8800   -0.9703 C   0  0  0  0  0  0  0  0  0  0  0  0
   -1.0724    2.8439   -1.9264 N   0  0  0  0  0  0  0  0  0  0  0  0
   -0.6824    2.8681   -2.8664 H   0  0  0  0  0  0  0  0  0  0  0  0
   -1.8992    3.8121   -1.3917 C   0  0  0  0  0  0  0  0  0  0  0  0
   -2.2408    4.7023   -1.9122 H   0  0  0  0  0  0  0  0  0  0  0  0
   -2.2183    3.4942   -0.1629 N   0  0  0  0  0  0  0  0  0  0  0  0
   -1.5681    2.2967    0.1094 C   0  0  0  0  0  0  0  0  0  0  0  0
   -1.6908    1.7645    1.0416 H   0  0  0  0  0  0  0  0  0  0  0  0
    0.4686   -0.2700    1.1648 C   0  0  0  0  0  0  0  0  0  0  0  0
    1.6847   -0.2323    1.3022 O   0  0  0  0  0  0  0  0  0  0  0  0
   -0.3197    0.2002    2.1988 N   0  0  0  0  0  0  0  0  0  0  0  0
   -1.3224    0.0858    2.0930 H   0  0  0  0  0  0  0  0  0  0  0  0
    0.2096    0.5503    3.5112 C   0  0  0  0  0  0  0  0  0  0  0  0
    0.9499    1.3527    3.4243 H   0  0  0  0  0  0  0  0  0  0  0  0
   -0.5972    0.8967    4.1640 H   0  0  0  0  0  0  0  0  0  0  0  0
    0.6850   -0.3195    3.9767 H   0  0  0  0  0  0  0  0  0  0  0  0
  1  2  1  0  0  0  0
  2  3  1  0  0  0  0
  2  4  1  0  0  0  0
  2  5  1  0  0  0  0
  5  6  2  0  0  0  0
  5  7  1  0  0  0  0
  7  8  1  0  0  0  0
  7  9  1  0  0  0  0
  9 10  1  0  0  0  0
  9 11  1  0  0  0  0
  9 22  1  0  0  0  0
 11 12  1  0  0  0  0
 11 13  1  0  0  0  0
 11 14  1  0  0  0  0
 14 15  1  0  0  0  0
 14 20  2  0  0  0  0
 15 16  1  0  0  0  0
 15 17  1  0  0  0  0
 17 18  1  0  0  0  0
 17 19  2  0  0  0  0
 19 20  1  0  0  0  0
 20 21  1  0  0  0  0
 22 23  2  0  0  0  0
 22 24  1  0  0  0  0
 24 25  1  0  0  0  0
 24 26  1  0  0  0  0
 26 27  1  0  0  0  0
 26 28  1  0  0  0  0
 26 29  1  0  0  0  0
M  END
$$$$

  -OEChem-03222214043D

 29 29  0     1  0  0  0  0  0999 V2000
   -2.9382   -4.1594    0.5123 H   0  0  0  0  0  0  0  0  0  0  0  0
   -2.9436   -3.1755    0.0343 C   0  0  0  0  0  0  0  0  0  0  0  0
   -3.6887   -2.5486    0.5298 H   0  0  0  0  0  0  0  0  0  0  0  0
   -3.2182   -3.2968   -1.0162 H   0  0  0  0  0  0  0  0  0  0  0  0
   -1.5713   -2.5374    0.1412 C   0  0  0  0  0  0  0  0  0  0  0  0
   -0.6577   -3.1458    0.6679 O   0  0  0  0  0  0  0  0  0  0  0  0
   -1.3646   -1.2635   -0.3499 N   0  0  0  0  0  0  0  0  0  0  0  0
   -2.1667   -0.7826   -0.7473 H   0  0  0  0  0  0  0  0  0  0  0  0
   -0.0843   -0.5371   -0.2743 C   0  0  1  0  0  0  0  0  0  0  0  0
    0.6497   -1.2400   -0.6858 H   0  0  0  0  0  0  0  0  0  0  0  0
   -0.0635    0.6305   -1.2833 C   0  0  0  0  0  0  0  0  0  0  0  0
    0.9798    0.9402   -1.4093 H   0  0  0  0  0  0  0  0  0  0  0  0
   -0.3952    0.2351   -2.2486 H   0  0  0  0  0  0  0  0  0  0  0  0
   -0.8670    1.8802   -0.9840 C   0  0  0  0  0  0  0  0  0  0  0  0
   -1.4083    2.6744   -1.9743 N   0  0  0  0  0  0  0  0  0  0  0  0
   -1.3190    2.5269   -2.9776 H   0  0  0  0  0  0  0  0  0  0  0  0
   -2.0652    3.7399   -1.3913 C   0  0  0  0  0  0  0  0  0  0  0  0
   -2.5885    4.5250   -1.9302 H   0  0  0  0  0  0  0  0  0  0  0  0
   -1.9662    3.6629   -0.0888 N   0  0  0  0  0  0  0  0  0  0  0  0
   -1.2051    2.5306    0.1786 C   0  0  0  0  0  0  0  0  0  0  0  0
   -0.9175    2.2437    1.1797 H   0  0  0  0  0  0  0  0  0  0  0  0
    0.4699   -0.2804    1.1449 C   0  0  0  0  0  0  0  0  0  0  0  0
    1.6822   -0.2413    1.3086 O   0  0  0  0  0  0  0  0  0  0  0  0
   -0.3479    0.1664    2.1667 N   0  0  0  0  0  0  0  0  0  0  0  0
   -1.3486    0.0833    2.0200 H   0  0  0  0  0  0  0  0  0  0  0  0
    0.1424    0.4767    3.5040 C   0  0  0  0  0  0  0  0  0  0  0  0
    0.8956    1.2706    3.4619 H   0  0  0  0  0  0  0  0  0  0  0  0
   -0.6813    0.8169    4.1388 H   0  0  0  0  0  0  0  0  0  0  0  0
    0.5909   -0.4110    3.9624 H   0  0  0  0  0  0  0  0  0  0  0  0
  1  2  1  0  0  0  0
  2  3  1  0  0  0  0
  2  4  1  0  0  0  0
  2  5  1  0  0  0  0
  5  6  2  0  0  0  0
  5  7  1  0  0  0  0
  7  8  1  0  0  0  0
  7  9  1  0  0  0  0
  9 10  1  0  0  0  0
  9 11  1  0  0  0  0
  9 22  1  0  0  0  0
 11 12  1  0  0  0  0
 11 13  1  0  0  0  0
 11 14  1  0  0  0  0
 14 15  1  0  0  0  0
 14 20  2  0  0  0  0
 15 16  1  0  0  0  0
 15 17  1  0  0  0  0
 17 18  1  0  0  0  0
 17 19  2  0  0  0  0
 19 20  1  0  0  0  0
 20 21  1  0  0  0  0
 22 23  2  0  0  0  0
 22 24  1  0  0  0  0
 24 25  1  0  0  0  0
 24 26  1  0  0  0  0
 26 27  1  0  0  0  0
 26 28  1  0  0  0  0
 26 29  1  0  0  0  0
M  END
$$$$

  -OEChem-03222214043D

 29 29  0     1  0  0  0  0  0999 V2000
   -3.0002   -4.1119    0.5667 H   0  0  0  0  0  0  0  0  0  0  0  0
   -2.9764   -3.1440    0.0578 C   0  0  0  0  0  0  0  0  0  0  0  0
   -3.6976   -2.4778    0.5368 H   0  0  0  0  0  0  0  0  0  0  0  0
   -3.2606   -3.2894   -0.9871 H   0  0  0  0  0  0  0  0  0  0  0  0
   -1.5839   -2.5477    0.1378 C   0  0  0  0  0  0  0  0  0  0  0  0
   -0.6876   -3.1692    0.6789 O   0  0  0  0  0  0  0  0  0  0  0  0
   -1.3381   -1.3003   -0.4010 N   0  0  0  0  0  0  0  0  0  0  0  0
   -2.1308   -0.7990   -0.7914 H   0  0  0  0  0  0  0  0  0  0  0  0
   -0.0446   -0.5983   -0.3146 C   0  0  1  0  0  0  0  0  0  0  0  0
    0.6978   -1.3061   -0.7014 H   0  0  0  0  0  0  0  0  0  0  0  0
   -0.0219    0.5780   -1.3128 C   0  0  0  0  0  0  0  0  0  0  0  0
    1.0209    0.8922   -1.4311 H   0  0  0  0  0  0  0  0  0  0  0  0
   -0.3554    0.2113   -2.2886 H   0  0  0  0  0  0  0  0  0  0  0  0
   -0.8257    1.8065   -0.9479 C   0  0  0  0  0  0  0  0  0  0  0  0
   -1.6546    2.4915   -1.8122 N   0  0  0  0  0  0  0  0  0  0  0  0
   -1.8576    2.2406   -2.7776 H   0  0  0  0  0  0  0  0  0  0  0  0
   -2.1321    3.6200   -1.1738 C   0  0  0  0  0  0  0  0  0  0  0  0
   -2.8203    4.3410   -1.6062 H   0  0  0  0  0  0  0  0  0  0  0  0
   -1.6307    3.6951    0.0330 N   0  0  0  0  0  0  0  0  0  0  0  0
   -0.7835    2.6012    0.1719 C   0  0  0  0  0  0  0  0  0  0  0  0
   -0.1500    2.4362    1.0363 H   0  0  0  0  0  0  0  0  0  0  0  0
    0.4465   -0.3050    1.1205 C   0  0  0  0  0  0  0  0  0  0  0  0
    1.6489   -0.2857    1.3469 O   0  0  0  0  0  0  0  0  0  0  0  0
   -0.4170    0.1951    2.0799 N   0  0  0  0  0  0  0  0  0  0  0  0
   -1.4082    0.1804    1.8623 H   0  0  0  0  0  0  0  0  0  0  0  0
    0.0073    0.5731    3.4222 C   0  0  0  0  0  0  0  0  0  0  0  0
    0.7708    1.3568    3.3773 H   0  0  0  0  0  0  0  0  0  0  0  0
   -0.8433    0.9546    3.9948 H   0  0  0  0  0  0  0  0  0  0  0  0
    0.4210   -0.2930    3.9495 H   0  0  0  0  0  0  0  0  0  0  0  0
  1  2  1  0  0  0  0
  2  3  1  0  0  0  0
  2  4  1  0  0  0  0
  2  5  1  0  0  0  0
  5  6  2  0  0  0  0
  5  7  1  0  0  0  0
  7  8  1  0  0  0  0
  7  9  1  0  0  0  0
  9 10  1  0  0  0  0
  9 11  1  0  0  0  0
  9 22  1  0  0  0  0
 11 12  1  0  0  0  0
 11 13  1  0  0  0  0
 11 14  1  0  0  0  0
 14 15  1  0  0  0  0
 14 20  2  0  0  0  0
 15 16  1  0  0  0  0
 15 17  1  0  0  0  0
 17 18  1  0  0  0  0
 17 19  2  0  0  0  0
 19 20  1  0  0  0  0
 20 21  1  0  0  0  0
 22 23  2  0  0  0  0
 22 24  1  0  0  0  0
 24 25  1  0  0  0  0
 24 26  1  0  0  0  0
 26 27  1  0  0  0  0
 26 28  1  0  0  0  0
 26 29  1  0  0  0  0
M  END
$$$$

  -OEChem-03222214043D

 29 29  0     1  0  0  0  0  0999 V2000
   -3.0318   -4.0789    0.5922 H   0  0  0  0  0  0  0  0  0  0  0  0
   -2.9899   -3.1212    0.0655 C   0  0  0  0  0  0  0  0  0  0  0  0
   -3.6934   -2.4307    0.5366 H   0  0  0  0  0  0  0  0  0  0  0  0
   -3.2833   -3.2796   -0.9749 H   0  0  0  0  0  0  0  0  0  0  0  0
   -1.5841   -2.5544    0.1275 C   0  0  0  0  0  0  0  0  0  0  0  0
   -0.6998   -3.1840    0.6786 O   0  0  0  0  0  0  0  0  0  0  0  0
   -1.3135   -1.3247   -0.4393 N   0  0  0  0  0  0  0  0  0  0  0  0
   -2.0983   -0.8120   -0.8291 H   0  0  0  0  0  0  0  0  0  0  0  0
   -0.0136   -0.6366   -0.3399 C   0  0  1  0  0  0  0  0  0  0  0  0
    0.7336   -1.3473   -0.7114 H   0  0  0  0  0  0  0  0  0  0  0  0
    0.0180    0.5488   -1.3248 C   0  0  0  0  0  0  0  0  0  0  0  0
    1.0612    0.8671   -1.4287 H   0  0  0  0  0  0  0  0  0  0  0  0
   -0.3113    0.2094   -2.3115 H   0  0  0  0  0  0  0  0  0  0  0  0
   -0.7910    1.7548   -0.9076 C   0  0  0  0  0  0  0  0  0  0  0  0
   -1.8455    2.3083   -1.6032 N   0  0  0  0  0  0  0  0  0  0  0  0
   -2.2314    1.9721   -2.4831 H   0  0  0  0  0  0  0  0  0  0  0  0
   -2.2467    3.4604   -0.9532 C   0  0  0  0  0  0  0  0  0  0  0  0
   -3.0646    4.1035   -1.2662 H   0  0  0  0  0  0  0  0  0  0  0  0
   -1.4940    3.6668    0.0985 N   0  0  0  0  0  0  0  0  0  0  0  0
   -0.5594    2.6371    0.1186 C   0  0  0  0  0  0  0  0  0  0  0  0
    0.2500    2.5562    0.8382 H   0  0  0  0  0  0  0  0  0  0  0  0
    0.4492   -0.3100    1.0977 C   0  0  0  0  0  0  0  0  0  0  0  0
    1.6458   -0.3038    1.3539 O   0  0  0  0  0  0  0  0  0  0  0  0
   -0.4304    0.2281    2.0211 N   0  0  0  0  0  0  0  0  0  0  0  0
   -1.4073    0.2862    1.7531 H   0  0  0  0  0  0  0  0  0  0  0  0
   -0.0291    0.6878    3.3448 C   0  0  0  0  0  0  0  0  0  0  0  0
    0.7159    1.4863    3.2649 H   0  0  0  0  0  0  0  0  0  0  0  0
   -0.8952    1.0770    3.8884 H   0  0  0  0  0  0  0  0  0  0  0  0
    0.3999   -0.1379    3.9220 H   0  0  0  0  0  0  0  0  0  0  0  0
  1  2  1  0  0  0  0
  2  3  1  0  0  0  0
  2  4  1  0  0  0  0
  2  5  1  0  0  0  0
  5  6  2  0  0  0  0
  5  7  1  0  0  0  0
  7  8  1  0  0  0  0
  7  9  1  0  0  0  0
  9 10  1  0  0  0  0
  9 11  1  0  0  0  0
  9 22  1  0  0  0  0
 11 12  1  0  0  0  0
 11 13  1  0  0  0  0
 11 14  1  0  0  0  0
 14 15  1  0  0  0  0
 14 20  2  0  0  0  0
 15 16  1  0  0  0  0
 15 17  1  0  0  0  0
 17 18  1  0  0  0  0
 17 19  2  0  0  0  0
 19 20  1  0  0  0  0
 20 21  1  0  0  0  0
 22 23  2  0  0  0  0
 22 24  1  0  0  0  0
 24 25  1  0  0  0  0
 24 26  1  0  0  0  0
 26 27  1  0  0  0  0
 26 28  1  0  0  0  0
 26 29  1  0  0  0  0
M  END
$$$$

  -OEChem-03222214043D

 29 29  0     1  0  0  0  0  0999 V2000
   -3.0556   -4.0498    0.6086 H   0  0  0  0  0  0  0  0  0  0  0  0
   -3.0001   -3.1002    0.0684 C   0  0  0  0  0  0  0  0  0  0  0  0
   -3.6877   -2.3908    0.5349 H   0  0  0  0  0  0  0  0  0  0  0  0
   -3.3032   -3.2670   -0.9679 H   0  0  0  0  0  0  0  0  0  0  0  0
   -1.5838   -2.5585    0.1136 C   0  0  0  0  0  0  0  0  0  0  0  0
   -0.7077   -3.1968    0.6678 O   0  0  0  0  0  0  0  0  0  0  0  0
   -1.2960   -1.3410   -0.4712 N   0  0  0  0  0  0  0  0  0  0  0  0
   -2.0771   -0.8163   -0.8503 H   0  0  0  0  0  0  0  0  0  0  0  0
    0.0083   -0.6636   -0.3589 C   0  0  1  0  0  0  0  0  0  0  0  0
    0.7584   -1.3772   -0.7188 H   0  0  0  0  0  0  0  0  0  0  0  0
    0.0533    0.5304   -1.3306 C   0  0  0  0  0  0  0  0  0  0  0  0
    1.0983    0.8475   -1.4225 H   0  0  0  0  0  0  0  0  0  0  0  0
   -0.2744    0.2142   -2.3259 H   0  0  0  0  0  0  0  0  0  0  0  0
   -0.7584    1.7191   -0.8752 C   0  0  0  0  0  0  0  0  0  0  0  0
   -1.9783    2.1319   -1.3682 N   0  0  0  0  0  0  0  0  0  0  0  0
   -2.4975    1.7061   -2.1328 H   0  0  0  0  0  0  0  0  0  0  0  0
   -2.3328    3.3060   -0.7296 C   0  0  0  0  0  0  0  0  0  0  0  0
   -3.2456    3.8665   -0.9112 H   0  0  0  0  0  0  0  0  0  0  0  0
   -1.4043    3.6487    0.1285 N   0  0  0  0  0  0  0  0  0  0  0  0
   -0.4025    2.6892    0.0279 C   0  0  0  0  0  0  0  0  0  0  0  0
    0.5294    2.7062    0.5858 H   0  0  0  0  0  0  0  0  0  0  0  0
    0.4494   -0.3153    1.0811 C   0  0  0  0  0  0  0  0  0  0  0  0
    1.6405   -0.3270    1.3619 O   0  0  0  0  0  0  0  0  0  0  0  0
   -0.4412    0.2491    1.9782 N   0  0  0  0  0  0  0  0  0  0  0  0
   -1.3937    0.3896    1.6578 H   0  0  0  0  0  0  0  0  0  0  0  0
   -0.0468    0.7815    3.2762 C   0  0  0  0  0  0  0  0  0  0  0  0
    0.6803    1.5910    3.1537 H   0  0  0  0  0  0  0  0  0  0  0  0
   -0.9197    1.1777    3.8036 H   0  0  0  0  0  0  0  0  0  0  0  0
    0.4013   -0.0057    3.8917 H   0  0  0  0  0  0  0  0  0  0  0  0
  1  2  1  0  0  0  0
  2  3  1  0  0  0  0
  2  4  1  0  0  0  0
  2  5  1  0  0  0  0
  5  6  2  0  0  0  0
  5  7  1  0  0  0  0
  7  8  1  0  0  0  0
  7  9  1  0  0  0  0
  9 10  1  0  0  0  0
  9 11  1  0  0  0  0
  9 22  1  0  0  0  0
 11 12  1  0  0  0  0
 11 13  1  0  0  0  0
 11 14  1  0  0  0  0
 14 15  1  0  0  0  0
 14 20  2  0  0  0  0
 15 16  1  0  0  0  0
 15 17  1  0  0  0  0
 17 18  1  0  0  0  0
 17 19  2  0  0  0  0
 19 20  1  0  0  0  0
 20 21  1  0  0  0  0
 22 23  2  0  0  0  0
 22 24  1  0  0  0  0
 24 25  1  0  0  0  0
 24 26  1  0  0  0  0
 26 27  1  0  0  0  0
 26 28  1  0  0  0  0
 26 29  1  0  0  0  0
M  END
$$$$

  -OEChem-03222214043D

 29 29  0     1  0  0  0  0  0999 V2000
   -3.0725   -4.0614    0.5698 H   0  0  0  0  0  0  0  0  0  0  0  0
   -3.0128   -3.1014    0.0489 C   0  0  0  0  0  0  0  0  0  0  0  0
   -3.7093   -2.4033    0.5190 H   0  0  0  0  0  0  0  0  0  0  0  0
   -3.3008   -3.2497   -0.9945 H   0  0  0  0  0  0  0  0  0  0  0  0
   -1.5992   -2.5565    0.1235 C   0  0  0  0  0  0  0  0  0  0  0  0
   -0.7354   -3.1889    0.7030 O   0  0  0  0  0  0  0  0  0  0  0  0
   -1.2963   -1.3501   -0.4761 N   0  0  0  0  0  0  0  0  0  0  0  0
   -2.0644   -0.8348   -0.8905 H   0  0  0  0  0  0  0  0  0  0  0  0
    0.0124   -0.6818   -0.3614 C   0  0  1  0  0  0  0  0  0  0  0  0
    0.7598   -1.4021   -0.7134 H   0  0  0  0  0  0  0  0  0  0  0  0
    0.0720    0.5148   -1.3281 C   0  0  0  0  0  0  0  0  0  0  0  0
    1.1197    0.8231   -1.4174 H   0  0  0  0  0  0  0  0  0  0  0  0
   -0.2596    0.2102   -2.3256 H   0  0  0  0  0  0  0  0  0  0  0  0
   -0.7342    1.7004   -0.8564 C   0  0  0  0  0  0  0  0  0  0  0  0
   -2.0586    1.9811   -1.1207 N   0  0  0  0  0  0  0  0  0  0  0  0
   -2.6772    1.4610   -1.7387 H   0  0  0  0  0  0  0  0  0  0  0  0
   -2.3749    3.1863   -0.5207 C   0  0  0  0  0  0  0  0  0  0  0  0
   -3.3468    3.6703   -0.5629 H   0  0  0  0  0  0  0  0  0  0  0  0
   -1.3293    3.6653    0.1059 N   0  0  0  0  0  0  0  0  0  0  0  0
   -0.2927    2.7635   -0.1100 C   0  0  0  0  0  0  0  0  0  0  0  0
    0.7198    2.8807    0.2654 H   0  0  0  0  0  0  0  0  0  0  0  0
    0.4497   -0.3131    1.0752 C   0  0  0  0  0  0  0  0  0  0  0  0
    1.6391   -0.3368    1.3630 O   0  0  0  0  0  0  0  0  0  0  0  0
   -0.4402    0.2747    1.9579 N   0  0  0  0  0  0  0  0  0  0  0  0
   -1.3750    0.4593    1.6095 H   0  0  0  0  0  0  0  0  0  0  0  0
   -0.0367    0.8600    3.2301 C   0  0  0  0  0  0  0  0  0  0  0  0
    0.6335    1.7100    3.0651 H   0  0  0  0  0  0  0  0  0  0  0  0
   -0.9149    1.2118    3.7795 H   0  0  0  0  0  0  0  0  0  0  0  0
    0.4802    0.1166    3.8464 H   0  0  0  0  0  0  0  0  0  0  0  0
  1  2  1  0  0  0  0
  2  3  1  0  0  0  0
  2  4  1  0  0  0  0
  2  5  1  0  0  0  0
  5  6  2  0  0  0  0
  5  7  1  0  0  0  0
  7  8  1  0  0  0  0
  7  9  1  0  0  0  0
  9 10  1  0  0  0  0
  9 11  1  0  0  0  0
  9 22  1  0  0  0  0
 11 12  1  0  0  0  0
 11 13  1  0  0  0  0
 11 14  1  0  0  0  0
 14 15  1  0  0  0  0
 14 20  2  0  0  0  0
 15 16  1  0  0  0  0
 15 17  1  0  0  0  0
 17 18  1  0  0  0  0
 17 19  2  0  0  0  0
 19 20  1  0  0  0  0
 20 21  1  0  0  0  0
 22 23  2  0  0  0  0
 22 24  1  0  0  0  0
 24 25  1  0  0  0  0
 24 26  1  0  0  0  0
 26 27  1  0  0  0  0
 26 28  1  0  0  0  0
 26 29  1  0  0  0  0
M  END
$$$$

  -OEChem-03222214043D

 29 29  0     1  0  0  0  0  0999 V2000
   -3.0747   -4.1213    0.5087 H   0  0  0  0  0  0  0  0  0  0  0  0
   -3.0115   -3.1702   -0.0281 C   0  0  0  0  0  0  0  0  0  0  0  0
   -3.7904   -2.5028    0.3479 H   0  0  0  0  0  0  0  0  0  0  0  0
   -3.1787   -3.3560   -1.0916 H   0  0  0  0  0  0  0  0  0  0  0  0
   -1.6453   -2.5453    0.1826 C   0  0  0  0  0  0  0  0  0  0  0  0
   -0.8290   -3.1026    0.8925 O   0  0  0  0  0  0  0  0  0  0  0  0
   -1.3310   -1.3539   -0.4420 N   0  0  0  0  0  0  0  0  0  0  0  0
   -2.0123   -0.9800   -1.0919 H   0  0  0  0  0  0  0  0  0  0  0  0
   -0.0126   -0.6984   -0.3494 C   0  0  1  0  0  0  0  0  0  0  0  0
    0.7249   -1.4275   -0.7032 H   0  0  0  0  0  0  0  0  0  0  0  0
    0.0497    0.5012   -1.3129 C   0  0  0  0  0  0  0  0  0  0  0  0
    1.1008    0.7917   -1.4226 H   0  0  0  0  0  0  0  0  0  0  0  0
   -0.3072    0.2047   -2.3038 H   0  0  0  0  0  0  0  0  0  0  0  0
   -0.7312    1.7001   -0.8278 C   0  0  0  0  0  0  0  0  0  0  0  0
   -2.0972    1.8947   -0.8147 N   0  0  0  0  0  0  0  0  0  0  0  0
   -2.8042    1.2696   -1.1918 H   0  0  0  0  0  0  0  0  0  0  0  0
   -2.3532    3.1474   -0.2878 C   0  0  0  0  0  0  0  0  0  0  0  0
   -3.3402    3.5840   -0.1624 H   0  0  0  0  0  0  0  0  0  0  0  0
   -1.2304    3.7369    0.0380 N   0  0  0  0  0  0  0  0  0  0  0  0
   -0.2104    2.8532   -0.2981 C   0  0  0  0  0  0  0  0  0  0  0  0
    0.8486    3.0467   -0.1541 H   0  0  0  0  0  0  0  0  0  0  0  0
    0.4451   -0.3054    1.0748 C   0  0  0  0  0  0  0  0  0  0  0  0
    1.6385   -0.3354    1.3466 O   0  0  0  0  0  0  0  0  0  0  0  0
   -0.4287    0.3114    1.9532 N   0  0  0  0  0  0  0  0  0  0  0  0
   -1.3640    0.4957    1.6067 H   0  0  0  0  0  0  0  0  0  0  0  0
    0.0000    0.9479    3.1919 C   0  0  0  0  0  0  0  0  0  0  0  0
    0.6632    1.7926    2.9780 H   0  0  0  0  0  0  0  0  0  0  0  0
   -0.8673    1.3189    3.7459 H   0  0  0  0  0  0  0  0  0  0  0  0
    0.5332    0.2317    3.8261 H   0  0  0  0  0  0  0  0  0  0  0  0
  1  2  1  0  0  0  0
  2  3  1  0  0  0  0
  2  4  1  0  0  0  0
  2  5  1  0  0  0  0
  5  6  2  0  0  0  0
  5  7  1  0  0  0  0
  7  8  1  0  0  0  0
  7  9  1  0  0  0  0
  9 10  1  0  0  0  0
  9 11  1  0  0  0  0
  9 22  1  0  0  0  0
 11 12  1  0  0  0  0
 11 13  1  0  0  0  0
 11 14  1  0  0  0  0
 14 15  1  0  0  0  0
 14 20  2  0  0  0  0
 15 16  1  0  0  0  0
 15 17  1  0  0  0  0
 17 18  1  0  0  0  0
 17 19  2  0  0  0  0
 19 20  1  0  0  0  0
 20 21  1  0  0  0  0
 22 23  2  0  0  0  0
 22 24  1  0  0  0  0
 24 25  1  0  0  0  0
 24 26  1  0  0  0  0
 26 27  1  0  0  0  0
 26 28  1  0  0  0  0
 26 29  1  0  0  0  0
M  END
$$$$

  -OEChem-03222214043D

 29 29  0     1  0  0  0  0  0999 V2000
   -3.0863   -4.1310    0.4806 H   0  0  0  0  0  0  0  0  0  0  0  0
   -3.0080   -3.1995   -0.0877 C   0  0  0  0  0  0  0  0  0  0  0  0
   -3.8397   -2.5480    0.1901 H   0  0  0  0  0  0  0  0  0  0  0  0
   -3.0745   -3.4331   -1.1529 H   0  0  0  0  0  0  0  0  0  0  0  0
   -1.6877   -2.5159    0.2153 C   0  0  0  0  0  0  0  0  0  0  0  0
   -0.9175   -3.0205    1.0107 O   0  0  0  0  0  0  0  0  0  0  0  0
   -1.3641   -1.3341   -0.4236 N   0  0  0  0  0  0  0  0  0  0  0  0
   -1.9682   -1.0606   -1.1909 H   0  0  0  0  0  0  0  0  0  0  0  0
   -0.0338   -0.6991   -0.3351 C   0  0  1  0  0  0  0  0  0  0  0  0
    0.6903   -1.4413   -0.6889 H   0  0  0  0  0  0  0  0  0  0  0  0
    0.0348    0.4952   -1.3048 C   0  0  0  0  0  0  0  0  0  0  0  0
    1.0875    0.7726   -1.4328 H   0  0  0  0  0  0  0  0  0  0  0  0
   -0.3413    0.1959   -2.2879 H   0  0  0  0  0  0  0  0  0  0  0  0
   -0.7304    1.7051   -0.8201 C   0  0  0  0  0  0  0  0  0  0  0  0
   -2.0761    1.8186   -0.5354 N   0  0  0  0  0  0  0  0  0  0  0  0
   -2.7817    1.0944   -0.6386 H   0  0  0  0  0  0  0  0  0  0  0  0
   -2.3247    3.1104   -0.1098 C   0  0  0  0  0  0  0  0  0  0  0  0
   -3.2979    3.4981    0.1781 H   0  0  0  0  0  0  0  0  0  0  0  0
   -1.2138    3.8034   -0.1034 N   0  0  0  0  0  0  0  0  0  0  0  0
   -0.2118    2.9438   -0.5415 C   0  0  0  0  0  0  0  0  0  0  0  0
    0.8348    3.2159   -0.6428 H   0  0  0  0  0  0  0  0  0  0  0  0
    0.4451   -0.2962    1.0803 C   0  0  0  0  0  0  0  0  0  0  0  0
    1.6398   -0.3569    1.3419 O   0  0  0  0  0  0  0  0  0  0  0  0
   -0.4036    0.3472    1.9637 N   0  0  0  0  0  0  0  0  0  0  0  0
   -1.3381    0.5491    1.6264 H   0  0  0  0  0  0  0  0  0  0  0  0
    0.0518    0.9759    3.1967 C   0  0  0  0  0  0  0  0  0  0  0  0
    0.7373    1.8004    2.9747 H   0  0  0  0  0  0  0  0  0  0  0  0
   -0.8003    1.3733    3.7560 H   0  0  0  0  0  0  0  0  0  0  0  0
    0.5692    0.2471    3.8296 H   0  0  0  0  0  0  0  0  0  0  0  0
  1  2  1  0  0  0  0
  2  3  1  0  0  0  0
  2  4  1  0  0  0  0
  2  5  1  0  0  0  0
  5  6  2  0  0  0  0
  5  7  1  0  0  0  0
  7  8  1  0  0  0  0
  7  9  1  0  0  0  0
  9 10  1  0  0  0  0
  9 11  1  0  0  0  0
  9 22  1  0  0  0  0
 11 12  1  0  0  0  0
 11 13  1  0  0  0  0
 11 14  1  0  0  0  0
 14 15  1  0  0  0  0
 14 20  2  0  0  0  0
 15 16  1  0  0  0  0
 15 17  1  0  0  0  0
 17 18  1  0  0  0  0
 17 19  2  0  0  0  0
 19 20  1  0  0  0  0
 20 21  1  0  0  0  0
 22 23  2  0  0  0  0
 22 24  1  0  0  0  0
 24 25  1  0  0  0  0
 24 26  1  0  0  0  0
 26 27  1  0  0  0  0
 26 28  1  0  0  0  0
 26 29  1  0  0  0  0
M  END
$$$$

  -OEChem-03222214043D

 29 29  0     1  0  0  0  0  0999 V2000
   -3.0754   -4.1422    0.4531 H   0  0  0  0  0  0  0  0  0  0  0  0
   -3.0012   -3.2051   -0.1065 C   0  0  0  0  0  0  0  0  0  0  0  0
   -3.8461   -2.5673    0.1636 H   0  0  0  0  0  0  0  0  0  0  0  0
   -3.0476   -3.4308   -1.1746 H   0  0  0  0  0  0  0  0  0  0  0  0
   -1.6953   -2.5055    0.2218 C   0  0  0  0  0  0  0  0  0  0  0  0
   -0.9356   -2.9973    1.0349 O   0  0  0  0  0  0  0  0  0  0  0  0
   -1.3771   -1.3163   -0.4060 N   0  0  0  0  0  0  0  0  0  0  0  0
   -1.9705   -1.0526   -1.1863 H   0  0  0  0  0  0  0  0  0  0  0  0
   -0.0471   -0.6803   -0.3149 C   0  0  1  0  0  0  0  0  0  0  0  0
    0.6720   -1.4267   -0.6708 H   0  0  0  0  0  0  0  0  0  0  0  0
    0.0259    0.5027   -1.2974 C   0  0  0  0  0  0  0  0  0  0  0  0
    1.0786    0.7768   -1.4307 H   0  0  0  0  0  0  0  0  0  0  0  0
   -0.3502    0.1852   -2.2747 H   0  0  0  0  0  0  0  0  0  0  0  0
   -0.7401    1.7254   -0.8466 C   0  0  0  0  0  0  0  0  0  0  0  0
   -2.0111    1.8036   -0.3139 N   0  0  0  0  0  0  0  0  0  0  0  0
   -2.6557    1.0306   -0.1713 H   0  0  0  0  0  0  0  0  0  0  0  0
   -2.2839    3.1282   -0.0264 C   0  0  0  0  0  0  0  0  0  0  0  0
   -3.2135    3.4986    0.3964 H   0  0  0  0  0  0  0  0  0  0  0  0
   -1.2568    3.8771   -0.3408 N   0  0  0  0  0  0  0  0  0  0  0  0
   -0.2854    3.0190   -0.8452 C   0  0  0  0  0  0  0  0  0  0  0  0
    0.6963    3.3322   -1.1884 H   0  0  0  0  0  0  0  0  0  0  0  0
    0.4543   -0.2843    1.0951 C   0  0  0  0  0  0  0  0  0  0  0  0
    1.6522   -0.3571    1.3381 O   0  0  0  0  0  0  0  0  0  0  0  0
   -0.3715    0.3547    2.0028 N   0  0  0  0  0  0  0  0  0  0  0  0
   -1.3280    0.5204    1.7151 H   0  0  0  0  0  0  0  0  0  0  0  0
    0.1024    0.9287    3.2554 C   0  0  0  0  0  0  0  0  0  0  0  0
    0.8270    1.7263    3.0604 H   0  0  0  0  0  0  0  0  0  0  0  0
   -0.7350    1.3511    3.8189 H   0  0  0  0  0  0  0  0  0  0  0  0
    0.5805    0.1600    3.8717 H   0  0  0  0  0  0  0  0  0  0  0  0
  1  2  1  0  0  0  0
  2  3  1  0  0  0  0
  2  4  1  0  0  0  0
  2  5  1  0  0  0  0
  5  6  2  0  0  0  0
  5  7  1  0  0  0  0
  7  8  1  0  0  0  0
  7  9  1  0  0  0  0
  9 10  1  0  0  0  0
  9 11  1  0  0  0  0
  9 22  1  0  0  0  0
 11 12  1  0  0  0  0
 11 13  1  0  0  0  0
 11 14  1  0  0  0  0
 14 15  1  0  0  0  0
 14 20  2  0  0  0  0
 15 16  1  0  0  0  0
 15 17  1  0  0  0  0
 17 18  1  0  0  0  0
 17 19  2  0  0  0  0
 19 20  1  0  0  0  0
 20 21  1  0  0  0  0
 22 23  2  0  0  0  0
 22 24  1  0  0  0  0
 24 25  1  0  0  0  0
 24 26  1  0  0  0  0
 26 27  1  0  0  0  0
 26 28  1  0  0  0  0
 26 29  1  0  0  0  0
M  END
$$$$

  -OEChem-03222214043D

 29 29  0     1  0  0  0  0  0999 V2000
   -3.0135   -4.1716    0.4298 H   0  0  0  0  0  0  0  0  0  0  0  0
   -2.9731   -3.2126   -0.0947 C   0  0  0  0  0  0  0  0  0  0  0  0
   -3.8311   -2.6087    0.2098 H   0  0  0  0  0  0  0  0  0  0  0  0
   -3.0287   -3.3993   -1.1698 H   0  0  0  0  0  0  0  0  0  0  0  0
   -1.6827   -2.4893    0.2416 C   0  0  0  0  0  0  0  0  0  0  0  0
   -0.9215   -2.9599    1.0660 O   0  0  0  0  0  0  0  0  0  0  0  0
   -1.3901   -1.2860   -0.3703 N   0  0  0  0  0  0  0  0  0  0  0  0
   -2.0049   -1.0113   -1.1310 H   0  0  0  0  0  0  0  0  0  0  0  0
   -0.0688   -0.6308   -0.2954 C   0  0  1  0  0  0  0  0  0  0  0  0
    0.6467   -1.3799   -0.6535 H   0  0  0  0  0  0  0  0  0  0  0  0
    0.0100    0.5305   -1.3036 C   0  0  0  0  0  0  0  0  0  0  0  0
    1.0636    0.8006   -1.4382 H   0  0  0  0  0  0  0  0  0  0  0  0
   -0.3588    0.1826   -2.2734 H   0  0  0  0  0  0  0  0  0  0  0  0
   -0.7565    1.7722   -0.9115 C   0  0  0  0  0  0  0  0  0  0  0  0
   -1.9049    1.8907   -0.1569 N   0  0  0  0  0  0  0  0  0  0  0  0
   -2.4439    1.1281    0.2430 H   0  0  0  0  0  0  0  0  0  0  0  0
   -2.2084    3.2329   -0.0262 C   0  0  0  0  0  0  0  0  0  0  0  0
   -3.0614    3.6315    0.5154 H   0  0  0  0  0  0  0  0  0  0  0  0
   -1.3187    3.9586   -0.6563 N   0  0  0  0  0  0  0  0  0  0  0  0
   -0.4021    3.0650   -1.1998 C   0  0  0  0  0  0  0  0  0  0  0  0
    0.4752    3.3538   -1.7711 H   0  0  0  0  0  0  0  0  0  0  0  0
    0.4600   -0.2481    1.1080 C   0  0  0  0  0  0  0  0  0  0  0  0
    1.6685   -0.2693    1.3034 O   0  0  0  0  0  0  0  0  0  0  0  0
   -0.3515    0.3623    2.0481 N   0  0  0  0  0  0  0  0  0  0  0  0
   -1.3489    0.2552    1.9157 H   0  0  0  0  0  0  0  0  0  0  0  0
    0.1365    0.8029    3.3490 C   0  0  0  0  0  0  0  0  0  0  0  0
    0.9259    1.5524    3.2278 H   0  0  0  0  0  0  0  0  0  0  0  0
   -0.6773    1.2513    3.9266 H   0  0  0  0  0  0  0  0  0  0  0  0
    0.5384   -0.0445    3.9144 H   0  0  0  0  0  0  0  0  0  0  0  0
  1  2  1  0  0  0  0
  2  3  1  0  0  0  0
  2  4  1  0  0  0  0
  2  5  1  0  0  0  0
  5  6  2  0  0  0  0
  5  7  1  0  0  0  0
  7  8  1  0  0  0  0
  7  9  1  0  0  0  0
  9 10  1  0  0  0  0
  9 11  1  0  0  0  0
  9 22  1  0  0  0  0
 11 12  1  0  0  0  0
 11 13  1  0  0  0  0
 11 14  1  0  0  0  0
 14 15  1  0  0  0  0
 14 20  2  0  0  0  0
 15 16  1  0  0  0  0
 15 17  1  0  0  0  0
 17 18  1  0  0  0  0
 17 19  2  0  0  0  0
 19 20  1  0  0  0  0
 20 21  1  0  0  0  0
 22 23  2  0  0  0  0
 22 24  1  0  0  0  0
 24 25  1  0  0  0  0
 24 26  1  0  0  0  0
 26 27  1  0  0  0  0
 26 28  1  0  0  0  0
 26 29  1  0  0  0  0
M  END
$$$$

  -OEChem-03222214043D

 29 29  0     1  0  0  0  0  0999 V2000
   -3.0109   -4.1636    0.4148 H   0  0  0  0  0  0  0  0  0  0  0  0
   -2.9722   -3.1954   -0.0929 C   0  0  0  0  0  0  0  0  0  0  0  0
   -3.8105   -2.5846    0.2500 H   0  0  0  0  0  0  0  0  0  0  0  0
   -3.0647   -3.3604   -1.1689 H   0  0  0  0  0  0  0  0  0  0  0  0
   -1.6604   -2.4986    0.2148 C   0  0  0  0  0  0  0  0  0  0  0  0
   -0.8725   -3.0025    0.9937 O   0  0  0  0  0  0  0  0  0  0  0  0
   -1.3808   -1.2729   -0.3558 N   0  0  0  0  0  0  0  0  0  0  0  0
   -2.0433   -0.9314   -1.0470 H   0  0  0  0  0  0  0  0  0  0  0  0
   -0.0666   -0.6054   -0.2813 C   0  0  1  0  0  0  0  0  0  0  0  0
    0.6491   -1.3466   -0.6555 H   0  0  0  0  0  0  0  0  0  0  0  0
    0.0148    0.5621   -1.2837 C   0  0  0  0  0  0  0  0  0  0  0  0
    1.0706    0.8304   -1.4042 H   0  0  0  0  0  0  0  0  0  0  0  0
   -0.3395    0.2118   -2.2582 H   0  0  0  0  0  0  0  0  0  0  0  0
   -0.7447    1.8161   -0.9190 C   0  0  0  0  0  0  0  0  0  0  0  0
   -1.7262    2.0216    0.0257 N   0  0  0  0  0  0  0  0  0  0  0  0
   -2.0484    1.3439    0.7101 H   0  0  0  0  0  0  0  0  0  0  0  0
   -2.1055    3.3499   -0.0123 C   0  0  0  0  0  0  0  0  0  0  0  0
   -2.8515    3.8065    0.6318 H   0  0  0  0  0  0  0  0  0  0  0  0
   -1.4325    3.9830   -0.9408 N   0  0  0  0  0  0  0  0  0  0  0  0
   -0.5752    3.0444   -1.5044 C   0  0  0  0  0  0  0  0  0  0  0  0
    0.1300    3.2562   -2.3026 H   0  0  0  0  0  0  0  0  0  0  0  0
    0.4620   -0.2747    1.1339 C   0  0  0  0  0  0  0  0  0  0  0  0
    1.6729   -0.2258    1.3070 O   0  0  0  0  0  0  0  0  0  0  0  0
   -0.3686    0.2840    2.0913 N   0  0  0  0  0  0  0  0  0  0  0  0
   -1.3329   -0.0244    2.0403 H   0  0  0  0  0  0  0  0  0  0  0  0
    0.1338    0.7125    3.3918 C   0  0  0  0  0  0  0  0  0  0  0  0
    0.8977    1.4880    3.2709 H   0  0  0  0  0  0  0  0  0  0  0  0
   -0.6800    1.1253    3.9954 H   0  0  0  0  0  0  0  0  0  0  0  0
    0.5734   -0.1334    3.9309 H   0  0  0  0  0  0  0  0  0  0  0  0
  1  2  1  0  0  0  0
  2  3  1  0  0  0  0
  2  4  1  0  0  0  0
  2  5  1  0  0  0  0
  5  6  2  0  0  0  0
  5  7  1  0  0  0  0
  7  8  1  0  0  0  0
  7  9  1  0  0  0  0
  9 10  1  0  0  0  0
  9 11  1  0  0  0  0
  9 22  1  0  0  0  0
 11 12  1  0  0  0  0
 11 13  1  0  0  0  0
 11 14  1  0  0  0  0
 14 15  1  0  0  0  0
 14 20  2  0  0  0  0
 15 16  1  0  0  0  0
 15 17  1  0  0  0  0
 17 18  1  0  0  0  0
 17 19  2  0  0  0  0
 19 20  1  0  0  0  0
 20 21  1  0  0  0  0
 22 23  2  0  0  0  0
 22 24  1  0  0  0  0
 24 25  1  0  0  0  0
 24 26  1  0  0  0  0
 26 27  1  0  0  0  0
 26 28  1  0  0  0  0
 26 29  1  0  0  0  0
M  END
$$$$

  -OEChem-03222214043D

 29 29  0     1  0  0  0  0  0999 V2000
   -3.0380   -4.1124    0.4218 H   0  0  0  0  0  0  0  0  0  0  0  0
   -2.9888   -3.1399   -0.0764 C   0  0  0  0  0  0  0  0  0  0  0  0
   -3.7963   -2.5093    0.3028 H   0  0  0  0  0  0  0  0  0  0  0  0
   -3.1245   -3.2892   -1.1503 H   0  0  0  0  0  0  0  0  0  0  0  0
   -1.6471   -2.4848    0.1917 C   0  0  0  0  0  0  0  0  0  0  0  0
   -0.8399   -3.0286    0.9229 O   0  0  0  0  0  0  0  0  0  0  0  0
   -1.3587   -1.2520   -0.3582 N   0  0  0  0  0  0  0  0  0  0  0  0
   -2.0556   -0.8507   -0.9800 H   0  0  0  0  0  0  0  0  0  0  0  0
   -0.0418   -0.5911   -0.2843 C   0  0  1  0  0  0  0  0  0  0  0  0
    0.6710   -1.3299   -0.6686 H   0  0  0  0  0  0  0  0  0  0  0  0
    0.0362    0.5836   -1.2802 C   0  0  0  0  0  0  0  0  0  0  0  0
    1.0938    0.8502   -1.3860 H   0  0  0  0  0  0  0  0  0  0  0  0
   -0.3062    0.2393   -2.2613 H   0  0  0  0  0  0  0  0  0  0  0  0
   -0.7101    1.8479   -0.9207 C   0  0  0  0  0  0  0  0  0  0  0  0
   -1.4777    2.1585    0.1798 N   0  0  0  0  0  0  0  0  0  0  0  0
   -1.5067    1.6291    1.0488 H   0  0  0  0  0  0  0  0  0  0  0  0
   -1.9901    3.4312    0.0181 C   0  0  0  0  0  0  0  0  0  0  0  0
   -2.6055    3.9545    0.7444 H   0  0  0  0  0  0  0  0  0  0  0  0
   -1.6202    3.9207   -1.1390 N   0  0  0  0  0  0  0  0  0  0  0  0
   -0.8215    2.9489   -1.7304 C   0  0  0  0  0  0  0  0  0  0  0  0
   -0.3583    3.0463   -2.7078 H   0  0  0  0  0  0  0  0  0  0  0  0
    0.4783   -0.2959    1.1408 C   0  0  0  0  0  0  0  0  0  0  0  0
    1.6868   -0.2343    1.3239 O   0  0  0  0  0  0  0  0  0  0  0  0
   -0.3662    0.2424    2.0992 N   0  0  0  0  0  0  0  0  0  0  0  0
   -1.3225   -0.0934    2.0341 H   0  0  0  0  0  0  0  0  0  0  0  0
    0.1223    0.6186    3.4215 C   0  0  0  0  0  0  0  0  0  0  0  0
    0.8825    1.4030    3.3406 H   0  0  0  0  0  0  0  0  0  0  0  0
   -0.6997    0.9995    4.0350 H   0  0  0  0  0  0  0  0  0  0  0  0
    0.5626   -0.2472    3.9278 H   0  0  0  0  0  0  0  0  0  0  0  0
  1  2  1  0  0  0  0
  2  3  1  0  0  0  0
  2  4  1  0  0  0  0
  2  5  1  0  0  0  0
  5  6  2  0  0  0  0
  5  7  1  0  0  0  0
  7  8  1  0  0  0  0
  7  9  1  0  0  0  0
  9 10  1  0  0  0  0
  9 11  1  0  0  0  0
  9 22  1  0  0  0  0
 11 12  1  0  0  0  0
 11 13  1  0  0  0  0
 11 14  1  0  0  0  0
 14 15  1  0  0  0  0
 14 20  2  0  0  0  0
 15 16  1  0  0  0  0
 15 17  1  0  0  0  0
 17 18  1  0  0  0  0
 17 19  2  0  0  0  0
 19 20  1  0  0  0  0
 20 21  1  0  0  0  0
 22 23  2  0  0  0  0
 22 24  1  0  0  0  0
 24 25  1  0  0  0  0
 24 26  1  0  0  0  0
 26 27  1  0  0  0  0
 26 28  1  0  0  0  0
 26 29  1  0  0  0  0
M  END
$$$$

  -OEChem-03222214043D

 29 29  0     1  0  0  0  0  0999 V2000
   -3.0673   -4.0550    0.4647 H   0  0  0  0  0  0  0  0  0  0  0  0
   -3.0074   -3.0868   -0.0406 C   0  0  0  0  0  0  0  0  0  0  0  0
   -3.7831   -2.4312    0.3620 H   0  0  0  0  0  0  0  0  0  0  0  0
   -3.1838   -3.2371   -1.1084 H   0  0  0  0  0  0  0  0  0  0  0  0
   -1.6392   -2.4692    0.1782 C   0  0  0  0  0  0  0  0  0  0  0  0
   -0.8143   -3.0448    0.8640 O   0  0  0  0  0  0  0  0  0  0  0  0
   -1.3433   -1.2365   -0.3682 N   0  0  0  0  0  0  0  0  0  0  0  0
   -2.0624   -0.7966   -0.9365 H   0  0  0  0  0  0  0  0  0  0  0  0
   -0.0233   -0.5826   -0.2955 C   0  0  1  0  0  0  0  0  0  0  0  0
    0.6862   -1.3244   -0.6800 H   0  0  0  0  0  0  0  0  0  0  0  0
    0.0552    0.5882   -1.2974 C   0  0  0  0  0  0  0  0  0  0  0  0
    1.1137    0.8531   -1.3969 H   0  0  0  0  0  0  0  0  0  0  0  0
   -0.2796    0.2391   -2.2795 H   0  0  0  0  0  0  0  0  0  0  0  0
   -0.6865    1.8587   -0.9463 C   0  0  0  0  0  0  0  0  0  0  0  0
   -1.2204    2.2888    0.2481 N   0  0  0  0  0  0  0  0  0  0  0  0
   -1.0365    1.8753    1.1621 H   0  0  0  0  0  0  0  0  0  0  0  0
   -1.8585    3.4967    0.0427 C   0  0  0  0  0  0  0  0  0  0  0  0
   -2.3443    4.0874    0.8143 H   0  0  0  0  0  0  0  0  0  0  0  0
   -1.7889    3.8299   -1.2222 N   0  0  0  0  0  0  0  0  0  0  0  0
   -1.0617    2.8230   -1.8465 C   0  0  0  0  0  0  0  0  0  0  0  0
   -0.8335    2.7990   -2.9082 H   0  0  0  0  0  0  0  0  0  0  0  0
    0.4945   -0.2965    1.1326 C   0  0  0  0  0  0  0  0  0  0  0  0
    1.7015   -0.2509    1.3276 O   0  0  0  0  0  0  0  0  0  0  0  0
   -0.3493    0.2418    2.0916 N   0  0  0  0  0  0  0  0  0  0  0  0
   -1.3240   -0.0242    1.9814 H   0  0  0  0  0  0  0  0  0  0  0  0
    0.1176    0.5610    3.4366 C   0  0  0  0  0  0  0  0  0  0  0  0
    0.9082    1.3181    3.4001 H   0  0  0  0  0  0  0  0  0  0  0  0
   -0.7062    0.9536    4.0404 H   0  0  0  0  0  0  0  0  0  0  0  0
    0.5122   -0.3351    3.9275 H   0  0  0  0  0  0  0  0  0  0  0  0
  1  2  1  0  0  0  0
  2  3  1  0  0  0  0
  2  4  1  0  0  0  0
  2  5  1  0  0  0  0
  5  6  2  0  0  0  0
  5  7  1  0  0  0  0
  7  8  1  0  0  0  0
  7  9  1  0  0  0  0
  9 10  1  0  0  0  0
  9 11  1  0  0  0  0
  9 22  1  0  0  0  0
 11 12  1  0  0  0  0
 11 13  1  0  0  0  0
 11 14  1  0  0  0  0
 14 15  1  0  0  0  0
 14 20  2  0  0  0  0
 15 16  1  0  0  0  0
 15 17  1  0  0  0  0
 17 18  1  0  0  0  0
 17 19  2  0  0  0  0
 19 20  1  0  0  0  0
 20 21  1  0  0  0  0
 22 23  2  0  0  0  0
 22 24  1  0  0  0  0
 24 25  1  0  0  0  0
 24 26  1  0  0  0  0
 26 27  1  0  0  0  0
 26 28  1  0  0  0  0
 26 29  1  0  0  0  0
M  END
$$$$

  -OEChem-03222214043D

 29 29  0     1  0  0  0  0  0999 V2000
   -3.0986   -4.0051    0.5140 H   0  0  0  0  0  0  0  0  0  0  0  0
   -3.0271   -3.0451   -0.0052 C   0  0  0  0  0  0  0  0  0  0  0  0
   -3.7779   -2.3665    0.4060 H   0  0  0  0  0  0  0  0  0  0  0  0
   -3.2306   -3.2044   -1.0668 H   0  0  0  0  0  0  0  0  0  0  0  0
   -1.6401   -2.4577    0.1746 C   0  0  0  0  0  0  0  0  0  0  0  0
   -0.8092   -3.0501    0.8389 O   0  0  0  0  0  0  0  0  0  0  0  0
   -1.3332   -1.2334   -0.3842 N   0  0  0  0  0  0  0  0  0  0  0  0
   -2.0623   -0.7710   -0.9207 H   0  0  0  0  0  0  0  0  0  0  0  0
   -0.0103   -0.5868   -0.3101 C   0  0  1  0  0  0  0  0  0  0  0  0
    0.6985   -1.3344   -0.6841 H   0  0  0  0  0  0  0  0  0  0  0  0
    0.0731    0.5742   -1.3228 C   0  0  0  0  0  0  0  0  0  0  0  0
    1.1314    0.8396   -1.4207 H   0  0  0  0  0  0  0  0  0  0  0  0
   -0.2584    0.2177   -2.3034 H   0  0  0  0  0  0  0  0  0  0  0  0
   -0.6704    1.8444   -0.9754 C   0  0  0  0  0  0  0  0  0  0  0  0
   -0.9630    2.4002    0.2500 N   0  0  0  0  0  0  0  0  0  0  0  0
   -0.6137    2.0719    1.1516 H   0  0  0  0  0  0  0  0  0  0  0  0
   -1.7045    3.5488    0.0553 C   0  0  0  0  0  0  0  0  0  0  0  0
   -2.0597    4.2065    0.8437 H   0  0  0  0  0  0  0  0  0  0  0  0
   -1.9187    3.7292   -1.2248 N   0  0  0  0  0  0  0  0  0  0  0  0
   -1.2773    2.6816   -1.8760 C   0  0  0  0  0  0  0  0  0  0  0  0
   -1.2688    2.5408   -2.9527 H   0  0  0  0  0  0  0  0  0  0  0  0
    0.4984   -0.2874    1.1186 C   0  0  0  0  0  0  0  0  0  0  0  0
    1.7033   -0.2572    1.3282 O   0  0  0  0  0  0  0  0  0  0  0  0
   -0.3452    0.2674    2.0679 N   0  0  0  0  0  0  0  0  0  0  0  0
   -1.3327    0.0770    1.9200 H   0  0  0  0  0  0  0  0  0  0  0  0
    0.1003    0.5623    3.4256 C   0  0  0  0  0  0  0  0  0  0  0  0
    0.9132    1.2963    3.4135 H   0  0  0  0  0  0  0  0  0  0  0  0
   -0.7250    0.9734    4.0149 H   0  0  0  0  0  0  0  0  0  0  0  0
    0.4577   -0.3490    3.9169 H   0  0  0  0  0  0  0  0  0  0  0  0
  1  2  1  0  0  0  0
  2  3  1  0  0  0  0
  2  4  1  0  0  0  0
  2  5  1  0  0  0  0
  5  6  2  0  0  0  0
  5  7  1  0  0  0  0
  7  8  1  0  0  0  0
  7  9  1  0  0  0  0
  9 10  1  0  0  0  0
  9 11  1  0  0  0  0
  9 22  1  0  0  0  0
 11 12  1  0  0  0  0
 11 13  1  0  0  0  0
 11 14  1  0  0  0  0
 14 15  1  0  0  0  0
 14 20  2  0  0  0  0
 15 16  1  0  0  0  0
 15 17  1  0  0  0  0
 17 18  1  0  0  0  0
 17 19  2  0  0  0  0
 19 20  1  0  0  0  0
 20 21  1  0  0  0  0
 22 23  2  0  0  0  0
 22 24  1  0  0  0  0
 24 25  1  0  0  0  0
 24 26  1  0  0  0  0
 26 27  1  0  0  0  0
 26 28  1  0  0  0  0
 26 29  1  0  0  0  0
M  END
$$$$

  -OEChem-03222214043D

 29 29  0     1  0  0  0  0  0999 V2000
   -3.1101   -3.9800    0.5536 H   0  0  0  0  0  0  0  0  0  0  0  0
   -3.0337   -3.0269    0.0224 C   0  0  0  0  0  0  0  0  0  0  0  0
   -3.7709   -2.3342    0.4352 H   0  0  0  0  0  0  0  0  0  0  0  0
   -3.2525   -3.1959   -1.0348 H   0  0  0  0  0  0  0  0  0  0  0  0
   -1.6376   -2.4542    0.1782 C   0  0  0  0  0  0  0  0  0  0  0  0
   -0.8046   -3.0505    0.8365 O   0  0  0  0  0  0  0  0  0  0  0  0
   -1.3224   -1.2423   -0.4031 N   0  0  0  0  0  0  0  0  0  0  0  0
   -2.0574   -0.7703   -0.9228 H   0  0  0  0  0  0  0  0  0  0  0  0
    0.0017   -0.5983   -0.3283 C   0  0  1  0  0  0  0  0  0  0  0  0
    0.7147   -1.3497   -0.6869 H   0  0  0  0  0  0  0  0  0  0  0  0
    0.0866    0.5540   -1.3500 C   0  0  0  0  0  0  0  0  0  0  0  0
    1.1433    0.8223   -1.4559 H   0  0  0  0  0  0  0  0  0  0  0  0
   -0.2501    0.1916   -2.3268 H   0  0  0  0  0  0  0  0  0  0  0  0
   -0.6646    1.8166   -0.9948 C   0  0  0  0  0  0  0  0  0  0  0  0
   -0.7181    2.4983    0.2003 N   0  0  0  0  0  0  0  0  0  0  0  0
   -0.2116    2.2508    1.0521 H   0  0  0  0  0  0  0  0  0  0  0  0
   -1.5531    3.5886    0.0556 C   0  0  0  0  0  0  0  0  0  0  0  0
   -1.7816    4.3105    0.8347 H   0  0  0  0  0  0  0  0  0  0  0  0
   -2.0375    3.6201   -1.1622 N   0  0  0  0  0  0  0  0  0  0  0  0
   -1.4849    2.5320   -1.8281 C   0  0  0  0  0  0  0  0  0  0  0  0
   -1.6861    2.2783   -2.8646 H   0  0  0  0  0  0  0  0  0  0  0  0
    0.4956   -0.2710    1.0997 C   0  0  0  0  0  0  0  0  0  0  0  0
    1.6977   -0.2463    1.3257 O   0  0  0  0  0  0  0  0  0  0  0  0
   -0.3531    0.3064    2.0300 N   0  0  0  0  0  0  0  0  0  0  0  0
   -1.3448    0.1815    1.8476 H   0  0  0  0  0  0  0  0  0  0  0  0
    0.0675    0.6118    3.3927 C   0  0  0  0  0  0  0  0  0  0  0  0
    0.8877    1.3374    3.3894 H   0  0  0  0  0  0  0  0  0  0  0  0
   -0.7658    1.0372    3.9599 H   0  0  0  0  0  0  0  0  0  0  0  0
    0.4051   -0.2977    3.9011 H   0  0  0  0  0  0  0  0  0  0  0  0
  1  2  1  0  0  0  0
  2  3  1  0  0  0  0
  2  4  1  0  0  0  0
  2  5  1  0  0  0  0
  5  6  2  0  0  0  0
  5  7  1  0  0  0  0
  7  8  1  0  0  0  0
  7  9  1  0  0  0  0
  9 10  1  0  0  0  0
  9 11  1  0  0  0  0
  9 22  1  0  0  0  0
 11 12  1  0  0  0  0
 11 13  1  0  0  0  0
 11 14  1  0  0  0  0
 14 15  1  0  0  0  0
 14 20  2  0  0  0  0
 15 16  1  0  0  0  0
 15 17  1  0  0  0  0
 17 18  1  0  0  0  0
 17 19  2  0  0  0  0
 19 20  1  0  0  0  0
 20 21  1  0  0  0  0
 22 23  2  0  0  0  0
 22 24  1  0  0  0  0
 24 25  1  0  0  0  0
 24 26  1  0  0  0  0
 26 27  1  0  0  0  0
 26 28  1  0  0  0  0
 26 29  1  0  0  0  0
M  END
$$$$

  -OEChem-03222214043D

 29 29  0     1  0  0  0  0  0999 V2000
   -3.1109   -3.9680    0.5915 H   0  0  0  0  0  0  0  0  0  0  0  0
   -3.0328   -3.0230    0.0462 C   0  0  0  0  0  0  0  0  0  0  0  0
   -3.7572   -2.3175    0.4599 H   0  0  0  0  0  0  0  0  0  0  0  0
   -3.2686   -3.2042   -1.0053 H   0  0  0  0  0  0  0  0  0  0  0  0
   -1.6290   -2.4626    0.1745 C   0  0  0  0  0  0  0  0  0  0  0  0
   -0.7913   -3.0613    0.8247 O   0  0  0  0  0  0  0  0  0  0  0  0
   -1.3095   -1.2633   -0.4297 N   0  0  0  0  0  0  0  0  0  0  0  0
   -2.0519   -0.7815   -0.9288 H   0  0  0  0  0  0  0  0  0  0  0  0
    0.0133   -0.6168   -0.3517 C   0  0  1  0  0  0  0  0  0  0  0  0
    0.7338   -1.3679   -0.6954 H   0  0  0  0  0  0  0  0  0  0  0  0
    0.0982    0.5334   -1.3737 C   0  0  0  0  0  0  0  0  0  0  0  0
    1.1523    0.8079   -1.4886 H   0  0  0  0  0  0  0  0  0  0  0  0
   -0.2469    0.1725   -2.3480 H   0  0  0  0  0  0  0  0  0  0  0  0
   -0.6647    1.7804   -0.9966 C   0  0  0  0  0  0  0  0  0  0  0  0
   -0.4997    2.5841    0.1096 N   0  0  0  0  0  0  0  0  0  0  0  0
    0.1696    2.4319    0.8656 H   0  0  0  0  0  0  0  0  0  0  0  0
   -1.4140    3.6172    0.0464 C   0  0  0  0  0  0  0  0  0  0  0  0
   -1.5220    4.4037    0.7879 H   0  0  0  0  0  0  0  0  0  0  0  0
   -2.1412    3.5039   -1.0393 N   0  0  0  0  0  0  0  0  0  0  0  0
   -1.6752    2.3757   -1.7047 C   0  0  0  0  0  0  0  0  0  0  0  0
   -2.0667    2.0125   -2.6502 H   0  0  0  0  0  0  0  0  0  0  0  0
    0.4857   -0.2594    1.0761 C   0  0  0  0  0  0  0  0  0  0  0  0
    1.6844   -0.2283    1.3205 O   0  0  0  0  0  0  0  0  0  0  0  0
   -0.3764    0.3371    1.9809 N   0  0  0  0  0  0  0  0  0  0  0  0
   -1.3661    0.2698    1.7621 H   0  0  0  0  0  0  0  0  0  0  0  0
    0.0189    0.6950    3.3380 C   0  0  0  0  0  0  0  0  0  0  0  0
    0.8324    1.4279    3.3221 H   0  0  0  0  0  0  0  0  0  0  0  0
   -0.8279    1.1314    3.8763 H   0  0  0  0  0  0  0  0  0  0  0  0
    0.3566   -0.1927    3.8835 H   0  0  0  0  0  0  0  0  0  0  0  0
  1  2  1  0  0  0  0
  2  3  1  0  0  0  0
  2  4  1  0  0  0  0
  2  5  1  0  0  0  0
  5  6  2  0  0  0  0
  5  7  1  0  0  0  0
  7  8  1  0  0  0  0
  7  9  1  0  0  0  0
  9 10  1  0  0  0  0
  9 11  1  0  0  0  0
  9 22  1  0  0  0  0
 11 12  1  0  0  0  0
 11 13  1  0  0  0  0
 11 14  1  0  0  0  0
 14 15  1  0  0  0  0
 14 20  2  0  0  0  0
 15 16  1  0  0  0  0
 15 17  1  0  0  0  0
 17 18  1  0  0  0  0
 17 19  2  0  0  0  0
 19 20  1  0  0  0  0
 20 21  1  0  0  0  0
 22 23  2  0  0  0  0
 22 24  1  0  0  0  0
 24 25  1  0  0  0  0
 24 26  1  0  0  0  0
 26 27  1  0  0  0  0
 26 28  1  0  0  0  0
 26 29  1  0  0  0  0
M  END
$$$$

  -OEChem-03222214043D

 29 29  0     1  0  0  0  0  0999 V2000
   -3.1055   -3.9689    0.6155 H   0  0  0  0  0  0  0  0  0  0  0  0
   -3.0272   -3.0299    0.0599 C   0  0  0  0  0  0  0  0  0  0  0  0
   -3.7460   -2.3173    0.4711 H   0  0  0  0  0  0  0  0  0  0  0  0
   -3.2710   -3.2205   -0.9881 H   0  0  0  0  0  0  0  0  0  0  0  0
   -1.6202   -2.4740    0.1727 C   0  0  0  0  0  0  0  0  0  0  0  0
   -0.7814   -3.0683    0.8254 O   0  0  0  0  0  0  0  0  0  0  0  0
   -1.2971   -1.2884   -0.4564 N   0  0  0  0  0  0  0  0  0  0  0  0
   -2.0416   -0.8097   -0.9547 H   0  0  0  0  0  0  0  0  0  0  0  0
    0.0241   -0.6385   -0.3763 C   0  0  1  0  0  0  0  0  0  0  0  0
    0.7536   -1.3864   -0.7072 H   0  0  0  0  0  0  0  0  0  0  0  0
    0.1065    0.5148   -1.3927 C   0  0  0  0  0  0  0  0  0  0  0  0
    1.1574    0.7964   -1.5192 H   0  0  0  0  0  0  0  0  0  0  0  0
   -0.2518    0.1614   -2.3650 H   0  0  0  0  0  0  0  0  0  0  0  0
   -0.6682    1.7410   -0.9811 C   0  0  0  0  0  0  0  0  0  0  0  0
   -0.3219    2.6652   -0.0205 N   0  0  0  0  0  0  0  0  0  0  0  0
    0.4951    2.6194    0.5893 H   0  0  0  0  0  0  0  0  0  0  0  0
   -1.3015    3.6380    0.0255 C   0  0  0  0  0  0  0  0  0  0  0  0
   -1.3053    4.4902    0.6992 H   0  0  0  0  0  0  0  0  0  0  0  0
   -2.2336    3.3767   -0.8603 N   0  0  0  0  0  0  0  0  0  0  0  0
   -1.8415    2.2111   -1.5081 C   0  0  0  0  0  0  0  0  0  0  0  0
   -2.3951    1.7361   -2.3124 H   0  0  0  0  0  0  0  0  0  0  0  0
    0.4742   -0.2485    1.0505 C   0  0  0  0  0  0  0  0  0  0  0  0
    1.6687   -0.2190    1.3164 O   0  0  0  0  0  0  0  0  0  0  0  0
   -0.4036    0.3673    1.9262 N   0  0  0  0  0  0  0  0  0  0  0  0
   -1.3846    0.3617    1.6642 H   0  0  0  0  0  0  0  0  0  0  0  0
   -0.0319    0.7940    3.2691 C   0  0  0  0  0  0  0  0  0  0  0  0
    0.7651    1.5436    3.2280 H   0  0  0  0  0  0  0  0  0  0  0  0
   -0.8943    1.2346    3.7783 H   0  0  0  0  0  0  0  0  0  0  0  0
    0.3185   -0.0609    3.8571 H   0  0  0  0  0  0  0  0  0  0  0  0
  1  2  1  0  0  0  0
  2  3  1  0  0  0  0
  2  4  1  0  0  0  0
  2  5  1  0  0  0  0
  5  6  2  0  0  0  0
  5  7  1  0  0  0  0
  7  8  1  0  0  0  0
  7  9  1  0  0  0  0
  9 10  1  0  0  0  0
  9 11  1  0  0  0  0
  9 22  1  0  0  0  0
 11 12  1  0  0  0  0
 11 13  1  0  0  0  0
 11 14  1  0  0  0  0
 14 15  1  0  0  0  0
 14 20  2  0  0  0  0
 15 16  1  0  0  0  0
 15 17  1  0  0  0  0
 17 18  1  0  0  0  0
 17 19  2  0  0  0  0
 19 20  1  0  0  0  0
 20 21  1  0  0  0  0
 22 23  2  0  0  0  0
 22 24  1  0  0  0  0
 24 25  1  0  0  0  0
 24 26  1  0  0  0  0
 26 27  1  0  0  0  0
 26 28  1  0  0  0  0
 26 29  1  0  0  0  0
M  END
$$$$

  -OEChem-03222214043D

 29 29  0     1  0  0  0  0  0999 V2000
   -3.1075   -3.9789    0.6156 H   0  0  0  0  0  0  0  0  0  0  0  0
   -3.0279   -3.0435    0.0545 C   0  0  0  0  0  0  0  0  0  0  0  0
   -3.7476   -2.3284    0.4601 H   0  0  0  0  0  0  0  0  0  0  0  0
   -3.2687   -3.2408   -0.9928 H   0  0  0  0  0  0  0  0  0  0  0  0
   -1.6209   -2.4874    0.1670 C   0  0  0  0  0  0  0  0  0  0  0  0
   -0.7843   -3.0781    0.8258 O   0  0  0  0  0  0  0  0  0  0  0  0
   -1.2937   -1.3107   -0.4766 N   0  0  0  0  0  0  0  0  0  0  0  0
   -2.0355   -0.8387   -0.9841 H   0  0  0  0  0  0  0  0  0  0  0  0
    0.0265   -0.6588   -0.3901 C   0  0  1  0  0  0  0  0  0  0  0  0
    0.7617   -1.4042   -0.7138 H   0  0  0  0  0  0  0  0  0  0  0  0
    0.1111    0.5013   -1.3968 C   0  0  0  0  0  0  0  0  0  0  0  0
    1.1601    0.7881   -1.5270 H   0  0  0  0  0  0  0  0  0  0  0  0
   -0.2543    0.1598   -2.3706 H   0  0  0  0  0  0  0  0  0  0  0  0
   -0.6730    1.7096   -0.9550 C   0  0  0  0  0  0  0  0  0  0  0  0
   -0.2148    2.7592   -0.1905 N   0  0  0  0  0  0  0  0  0  0  0  0
    0.7068    2.8323    0.2399 H   0  0  0  0  0  0  0  0  0  0  0  0
   -1.2440    3.6679   -0.0363 C   0  0  0  0  0  0  0  0  0  0  0  0
   -1.1840    4.5892    0.5361 H   0  0  0  0  0  0  0  0  0  0  0  0
   -2.3107    3.2509   -0.6774 N   0  0  0  0  0  0  0  0  0  0  0  0
   -1.9614    2.0455   -1.2736 C   0  0  0  0  0  0  0  0  0  0  0  0
   -2.6224    1.4505   -1.8967 H   0  0  0  0  0  0  0  0  0  0  0  0
    0.4644   -0.2454    1.0347 C   0  0  0  0  0  0  0  0  0  0  0  0
    1.6560   -0.2317    1.3162 O   0  0  0  0  0  0  0  0  0  0  0  0
   -0.4206    0.3854    1.8925 N   0  0  0  0  0  0  0  0  0  0  0  0
   -1.3897    0.4403    1.5949 H   0  0  0  0  0  0  0  0  0  0  0  0
   -0.0524    0.8833    3.2112 C   0  0  0  0  0  0  0  0  0  0  0  0
    0.7263    1.6486    3.1295 H   0  0  0  0  0  0  0  0  0  0  0  0
   -0.9228    1.3267    3.7039 H   0  0  0  0  0  0  0  0  0  0  0  0
    0.3206    0.0653    3.8367 H   0  0  0  0  0  0  0  0  0  0  0  0
  1  2  1  0  0  0  0
  2  3  1  0  0  0  0
  2  4  1  0  0  0  0
  2  5  1  0  0  0  0
  5  6  2  0  0  0  0
  5  7  1  0  0  0  0
  7  8  1  0  0  0  0
  7  9  1  0  0  0  0
  9 10  1  0  0  0  0
  9 11  1  0  0  0  0
  9 22  1  0  0  0  0
 11 12  1  0  0  0  0
 11 13  1  0  0  0  0
 11 14  1  0  0  0  0
 14 15  1  0  0  0  0
 14 20  2  0  0  0  0
 15 16  1  0  0  0  0
 15 17  1  0  0  0  0
 17 18  1  0  0  0  0
 17 19  2  0  0  0  0
 19 20  1  0  0  0  0
 20 21  1  0  0  0  0
 22 23  2  0  0  0  0
 22 24  1  0  0  0  0
 24 25  1  0  0  0  0
 24 26  1  0  0  0  0
 26 27  1  0  0  0  0
 26 28  1  0  0  0  0
 26 29  1  0  0  0  0
M  END
$$$$

  -OEChem-03222214043D

 29 29  0     1  0  0  0  0  0999 V2000
   -3.1093   -4.0063    0.5906 H   0  0  0  0  0  0  0  0  0  0  0  0
   -3.0283   -3.0711    0.0294 C   0  0  0  0  0  0  0  0  0  0  0  0
   -3.7659   -2.3641    0.4164 H   0  0  0  0  0  0  0  0  0  0  0  0
   -3.2428   -3.2736   -1.0227 H   0  0  0  0  0  0  0  0  0  0  0  0
   -1.6320   -2.4962    0.1745 C   0  0  0  0  0  0  0  0  0  0  0  0
   -0.8083   -3.0673    0.8660 O   0  0  0  0  0  0  0  0  0  0  0  0
   -1.3011   -1.3254   -0.4782 N   0  0  0  0  0  0  0  0  0  0  0  0
   -2.0214   -0.8940   -1.0485 H   0  0  0  0  0  0  0  0  0  0  0  0
    0.0187   -0.6724   -0.3899 C   0  0  1  0  0  0  0  0  0  0  0  0
    0.7561   -1.4170   -0.7102 H   0  0  0  0  0  0  0  0  0  0  0  0
    0.1046    0.4924   -1.3914 C   0  0  0  0  0  0  0  0  0  0  0  0
    1.1542    0.7787   -1.5183 H   0  0  0  0  0  0  0  0  0  0  0  0
   -0.2607    0.1597   -2.3683 H   0  0  0  0  0  0  0  0  0  0  0  0
   -0.6809    1.6969   -0.9401 C   0  0  0  0  0  0  0  0  0  0  0  0
   -0.1709    2.8655   -0.4214 N   0  0  0  0  0  0  0  0  0  0  0  0
    0.8085    3.0542   -0.2117 H   0  0  0  0  0  0  0  0  0  0  0  0
   -1.2243    3.7167   -0.1475 C   0  0  0  0  0  0  0  0  0  0  0  0
   -1.1298    4.7065    0.2902 H   0  0  0  0  0  0  0  0  0  0  0  0
   -2.3592    3.1516   -0.4874 N   0  0  0  0  0  0  0  0  0  0  0  0
   -2.0333    1.9033   -1.0011 C   0  0  0  0  0  0  0  0  0  0  0  0
   -2.7544    1.1887   -1.3859 H   0  0  0  0  0  0  0  0  0  0  0  0
    0.4544   -0.2434    1.0314 C   0  0  0  0  0  0  0  0  0  0  0  0
    1.6446   -0.2482    1.3199 O   0  0  0  0  0  0  0  0  0  0  0  0
   -0.4304    0.3979    1.8815 N   0  0  0  0  0  0  0  0  0  0  0  0
   -1.3899    0.4921    1.5637 H   0  0  0  0  0  0  0  0  0  0  0  0
   -0.0544    0.9456    3.1779 C   0  0  0  0  0  0  0  0  0  0  0  0
    0.7024    1.7279    3.0591 H   0  0  0  0  0  0  0  0  0  0  0  0
   -0.9281    1.3812    3.6720 H   0  0  0  0  0  0  0  0  0  0  0  0
    0.3501    0.1577    3.8222 H   0  0  0  0  0  0  0  0  0  0  0  0
  1  2  1  0  0  0  0
  2  3  1  0  0  0  0
  2  4  1  0  0  0  0
  2  5  1  0  0  0  0
  5  6  2  0  0  0  0
  5  7  1  0  0  0  0
  7  8  1  0  0  0  0
  7  9  1  0  0  0  0
  9 10  1  0  0  0  0
  9 11  1  0  0  0  0
  9 22  1  0  0  0  0
 11 12  1  0  0  0  0
 11 13  1  0  0  0  0
 11 14  1  0  0  0  0
 14 15  1  0  0  0  0
 14 20  2  0  0  0  0
 15 16  1  0  0  0  0
 15 17  1  0  0  0  0
 17 18  1  0  0  0  0
 17 19  2  0  0  0  0
 19 20  1  0  0  0  0
 20 21  1  0  0  0  0
 22 23  2  0  0  0  0
 22 24  1  0  0  0  0
 24 25  1  0  0  0  0
 24 26  1  0  0  0  0
 26 27  1  0  0  0  0
 26 28  1  0  0  0  0
 26 29  1  0  0  0  0
M  END
$$$$

  -OEChem-03222214043D

 29 29  0     1  0  0  0  0  0999 V2000
   -3.0967   -4.0587    0.5496 H   0  0  0  0  0  0  0  0  0  0  0  0
   -3.0210   -3.1216   -0.0096 C   0  0  0  0  0  0  0  0  0  0  0  0
   -3.7948   -2.4370    0.3457 H   0  0  0  0  0  0  0  0  0  0  0  0
   -3.1858   -3.3310   -1.0692 H   0  0  0  0  0  0  0  0  0  0  0  0
   -1.6494   -2.5049    0.1905 C   0  0  0  0  0  0  0  0  0  0  0  0
   -0.8399   -3.0483    0.9196 O   0  0  0  0  0  0  0  0  0  0  0  0
   -1.3227   -1.3326   -0.4620 N   0  0  0  0  0  0  0  0  0  0  0  0
   -2.0126   -0.9541   -1.1032 H   0  0  0  0  0  0  0  0  0  0  0  0
   -0.0047   -0.6758   -0.3741 C   0  0  1  0  0  0  0  0  0  0  0  0
    0.7322   -1.4205   -0.6954 H   0  0  0  0  0  0  0  0  0  0  0  0
    0.0812    0.4906   -1.3749 C   0  0  0  0  0  0  0  0  0  0  0  0
    1.1338    0.7721   -1.4870 H   0  0  0  0  0  0  0  0  0  0  0  0
   -0.2708    0.1604   -2.3572 H   0  0  0  0  0  0  0  0  0  0  0  0
   -0.7013    1.7065   -0.9412 C   0  0  0  0  0  0  0  0  0  0  0  0
   -0.1990    2.9669   -0.7063 N   0  0  0  0  0  0  0  0  0  0  0  0
    0.7807    3.2429   -0.7505 H   0  0  0  0  0  0  0  0  0  0  0  0
   -1.2417    3.7891   -0.3222 C   0  0  0  0  0  0  0  0  0  0  0  0
   -1.1454    4.8380   -0.0555 H   0  0  0  0  0  0  0  0  0  0  0  0
   -2.3684    3.1167   -0.3228 N   0  0  0  0  0  0  0  0  0  0  0  0
   -2.0483    1.8248   -0.7175 C   0  0  0  0  0  0  0  0  0  0  0  0
   -2.7698    1.0207   -0.8234 H   0  0  0  0  0  0  0  0  0  0  0  0
    0.4412   -0.2420    1.0426 C   0  0  0  0  0  0  0  0  0  0  0  0
    1.6340   -0.2547    1.3206 O   0  0  0  0  0  0  0  0  0  0  0  0
   -0.4338    0.4006    1.9014 N   0  0  0  0  0  0  0  0  0  0  0  0
   -1.3977    0.4943    1.5977 H   0  0  0  0  0  0  0  0  0  0  0  0
   -0.0357    0.9671    3.1830 C   0  0  0  0  0  0  0  0  0  0  0  0
    0.7110    1.7546    3.0379 H   0  0  0  0  0  0  0  0  0  0  0  0
   -0.9025    1.4010    3.6903 H   0  0  0  0  0  0  0  0  0  0  0  0
    0.3894    0.1912    3.8282 H   0  0  0  0  0  0  0  0  0  0  0  0
  1  2  1  0  0  0  0
  2  3  1  0  0  0  0
  2  4  1  0  0  0  0
  2  5  1  0  0  0  0
  5  6  2  0  0  0  0
  5  7  1  0  0  0  0
  7  8  1  0  0  0  0
  7  9  1  0  0  0  0
  9 10  1  0  0  0  0
  9 11  1  0  0  0  0
  9 22  1  0  0  0  0
 11 12  1  0  0  0  0
 11 13  1  0  0  0  0
 11 14  1  0  0  0  0
 14 15  1  0  0  0  0
 14 20  2  0  0  0  0
 15 16  1  0  0  0  0
 15 17  1  0  0  0  0
 17 18  1  0  0  0  0
 17 19  2  0  0  0  0
 19 20  1  0  0  0  0
 20 21  1  0  0  0  0
 22 23  2  0  0  0  0
 22 24  1  0  0  0  0
 24 25  1  0  0  0  0
 24 26  1  0  0  0  0
 26 27  1  0  0  0  0
 26 28  1  0  0  0  0
 26 29  1  0  0  0  0
M  END
$$$$

  -OEChem-03222214043D

 29 29  0     1  0  0  0  0  0999 V2000
   -3.0595   -4.1009    0.5341 H   0  0  0  0  0  0  0  0  0  0  0  0
   -2.9999   -3.1571   -0.0154 C   0  0  0  0  0  0  0  0  0  0  0  0
   -3.7850   -2.4893    0.3467 H   0  0  0  0  0  0  0  0  0  0  0  0
   -3.1612   -3.3584   -1.0770 H   0  0  0  0  0  0  0  0  0  0  0  0
   -1.6395   -2.5190    0.1922 C   0  0  0  0  0  0  0  0  0  0  0  0
   -0.8234   -3.0525    0.9211 O   0  0  0  0  0  0  0  0  0  0  0  0
   -1.3331   -1.3334   -0.4460 N   0  0  0  0  0  0  0  0  0  0  0  0
   -2.0258   -0.9641   -1.0902 H   0  0  0  0  0  0  0  0  0  0  0  0
   -0.0232   -0.6605   -0.3578 C   0  0  1  0  0  0  0  0  0  0  0  0
    0.7178   -1.3979   -0.6867 H   0  0  0  0  0  0  0  0  0  0  0  0
    0.0536    0.5055   -1.3611 C   0  0  0  0  0  0  0  0  0  0  0  0
    1.1069    0.7921   -1.4552 H   0  0  0  0  0  0  0  0  0  0  0  0
   -0.2777    0.1677   -2.3480 H   0  0  0  0  0  0  0  0  0  0  0  0
   -0.7342    1.7318   -0.9609 C   0  0  0  0  0  0  0  0  0  0  0  0
   -0.2986    3.0368   -1.0260 N   0  0  0  0  0  0  0  0  0  0  0  0
    0.6244    3.3500   -1.3217 H   0  0  0  0  0  0  0  0  0  0  0  0
   -1.3064    3.8611   -0.5622 C   0  0  0  0  0  0  0  0  0  0  0  0
   -1.2429    4.9429   -0.4853 H   0  0  0  0  0  0  0  0  0  0  0  0
   -2.3537    3.1465   -0.2262 N   0  0  0  0  0  0  0  0  0  0  0  0
   -2.0124    1.8239   -0.4723 C   0  0  0  0  0  0  0  0  0  0  0  0
   -2.6741    0.9825   -0.2947 H   0  0  0  0  0  0  0  0  0  0  0  0
    0.4354   -0.2372    1.0579 C   0  0  0  0  0  0  0  0  0  0  0  0
    1.6317   -0.2470    1.3200 O   0  0  0  0  0  0  0  0  0  0  0  0
   -0.4324    0.3847    1.9388 N   0  0  0  0  0  0  0  0  0  0  0  0
   -1.4112    0.4277    1.6757 H   0  0  0  0  0  0  0  0  0  0  0  0
   -0.0244    0.9145    3.2332 C   0  0  0  0  0  0  0  0  0  0  0  0
    0.7354    1.6927    3.1069 H   0  0  0  0  0  0  0  0  0  0  0  0
   -0.8839    1.3519    3.7502 H   0  0  0  0  0  0  0  0  0  0  0  0
    0.3880    0.1167    3.8598 H   0  0  0  0  0  0  0  0  0  0  0  0
  1  2  1  0  0  0  0
  2  3  1  0  0  0  0
  2  4  1  0  0  0  0
  2  5  1  0  0  0  0
  5  6  2  0  0  0  0
  5  7  1  0  0  0  0
  7  8  1  0  0  0  0
  7  9  1  0  0  0  0
  9 10  1  0  0  0  0
  9 11  1  0  0  0  0
  9 22  1  0  0  0  0
 11 12  1  0  0  0  0
 11 13  1  0  0  0  0
 11 14  1  0  0  0  0
 14 15  1  0  0  0  0
 14 20  2  0  0  0  0
 15 16  1  0  0  0  0
 15 17  1  0  0  0  0
 17 18  1  0  0  0  0
 17 19  2  0  0  0  0
 19 20  1  0  0  0  0
 20 21  1  0  0  0  0
 22 23  2  0  0  0  0
 22 24  1  0  0  0  0
 24 25  1  0  0  0  0
 24 26  1  0  0  0  0
 26 27  1  0  0  0  0
 26 28  1  0  0  0  0
 26 29  1  0  0  0  0
M  END
$$$$

  -OEChem-03222214043D

 29 29  0     1  0  0  0  0  0999 V2000
   -3.0222   -4.1311    0.5182 H   0  0  0  0  0  0  0  0  0  0  0  0
   -2.9812   -3.1747   -0.0109 C   0  0  0  0  0  0  0  0  0  0  0  0
   -3.7639   -2.5220    0.3829 H   0  0  0  0  0  0  0  0  0  0  0  0
   -3.1632   -3.3535   -1.0733 H   0  0  0  0  0  0  0  0  0  0  0  0
   -1.6220   -2.5297    0.1834 C   0  0  0  0  0  0  0  0  0  0  0  0
   -0.7872   -3.0717    0.8844 O   0  0  0  0  0  0  0  0  0  0  0  0
   -1.3399   -1.3234   -0.4263 N   0  0  0  0  0  0  0  0  0  0  0  0
   -2.0535   -0.9348   -1.0357 H   0  0  0  0  0  0  0  0  0  0  0  0
   -0.0392   -0.6334   -0.3358 C   0  0  1  0  0  0  0  0  0  0  0  0
    0.7036   -1.3634   -0.6777 H   0  0  0  0  0  0  0  0  0  0  0  0
    0.0297    0.5311   -1.3420 C   0  0  0  0  0  0  0  0  0  0  0  0
    1.0815    0.8262   -1.4240 H   0  0  0  0  0  0  0  0  0  0  0  0
   -0.2856    0.1823   -2.3303 H   0  0  0  0  0  0  0  0  0  0  0  0
   -0.7665    1.7631   -0.9743 C   0  0  0  0  0  0  0  0  0  0  0  0
   -0.4526    3.0585   -1.3232 N   0  0  0  0  0  0  0  0  0  0  0  0
    0.3740    3.3606   -1.8357 H   0  0  0  0  0  0  0  0  0  0  0  0
   -1.4246    3.9010   -0.8169 C   0  0  0  0  0  0  0  0  0  0  0  0
   -1.4337    4.9819   -0.9267 H   0  0  0  0  0  0  0  0  0  0  0  0
   -2.3385    3.2050   -0.1847 N   0  0  0  0  0  0  0  0  0  0  0  0
   -1.9412    1.8779   -0.2751 C   0  0  0  0  0  0  0  0  0  0  0  0
   -2.4974    1.0478    0.1480 H   0  0  0  0  0  0  0  0  0  0  0  0
    0.4392   -0.2364    1.0810 C   0  0  0  0  0  0  0  0  0  0  0  0
    1.6407   -0.2303    1.3179 O   0  0  0  0  0  0  0  0  0  0  0  0
   -0.4191    0.3517    1.9936 N   0  0  0  0  0  0  0  0  0  0  0  0
   -1.4102    0.3246    1.7802 H   0  0  0  0  0  0  0  0  0  0  0  0
    0.0056    0.8302    3.3026 C   0  0  0  0  0  0  0  0  0  0  0  0
    0.7769    1.6003    3.1978 H   0  0  0  0  0  0  0  0  0  0  0  0
   -0.8432    1.2646    3.8390 H   0  0  0  0  0  0  0  0  0  0  0  0
    0.4086    0.0050    3.8992 H   0  0  0  0  0  0  0  0  0  0  0  0
  1  2  1  0  0  0  0
  2  3  1  0  0  0  0
  2  4  1  0  0  0  0
  2  5  1  0  0  0  0
  5  6  2  0  0  0  0
  5  7  1  0  0  0  0
  7  8  1  0  0  0  0
  7  9  1  0  0  0  0
  9 10  1  0  0  0  0
  9 11  1  0  0  0  0
  9 22  1  0  0  0  0
 11 12  1  0  0  0  0
 11 13  1  0  0  0  0
 11 14  1  0  0  0  0
 14 15  1  0  0  0  0
 14 20  2  0  0  0  0
 15 16  1  0  0  0  0
 15 17  1  0  0  0  0
 17 18  1  0  0  0  0
 17 19  2  0  0  0  0
 19 20  1  0  0  0  0
 20 21  1  0  0  0  0
 22 23  2  0  0  0  0
 22 24  1  0  0  0  0
 24 25  1  0  0  0  0
 24 26  1  0  0  0  0
 26 27  1  0  0  0  0
 26 28  1  0  0  0  0
 26 29  1  0  0  0  0
M  END
$$$$

  -OEChem-03222214043D

 29 29  0     1  0  0  0  0  0999 V2000
   -3.0019   -4.1493    0.4928 H   0  0  0  0  0  0  0  0  0  0  0  0
   -2.9707   -3.1849   -0.0221 C   0  0  0  0  0  0  0  0  0  0  0  0
   -3.7566   -2.5441    0.3843 H   0  0  0  0  0  0  0  0  0  0  0  0
   -3.1557   -3.3490   -1.0863 H   0  0  0  0  0  0  0  0  0  0  0  0
   -1.6155   -2.5328    0.1753 C   0  0  0  0  0  0  0  0  0  0  0  0
   -0.7681   -3.0848    0.8531 O   0  0  0  0  0  0  0  0  0  0  0  0
   -1.3531   -1.3053   -0.3994 N   0  0  0  0  0  0  0  0  0  0  0  0
   -2.0826   -0.8988   -0.9783 H   0  0  0  0  0  0  0  0  0  0  0  0
   -0.0589   -0.6048   -0.3057 C   0  0  1  0  0  0  0  0  0  0  0  0
    0.6797   -1.3306   -0.6647 H   0  0  0  0  0  0  0  0  0  0  0  0
    0.0079    0.5590   -1.3131 C   0  0  0  0  0  0  0  0  0  0  0  0
    1.0589    0.8581   -1.3916 H   0  0  0  0  0  0  0  0  0  0  0  0
   -0.2995    0.2000   -2.3002 H   0  0  0  0  0  0  0  0  0  0  0  0
   -0.7933    1.7952   -0.9697 C   0  0  0  0  0  0  0  0  0  0  0  0
   -0.6423    3.0291   -1.5644 N   0  0  0  0  0  0  0  0  0  0  0  0
    0.0647    3.2829   -2.2519 H   0  0  0  0  0  0  0  0  0  0  0  0
   -1.5844    3.8940   -1.0401 C   0  0  0  0  0  0  0  0  0  0  0  0
   -1.6929    4.9402   -1.3124 H   0  0  0  0  0  0  0  0  0  0  0  0
   -2.3346    3.2654   -0.1683 N   0  0  0  0  0  0  0  0  0  0  0  0
   -1.8562    1.9628   -0.1181 C   0  0  0  0  0  0  0  0  0  0  0  0
   -2.2944    1.1817    0.4937 H   0  0  0  0  0  0  0  0  0  0  0  0
    0.4499   -0.2403    1.1095 C   0  0  0  0  0  0  0  0  0  0  0  0
    1.6578   -0.2161    1.3096 O   0  0  0  0  0  0  0  0  0  0  0  0
   -0.3870    0.3143    2.0615 N   0  0  0  0  0  0  0  0  0  0  0  0
   -1.3844    0.2294    1.8991 H   0  0  0  0  0  0  0  0  0  0  0  0
    0.0735    0.7570    3.3714 C   0  0  0  0  0  0  0  0  0  0  0  0
    0.8412    1.5308    3.2667 H   0  0  0  0  0  0  0  0  0  0  0  0
   -0.7601    1.1755    3.9432 H   0  0  0  0  0  0  0  0  0  0  0  0
    0.4937   -0.0838    3.9333 H   0  0  0  0  0  0  0  0  0  0  0  0
  1  2  1  0  0  0  0
  2  3  1  0  0  0  0
  2  4  1  0  0  0  0
  2  5  1  0  0  0  0
  5  6  2  0  0  0  0
  5  7  1  0  0  0  0
  7  8  1  0  0  0  0
  7  9  1  0  0  0  0
  9 10  1  0  0  0  0
  9 11  1  0  0  0  0
  9 22  1  0  0  0  0
 11 12  1  0  0  0  0
 11 13  1  0  0  0  0
 11 14  1  0  0  0  0
 14 15  1  0  0  0  0
 14 20  2  0  0  0  0
 15 16  1  0  0  0  0
 15 17  1  0  0  0  0
 17 18  1  0  0  0  0
 17 19  2  0  0  0  0
 19 20  1  0  0  0  0
 20 21  1  0  0  0  0
 22 23  2  0  0  0  0
 22 24  1  0  0  0  0
 24 25  1  0  0  0  0
 24 26  1  0  0  0  0
 26 27  1  0  0  0  0
 26 28  1  0  0  0  0
 26 29  1  0  0  0  0
M  END
$$$$

  -OEChem-03222214043D

 29 29  0     1  0  0  0  0  0999 V2000
   -3.0344   -4.1442    0.3033 H   0  0  0  0  0  0  0  0  0  0  0  0
   -3.0074   -3.1431   -0.1367 C   0  0  0  0  0  0  0  0  0  0  0  0
   -3.7802   -2.5315    0.3349 H   0  0  0  0  0  0  0  0  0  0  0  0
   -3.2161   -3.2238   -1.2062 H   0  0  0  0  0  0  0  0  0  0  0  0
   -1.6435   -2.5152    0.0789 C   0  0  0  0  0  0  0  0  0  0  0  0
   -0.7720   -3.1383    0.6574 O   0  0  0  0  0  0  0  0  0  0  0  0
   -1.3986   -1.2323   -0.3688 N   0  0  0  0  0  0  0  0  0  0  0  0
   -2.1614   -0.7506   -0.8361 H   0  0  0  0  0  0  0  0  0  0  0  0
   -0.1067   -0.5351   -0.2347 C   0  0  1  0  0  0  0  0  0  0  0  0
    0.6061   -1.2678   -0.6316 H   0  0  0  0  0  0  0  0  0  0  0  0
    0.0170    0.6313   -1.2390 C   0  0  0  0  0  0  0  0  0  0  0  0
    1.0842    0.7352   -1.4642 H   0  0  0  0  0  0  0  0  0  0  0  0
   -0.4785    0.3461   -2.1722 H   0  0  0  0  0  0  0  0  0  0  0  0
   -0.4682    2.0083   -0.8372 C   0  0  0  0  0  0  0  0  0  0  0  0
   -0.3941    3.1086   -1.6661 N   0  0  0  0  0  0  0  0  0  0  0  0
    0.0739    3.1484   -2.5693 H   0  0  0  0  0  0  0  0  0  0  0  0
   -1.0146    4.1788   -1.0523 C   0  0  0  0  0  0  0  0  0  0  0  0
   -1.0850    5.1819   -1.4631 H   0  0  0  0  0  0  0  0  0  0  0  0
   -1.5148    3.8039    0.0978 N   0  0  0  0  0  0  0  0  0  0  0  0
   -1.1945    2.4591    0.2383 C   0  0  0  0  0  0  0  0  0  0  0  0
   -1.5415    1.8567    1.0663 H   0  0  0  0  0  0  0  0  0  0  0  0
    0.4529   -0.3074    1.1896 C   0  0  0  0  0  0  0  0  0  0  0  0
    1.6673   -0.2910    1.3446 O   0  0  0  0  0  0  0  0  0  0  0  0
   -0.3451    0.1417    2.2261 N   0  0  0  0  0  0  0  0  0  0  0  0
   -1.3485    0.0619    2.0989 H   0  0  0  0  0  0  0  0  0  0  0  0
    0.1711    0.4684    3.5498 C   0  0  0  0  0  0  0  0  0  0  0  0
    0.8977    1.2854    3.4860 H   0  0  0  0  0  0  0  0  0  0  0  0
   -0.6449    0.7842    4.2068 H   0  0  0  0  0  0  0  0  0  0  0  0
    0.6594   -0.4042    3.9964 H   0  0  0  0  0  0  0  0  0  0  0  0
  1  2  1  0  0  0  0
  2  3  1  0  0  0  0
  2  4  1  0  0  0  0
  2  5  1  0  0  0  0
  5  6  2  0  0  0  0
  5  7  1  0  0  0  0
  7  8  1  0  0  0  0
  7  9  1  0  0  0  0
  9 10  1  0  0  0  0
  9 11  1  0  0  0  0
  9 22  1  0  0  0  0
 11 12  1  0  0  0  0
 11 13  1  0  0  0  0
 11 14  1  0  0  0  0
 14 15  1  0  0  0  0
 14 20  2  0  0  0  0
 15 16  1  0  0  0  0
 15 17  1  0  0  0  0
 17 18  1  0  0  0  0
 17 19  2  0  0  0  0
 19 20  1  0  0  0  0
 20 21  1  0  0  0  0
 22 23  2  0  0  0  0
 22 24  1  0  0  0  0
 24 25  1  0  0  0  0
 24 26  1  0  0  0  0
 26 27  1  0  0  0  0
 26 28  1  0  0  0  0
 26 29  1  0  0  0  0
M  END
$$$$

  -OEChem-03222214043D

 29 29  0     1  0  0  0  0  0999 V2000
   -2.9094   -4.1952    0.3809 H   0  0  0  0  0  0  0  0  0  0  0  0
   -2.9290   -3.1843   -0.0365 C   0  0  0  0  0  0  0  0  0  0  0  0
   -3.6787   -2.5972    0.4991 H   0  0  0  0  0  0  0  0  0  0  0  0
   -3.2075   -3.2455   -1.0914 H   0  0  0  0  0  0  0  0  0  0  0  0
   -1.5640   -2.5372    0.1027 C   0  0  0  0  0  0  0  0  0  0  0  0
   -0.6473   -3.1562    0.6113 O   0  0  0  0  0  0  0  0  0  0  0  0
   -1.3686   -1.2433   -0.3383 N   0  0  0  0  0  0  0  0  0  0  0  0
   -2.1730   -0.7606   -0.7283 H   0  0  0  0  0  0  0  0  0  0  0  0
   -0.0919   -0.5112   -0.2439 C   0  0  1  0  0  0  0  0  0  0  0  0
    0.6331   -1.2146   -0.6703 H   0  0  0  0  0  0  0  0  0  0  0  0
   -0.0516    0.6644   -1.2484 C   0  0  0  0  0  0  0  0  0  0  0  0
    0.9976    0.7957   -1.5351 H   0  0  0  0  0  0  0  0  0  0  0  0
   -0.5870    0.3512   -2.1500 H   0  0  0  0  0  0  0  0  0  0  0  0
   -0.5548    2.0409   -0.8589 C   0  0  0  0  0  0  0  0  0  0  0  0
   -0.8138    3.0151   -1.8018 N   0  0  0  0  0  0  0  0  0  0  0  0
   -0.6625    2.9333   -2.8050 H   0  0  0  0  0  0  0  0  0  0  0  0
   -1.2817    4.1489   -1.1681 C   0  0  0  0  0  0  0  0  0  0  0  0
   -1.5631    5.0739   -1.6633 H   0  0  0  0  0  0  0  0  0  0  0  0
   -1.3413    3.9427    0.1221 N   0  0  0  0  0  0  0  0  0  0  0  0
   -0.8824    2.6470    0.3311 C   0  0  0  0  0  0  0  0  0  0  0  0
   -0.8128    2.2116    1.3158 H   0  0  0  0  0  0  0  0  0  0  0  0
    0.4796   -0.3031    1.1766 C   0  0  0  0  0  0  0  0  0  0  0  0
    1.6937   -0.2570    1.3245 O   0  0  0  0  0  0  0  0  0  0  0  0
   -0.3276    0.0992    2.2255 N   0  0  0  0  0  0  0  0  0  0  0  0
   -1.3299    0.0149    2.0912 H   0  0  0  0  0  0  0  0  0  0  0  0
    0.1821    0.3936    3.5593 C   0  0  0  0  0  0  0  0  0  0  0  0
    0.9141    1.2073    3.5195 H   0  0  0  0  0  0  0  0  0  0  0  0
   -0.6361    0.6999    4.2178 H   0  0  0  0  0  0  0  0  0  0  0  0
    0.6620   -0.4915    3.9894 H   0  0  0  0  0  0  0  0  0  0  0  0
  1  2  1  0  0  0  0
  2  3  1  0  0  0  0
  2  4  1  0  0  0  0
  2  5  1  0  0  0  0
  5  6  2  0  0  0  0
  5  7  1  0  0  0  0
  7  8  1  0  0  0  0
  7  9  1  0  0  0  0
  9 10  1  0  0  0  0
  9 11  1  0  0  0  0
  9 22  1  0  0  0  0
 11 12  1  0  0  0  0
 11 13  1  0  0  0  0
 11 14  1  0  0  0  0
 14 15  1  0  0  0  0
 14 20  2  0  0  0  0
 15 16  1  0  0  0  0
 15 17  1  0  0  0  0
 17 18  1  0  0  0  0
 17 19  2  0  0  0  0
 19 20  1  0  0  0  0
 20 21  1  0  0  0  0
 22 23  2  0  0  0  0
 22 24  1  0  0  0  0
 24 25  1  0  0  0  0
 24 26  1  0  0  0  0
 26 27  1  0  0  0  0
 26 28  1  0  0  0  0
 26 29  1  0  0  0  0
M  END
$$$$

  -OEChem-03222214043D

 29 29  0     1  0  0  0  0  0999 V2000
   -3.0238   -4.0987    0.5039 H   0  0  0  0  0  0  0  0  0  0  0  0
   -2.9940   -3.1195    0.0173 C   0  0  0  0  0  0  0  0  0  0  0  0
   -3.7142   -2.4615    0.5092 H   0  0  0  0  0  0  0  0  0  0  0  0
   -3.2751   -3.2397   -1.0316 H   0  0  0  0  0  0  0  0  0  0  0  0
   -1.5992   -2.5314    0.1161 C   0  0  0  0  0  0  0  0  0  0  0  0
   -0.7067   -3.1732    0.6390 O   0  0  0  0  0  0  0  0  0  0  0  0
   -1.3484   -1.2682   -0.3833 N   0  0  0  0  0  0  0  0  0  0  0  0
   -2.1358   -0.7611   -0.7763 H   0  0  0  0  0  0  0  0  0  0  0  0
   -0.0498   -0.5752   -0.2817 C   0  0  1  0  0  0  0  0  0  0  0  0
    0.6812   -1.2887   -0.6800 H   0  0  0  0  0  0  0  0  0  0  0  0
   -0.0070    0.6082   -1.2787 C   0  0  0  0  0  0  0  0  0  0  0  0
    1.0380    0.7325   -1.5824 H   0  0  0  0  0  0  0  0  0  0  0  0
   -0.5603    0.3166   -2.1767 H   0  0  0  0  0  0  0  0  0  0  0  0
   -0.4871    1.9780   -0.8414 C   0  0  0  0  0  0  0  0  0  0  0  0
   -1.0509    2.8943   -1.7061 N   0  0  0  0  0  0  0  0  0  0  0  0
   -1.2354    2.7507   -2.6967 H   0  0  0  0  0  0  0  0  0  0  0  0
   -1.3000    4.0680   -1.0222 C   0  0  0  0  0  0  0  0  0  0  0  0
   -1.7578    4.9567   -1.4475 H   0  0  0  0  0  0  0  0  0  0  0  0
   -0.9016    3.9526    0.2184 N   0  0  0  0  0  0  0  0  0  0  0  0
   -0.3583    2.6778    0.3361 C   0  0  0  0  0  0  0  0  0  0  0  0
    0.1371    2.3280    1.2332 H   0  0  0  0  0  0  0  0  0  0  0  0
    0.4407   -0.3362    1.1631 C   0  0  0  0  0  0  0  0  0  0  0  0
    1.6417   -0.3393    1.3967 O   0  0  0  0  0  0  0  0  0  0  0  0
   -0.4259    0.1333    2.1356 N   0  0  0  0  0  0  0  0  0  0  0  0
   -1.4154    0.1336    1.9113 H   0  0  0  0  0  0  0  0  0  0  0  0
   -0.0092    0.4415    3.4982 C   0  0  0  0  0  0  0  0  0  0  0  0
    0.7813    1.1994    3.4964 H   0  0  0  0  0  0  0  0  0  0  0  0
   -0.8549    0.8293    4.0739 H   0  0  0  0  0  0  0  0  0  0  0  0
    0.3667   -0.4591    3.9953 H   0  0  0  0  0  0  0  0  0  0  0  0
  1  2  1  0  0  0  0
  2  3  1  0  0  0  0
  2  4  1  0  0  0  0
  2  5  1  0  0  0  0
  5  6  2  0  0  0  0
  5  7  1  0  0  0  0
  7  8  1  0  0  0  0
  7  9  1  0  0  0  0
  9 10  1  0  0  0  0
  9 11  1  0  0  0  0
  9 22  1  0  0  0  0
 11 12  1  0  0  0  0
 11 13  1  0  0  0  0
 11 14  1  0  0  0  0
 14 15  1  0  0  0  0
 14 20  2  0  0  0  0
 15 16  1  0  0  0  0
 15 17  1  0  0  0  0
 17 18  1  0  0  0  0
 17 19  2  0  0  0  0
 19 20  1  0  0  0  0
 20 21  1  0  0  0  0
 22 23  2  0  0  0  0
 22 24  1  0  0  0  0
 24 25  1  0  0  0  0
 24 26  1  0  0  0  0
 26 27  1  0  0  0  0
 26 28  1  0  0  0  0
 26 29  1  0  0  0  0
M  END
$$$$

  -OEChem-03222214043D

 29 29  0     1  0  0  0  0  0999 V2000
   -3.0491   -4.0781    0.5397 H   0  0  0  0  0  0  0  0  0  0  0  0
   -3.0036   -3.1107    0.0310 C   0  0  0  0  0  0  0  0  0  0  0  0
   -3.7142   -2.4305    0.5064 H   0  0  0  0  0  0  0  0  0  0  0  0
   -3.2850   -3.2507   -1.0155 H   0  0  0  0  0  0  0  0  0  0  0  0
   -1.5996   -2.5422    0.1185 C   0  0  0  0  0  0  0  0  0  0  0  0
   -0.7184   -3.1846    0.6596 O   0  0  0  0  0  0  0  0  0  0  0  0
   -1.3267   -1.2984   -0.4166 N   0  0  0  0  0  0  0  0  0  0  0  0
   -2.1088   -0.7824   -0.8074 H   0  0  0  0  0  0  0  0  0  0  0  0
   -0.0224   -0.6175   -0.3093 C   0  0  1  0  0  0  0  0  0  0  0  0
    0.7139   -1.3345   -0.6909 H   0  0  0  0  0  0  0  0  0  0  0  0
    0.0189    0.5685   -1.3016 C   0  0  0  0  0  0  0  0  0  0  0  0
    1.0645    0.7044   -1.5985 H   0  0  0  0  0  0  0  0  0  0  0  0
   -0.5305    0.2960   -2.2079 H   0  0  0  0  0  0  0  0  0  0  0  0
   -0.4670    1.9140   -0.8072 C   0  0  0  0  0  0  0  0  0  0  0  0
   -1.3057    2.7575   -1.5060 N   0  0  0  0  0  0  0  0  0  0  0  0
   -1.7279    2.5716   -2.4130 H   0  0  0  0  0  0  0  0  0  0  0  0
   -1.4431    3.9369   -0.7995 C   0  0  0  0  0  0  0  0  0  0  0  0
   -2.0586    4.7798   -1.1009 H   0  0  0  0  0  0  0  0  0  0  0  0
   -0.7195    3.8919    0.2901 N   0  0  0  0  0  0  0  0  0  0  0  0
   -0.0756    2.6591    0.2799 C   0  0  0  0  0  0  0  0  0  0  0  0
    0.6572    2.3521    1.0194 H   0  0  0  0  0  0  0  0  0  0  0  0
    0.4431   -0.3366    1.1367 C   0  0  0  0  0  0  0  0  0  0  0  0
    1.6390   -0.3491    1.3955 O   0  0  0  0  0  0  0  0  0  0  0  0
   -0.4370    0.1763    2.0745 N   0  0  0  0  0  0  0  0  0  0  0  0
   -1.4153    0.2320    1.8120 H   0  0  0  0  0  0  0  0  0  0  0  0
   -0.0385    0.5766    3.4182 C   0  0  0  0  0  0  0  0  0  0  0  0
    0.7212    1.3642    3.3754 H   0  0  0  0  0  0  0  0  0  0  0  0
   -0.9016    0.9605    3.9703 H   0  0  0  0  0  0  0  0  0  0  0  0
    0.3713   -0.2788    3.9655 H   0  0  0  0  0  0  0  0  0  0  0  0
  1  2  1  0  0  0  0
  2  3  1  0  0  0  0
  2  4  1  0  0  0  0
  2  5  1  0  0  0  0
  5  6  2  0  0  0  0
  5  7  1  0  0  0  0
  7  8  1  0  0  0  0
  7  9  1  0  0  0  0
  9 10  1  0  0  0  0
  9 11  1  0  0  0  0
  9 22  1  0  0  0  0
 11 12  1  0  0  0  0
 11 13  1  0  0  0  0
 11 14  1  0  0  0  0
 14 15  1  0  0  0  0
 14 20  2  0  0  0  0
 15 16  1  0  0  0  0
 15 17  1  0  0  0  0
 17 18  1  0  0  0  0
 17 19  2  0  0  0  0
 19 20  1  0  0  0  0
 20 21  1  0  0  0  0
 22 23  2  0  0  0  0
 22 24  1  0  0  0  0
 24 25  1  0  0  0  0
 24 26  1  0  0  0  0
 26 27  1  0  0  0  0
 26 28  1  0  0  0  0
 26 29  1  0  0  0  0
M  END
$$$$

  -OEChem-03222214043D

 29 29  0     1  0  0  0  0  0999 V2000
   -3.0681   -4.0693    0.5461 H   0  0  0  0  0  0  0  0  0  0  0  0
   -3.0124   -3.1073    0.0287 C   0  0  0  0  0  0  0  0  0  0  0  0
   -3.7144   -2.4149    0.4990 H   0  0  0  0  0  0  0  0  0  0  0  0
   -3.2959   -3.2530   -1.0162 H   0  0  0  0  0  0  0  0  0  0  0  0
   -1.6024   -2.5541    0.1106 C   0  0  0  0  0  0  0  0  0  0  0  0
   -0.7298   -3.1974    0.6645 O   0  0  0  0  0  0  0  0  0  0  0  0
   -1.3145   -1.3232   -0.4456 N   0  0  0  0  0  0  0  0  0  0  0  0
   -2.0895   -0.8057   -0.8472 H   0  0  0  0  0  0  0  0  0  0  0  0
   -0.0075   -0.6508   -0.3270 C   0  0  1  0  0  0  0  0  0  0  0  0
    0.7315   -1.3718   -0.6956 H   0  0  0  0  0  0  0  0  0  0  0  0
    0.0456    0.5384   -1.3113 C   0  0  0  0  0  0  0  0  0  0  0  0
    1.0950    0.6784   -1.5930 H   0  0  0  0  0  0  0  0  0  0  0  0
   -0.4958    0.2873   -2.2287 H   0  0  0  0  0  0  0  0  0  0  0  0
   -0.4452    1.8618   -0.7708 C   0  0  0  0  0  0  0  0  0  0  0  0
   -1.4942    2.6087   -1.2647 N   0  0  0  0  0  0  0  0  0  0  0  0
   -2.0946    2.3636   -2.0488 H   0  0  0  0  0  0  0  0  0  0  0  0
   -1.5553    3.7994   -0.5652 C   0  0  0  0  0  0  0  0  0  0  0  0
   -2.2886    4.5840   -0.7283 H   0  0  0  0  0  0  0  0  0  0  0  0
   -0.5963    3.8469    0.3249 N   0  0  0  0  0  0  0  0  0  0  0  0
    0.1240    2.6649    0.1877 C   0  0  0  0  0  0  0  0  0  0  0  0
    1.0188    2.4202    0.7528 H   0  0  0  0  0  0  0  0  0  0  0  0
    0.4426   -0.3400    1.1187 C   0  0  0  0  0  0  0  0  0  0  0  0
    1.6352   -0.3608    1.3926 O   0  0  0  0  0  0  0  0  0  0  0  0
   -0.4435    0.2030    2.0338 N   0  0  0  0  0  0  0  0  0  0  0  0
   -1.4025    0.3325    1.7299 H   0  0  0  0  0  0  0  0  0  0  0  0
   -0.0429    0.7040    3.3425 C   0  0  0  0  0  0  0  0  0  0  0  0
    0.6728    1.5260    3.2361 H   0  0  0  0  0  0  0  0  0  0  0  0
   -0.9155    1.0747    3.8885 H   0  0  0  0  0  0  0  0  0  0  0  0
    0.4205   -0.0940    3.9320 H   0  0  0  0  0  0  0  0  0  0  0  0
  1  2  1  0  0  0  0
  2  3  1  0  0  0  0
  2  4  1  0  0  0  0
  2  5  1  0  0  0  0
  5  6  2  0  0  0  0
  5  7  1  0  0  0  0
  7  8  1  0  0  0  0
  7  9  1  0  0  0  0
  9 10  1  0  0  0  0
  9 11  1  0  0  0  0
  9 22  1  0  0  0  0
 11 12  1  0  0  0  0
 11 13  1  0  0  0  0
 11 14  1  0  0  0  0
 14 15  1  0  0  0  0
 14 20  2  0  0  0  0
 15 16  1  0  0  0  0
 15 17  1  0  0  0  0
 17 18  1  0  0  0  0
 17 19  2  0  0  0  0
 19 20  1  0  0  0  0
 20 21  1  0  0  0  0
 22 23  2  0  0  0  0
 22 24  1  0  0  0  0
 24 25  1  0  0  0  0
 24 26  1  0  0  0  0
 26 27  1  0  0  0  0
 26 28  1  0  0  0  0
 26 29  1  0  0  0  0
M  END
$$$$

  -OEChem-03222214043D

 29 29  0     1  0  0  0  0  0999 V2000
   -3.0871   -4.0645    0.5388 H   0  0  0  0  0  0  0  0  0  0  0  0
   -3.0233   -3.1047    0.0179 C   0  0  0  0  0  0  0  0  0  0  0  0
   -3.7309   -2.4094    0.4754 H   0  0  0  0  0  0  0  0  0  0  0  0
   -3.2929   -3.2555   -1.0301 H   0  0  0  0  0  0  0  0  0  0  0  0
   -1.6137   -2.5525    0.1170 C   0  0  0  0  0  0  0  0  0  0  0  0
   -0.7533   -3.1883    0.6979 O   0  0  0  0  0  0  0  0  0  0  0  0
   -1.3112   -1.3331   -0.4570 N   0  0  0  0  0  0  0  0  0  0  0  0
   -2.0737   -0.8257   -0.8928 H   0  0  0  0  0  0  0  0  0  0  0  0
   -0.0003   -0.6686   -0.3360 C   0  0  1  0  0  0  0  0  0  0  0  0
    0.7368   -1.3965   -0.6945 H   0  0  0  0  0  0  0  0  0  0  0  0
    0.0673    0.5193   -1.3188 C   0  0  0  0  0  0  0  0  0  0  0  0
    1.1194    0.6549   -1.5927 H   0  0  0  0  0  0  0  0  0  0  0  0
   -0.4717    0.2831   -2.2415 H   0  0  0  0  0  0  0  0  0  0  0  0
   -0.4216    1.8300   -0.7506 C   0  0  0  0  0  0  0  0  0  0  0  0
   -1.6188    2.4589   -1.0190 N   0  0  0  0  0  0  0  0  0  0  0  0
   -2.3446    2.1346   -1.6539 H   0  0  0  0  0  0  0  0  0  0  0  0
   -1.6370    3.6679   -0.3484 C   0  0  0  0  0  0  0  0  0  0  0  0
   -2.4548    4.3827   -0.3695 H   0  0  0  0  0  0  0  0  0  0  0  0
   -0.5206    3.8308    0.3167 N   0  0  0  0  0  0  0  0  0  0  0  0
    0.2578    2.7067    0.0590 C   0  0  0  0  0  0  0  0  0  0  0  0
    1.2606    2.5460    0.4446 H   0  0  0  0  0  0  0  0  0  0  0  0
    0.4475   -0.3323    1.1052 C   0  0  0  0  0  0  0  0  0  0  0  0
    1.6393   -0.3605    1.3828 O   0  0  0  0  0  0  0  0  0  0  0  0
   -0.4365    0.2364    2.0062 N   0  0  0  0  0  0  0  0  0  0  0  0
   -1.3810    0.4055    1.6783 H   0  0  0  0  0  0  0  0  0  0  0  0
   -0.0250    0.7931    3.2889 C   0  0  0  0  0  0  0  0  0  0  0  0
    0.6662    1.6294    3.1400 H   0  0  0  0  0  0  0  0  0  0  0  0
   -0.8969    1.1584    3.8397 H   0  0  0  0  0  0  0  0  0  0  0  0
    0.4711    0.0286    3.8961 H   0  0  0  0  0  0  0  0  0  0  0  0
  1  2  1  0  0  0  0
  2  3  1  0  0  0  0
  2  4  1  0  0  0  0
  2  5  1  0  0  0  0
  5  6  2  0  0  0  0
  5  7  1  0  0  0  0
  7  8  1  0  0  0  0
  7  9  1  0  0  0  0
  9 10  1  0  0  0  0
  9 11  1  0  0  0  0
  9 22  1  0  0  0  0
 11 12  1  0  0  0  0
 11 13  1  0  0  0  0
 11 14  1  0  0  0  0
 14 15  1  0  0  0  0
 14 20  2  0  0  0  0
 15 16  1  0  0  0  0
 15 17  1  0  0  0  0
 17 18  1  0  0  0  0
 17 19  2  0  0  0  0
 19 20  1  0  0  0  0
 20 21  1  0  0  0  0
 22 23  2  0  0  0  0
 22 24  1  0  0  0  0
 24 25  1  0  0  0  0
 24 26  1  0  0  0  0
 26 27  1  0  0  0  0
 26 28  1  0  0  0  0
 26 29  1  0  0  0  0
M  END
$$$$

  -OEChem-03222214043D

 29 29  0     1  0  0  0  0  0999 V2000
   -3.0992   -4.0943    0.4840 H   0  0  0  0  0  0  0  0  0  0  0  0
   -3.0316   -3.1284   -0.0251 C   0  0  0  0  0  0  0  0  0  0  0  0
   -3.7771   -2.4536    0.4020 H   0  0  0  0  0  0  0  0  0  0  0  0
   -3.2454   -3.2755   -1.0865 H   0  0  0  0  0  0  0  0  0  0  0  0
   -1.6420   -2.5450    0.1483 C   0  0  0  0  0  0  0  0  0  0  0  0
   -0.8098   -3.1471    0.8013 O   0  0  0  0  0  0  0  0  0  0  0  0
   -1.3260   -1.3371   -0.4424 N   0  0  0  0  0  0  0  0  0  0  0  0
   -2.0498   -0.8858   -0.9905 H   0  0  0  0  0  0  0  0  0  0  0  0
   -0.0090   -0.6823   -0.3317 C   0  0  1  0  0  0  0  0  0  0  0  0
    0.7205   -1.4195   -0.6861 H   0  0  0  0  0  0  0  0  0  0  0  0
    0.0680    0.5035   -1.3154 C   0  0  0  0  0  0  0  0  0  0  0  0
    1.1200    0.6287   -1.5952 H   0  0  0  0  0  0  0  0  0  0  0  0
   -0.4809    0.2785   -2.2348 H   0  0  0  0  0  0  0  0  0  0  0  0
   -0.4072    1.8113   -0.7314 C   0  0  0  0  0  0  0  0  0  0  0  0
   -1.6854    2.3286   -0.7433 N   0  0  0  0  0  0  0  0  0  0  0  0
   -2.5040    1.9154   -1.1831 H   0  0  0  0  0  0  0  0  0  0  0  0
   -1.6582    3.5677   -0.1298 C   0  0  0  0  0  0  0  0  0  0  0  0
   -2.5180    4.2179    0.0047 H   0  0  0  0  0  0  0  0  0  0  0  0
   -0.4416    3.8491    0.2648 N   0  0  0  0  0  0  0  0  0  0  0  0
    0.3532    2.7712   -0.1121 C   0  0  0  0  0  0  0  0  0  0  0  0
    1.4230    2.6989    0.0617 H   0  0  0  0  0  0  0  0  0  0  0  0
    0.4504   -0.3257    1.1014 C   0  0  0  0  0  0  0  0  0  0  0  0
    1.6448   -0.3542    1.3687 O   0  0  0  0  0  0  0  0  0  0  0  0
   -0.4240    0.2664    1.9964 N   0  0  0  0  0  0  0  0  0  0  0  0
   -1.3655    0.4414    1.6640 H   0  0  0  0  0  0  0  0  0  0  0  0
    0.0068    0.8796    3.2459 C   0  0  0  0  0  0  0  0  0  0  0  0
    0.6496    1.7431    3.0454 H   0  0  0  0  0  0  0  0  0  0  0  0
   -0.8610    1.2176    3.8200 H   0  0  0  0  0  0  0  0  0  0  0  0
    0.5629    0.1590    3.8547 H   0  0  0  0  0  0  0  0  0  0  0  0
  1  2  1  0  0  0  0
  2  3  1  0  0  0  0
  2  4  1  0  0  0  0
  2  5  1  0  0  0  0
  5  6  2  0  0  0  0
  5  7  1  0  0  0  0
  7  8  1  0  0  0  0
  7  9  1  0  0  0  0
  9 10  1  0  0  0  0
  9 11  1  0  0  0  0
  9 22  1  0  0  0  0
 11 12  1  0  0  0  0
 11 13  1  0  0  0  0
 11 14  1  0  0  0  0
 14 15  1  0  0  0  0
 14 20  2  0  0  0  0
 15 16  1  0  0  0  0
 15 17  1  0  0  0  0
 17 18  1  0  0  0  0
 17 19  2  0  0  0  0
 19 20  1  0  0  0  0
 20 21  1  0  0  0  0
 22 23  2  0  0  0  0
 22 24  1  0  0  0  0
 24 25  1  0  0  0  0
 24 26  1  0  0  0  0
 26 27  1  0  0  0  0
 26 28  1  0  0  0  0
 26 29  1  0  0  0  0
M  END
$$$$

  -OEChem-03222214043D

 29 29  0     1  0  0  0  0  0999 V2000
   -3.0975   -4.1162    0.4513 H   0  0  0  0  0  0  0  0  0  0  0  0
   -3.0285   -3.1573   -0.0709 C   0  0  0  0  0  0  0  0  0  0  0  0
   -3.8238   -2.5018    0.2916 H   0  0  0  0  0  0  0  0  0  0  0  0
   -3.1646   -3.3304   -1.1410 H   0  0  0  0  0  0  0  0  0  0  0  0
   -1.6745   -2.5229    0.1852 C   0  0  0  0  0  0  0  0  0  0  0  0
   -0.8763   -3.0783    0.9170 O   0  0  0  0  0  0  0  0  0  0  0  0
   -1.3527   -1.3240   -0.4211 N   0  0  0  0  0  0  0  0  0  0  0  0
   -2.0174   -0.9592   -1.0945 H   0  0  0  0  0  0  0  0  0  0  0  0
   -0.0276   -0.6820   -0.3226 C   0  0  1  0  0  0  0  0  0  0  0  0
    0.6916   -1.4298   -0.6761 H   0  0  0  0  0  0  0  0  0  0  0  0
    0.0559    0.4971   -1.3134 C   0  0  0  0  0  0  0  0  0  0  0  0
    1.1054    0.6081   -1.6077 H   0  0  0  0  0  0  0  0  0  0  0  0
   -0.5083    0.2743   -2.2240 H   0  0  0  0  0  0  0  0  0  0  0  0
   -0.4025    1.8117   -0.7306 C   0  0  0  0  0  0  0  0  0  0  0  0
   -1.6931    2.2275   -0.4774 N   0  0  0  0  0  0  0  0  0  0  0  0
   -2.5477    1.7175   -0.6847 H   0  0  0  0  0  0  0  0  0  0  0  0
   -1.6418    3.5034    0.0535 C   0  0  0  0  0  0  0  0  0  0  0  0
   -2.5050    4.0940    0.3469 H   0  0  0  0  0  0  0  0  0  0  0  0
   -0.3983    3.9022    0.1501 N   0  0  0  0  0  0  0  0  0  0  0  0
    0.3869    2.8615   -0.3354 C   0  0  0  0  0  0  0  0  0  0  0  0
    1.4716    2.8775   -0.3905 H   0  0  0  0  0  0  0  0  0  0  0  0
    0.4523   -0.3116    1.1011 C   0  0  0  0  0  0  0  0  0  0  0  0
    1.6490   -0.3591    1.3559 O   0  0  0  0  0  0  0  0  0  0  0  0
   -0.4019    0.3021    2.0005 N   0  0  0  0  0  0  0  0  0  0  0  0
   -1.3491    0.4728    1.6840 H   0  0  0  0  0  0  0  0  0  0  0  0
    0.0497    0.9166    3.2417 C   0  0  0  0  0  0  0  0  0  0  0  0
    0.7123    1.7623    3.0298 H   0  0  0  0  0  0  0  0  0  0  0  0
   -0.8067    1.2813    3.8165 H   0  0  0  0  0  0  0  0  0  0  0  0
    0.5910    0.1880    3.8547 H   0  0  0  0  0  0  0  0  0  0  0  0
  1  2  1  0  0  0  0
  2  3  1  0  0  0  0
  2  4  1  0  0  0  0
  2  5  1  0  0  0  0
  5  6  2  0  0  0  0
  5  7  1  0  0  0  0
  7  8  1  0  0  0  0
  7  9  1  0  0  0  0
  9 10  1  0  0  0  0
  9 11  1  0  0  0  0
  9 22  1  0  0  0  0
 11 12  1  0  0  0  0
 11 13  1  0  0  0  0
 11 14  1  0  0  0  0
 14 15  1  0  0  0  0
 14 20  2  0  0  0  0
 15 16  1  0  0  0  0
 15 17  1  0  0  0  0
 17 18  1  0  0  0  0
 17 19  2  0  0  0  0
 19 20  1  0  0  0  0
 20 21  1  0  0  0  0
 22 23  2  0  0  0  0
 22 24  1  0  0  0  0
 24 25  1  0  0  0  0
 24 26  1  0  0  0  0
 26 27  1  0  0  0  0
 26 28  1  0  0  0  0
 26 29  1  0  0  0  0
M  END
$$$$

  -OEChem-03222214043D

 29 29  0     1  0  0  0  0  0999 V2000
   -3.0798   -4.1293    0.4296 H   0  0  0  0  0  0  0  0  0  0  0  0
   -3.0172   -3.1695   -0.0915 C   0  0  0  0  0  0  0  0  0  0  0  0
   -3.8403   -2.5339    0.2434 H   0  0  0  0  0  0  0  0  0  0  0  0
   -3.1138   -3.3472   -1.1651 H   0  0  0  0  0  0  0  0  0  0  0  0
   -1.6888   -2.5006    0.2077 C   0  0  0  0  0  0  0  0  0  0  0  0
   -0.9095   -3.0239    0.9822 O   0  0  0  0  0  0  0  0  0  0  0  0
   -1.3730   -1.3005   -0.3996 N   0  0  0  0  0  0  0  0  0  0  0  0
   -2.0061   -0.9829   -1.1263 H   0  0  0  0  0  0  0  0  0  0  0  0
   -0.0459   -0.6603   -0.3073 C   0  0  1  0  0  0  0  0  0  0  0  0
    0.6651   -1.4165   -0.6591 H   0  0  0  0  0  0  0  0  0  0  0  0
    0.0482    0.5039   -1.3137 C   0  0  0  0  0  0  0  0  0  0  0  0
    1.0976    0.6011   -1.6139 H   0  0  0  0  0  0  0  0  0  0  0  0
   -0.5221    0.2677   -2.2170 H   0  0  0  0  0  0  0  0  0  0  0  0
   -0.4046    1.8342   -0.7626 C   0  0  0  0  0  0  0  0  0  0  0  0
   -1.6453    2.1746   -0.2649 N   0  0  0  0  0  0  0  0  0  0  0  0
   -2.4690    1.5801   -0.2318 H   0  0  0  0  0  0  0  0  0  0  0  0
   -1.6027    3.4946    0.1447 C   0  0  0  0  0  0  0  0  0  0  0  0
   -2.4357    4.0435    0.5747 H   0  0  0  0  0  0  0  0  0  0  0  0
   -0.4105    3.9939   -0.0656 N   0  0  0  0  0  0  0  0  0  0  0  0
    0.3497    2.9709   -0.6232 C   0  0  0  0  0  0  0  0  0  0  0  0
    1.3943    3.0607   -0.9065 H   0  0  0  0  0  0  0  0  0  0  0  0
    0.4579   -0.2875    1.1078 C   0  0  0  0  0  0  0  0  0  0  0  0
    1.6585   -0.3434    1.3421 O   0  0  0  0  0  0  0  0  0  0  0  0
   -0.3727    0.3297    2.0262 N   0  0  0  0  0  0  0  0  0  0  0  0
   -1.3500    0.4195    1.7769 H   0  0  0  0  0  0  0  0  0  0  0  0
    0.0924    0.8668    3.2981 C   0  0  0  0  0  0  0  0  0  0  0  0
    0.8168    1.6709    3.1309 H   0  0  0  0  0  0  0  0  0  0  0  0
   -0.7488    1.2713    3.8687 H   0  0  0  0  0  0  0  0  0  0  0  0
    0.5684    0.0809    3.8941 H   0  0  0  0  0  0  0  0  0  0  0  0
  1  2  1  0  0  0  0
  2  3  1  0  0  0  0
  2  4  1  0  0  0  0
  2  5  1  0  0  0  0
  5  6  2  0  0  0  0
  5  7  1  0  0  0  0
  7  8  1  0  0  0  0
  7  9  1  0  0  0  0
  9 10  1  0  0  0  0
  9 11  1  0  0  0  0
  9 22  1  0  0  0  0
 11 12  1  0  0  0  0
 11 13  1  0  0  0  0
 11 14  1  0  0  0  0
 14 15  1  0  0  0  0
 14 20  2  0  0  0  0
 15 16  1  0  0  0  0
 15 17  1  0  0  0  0
 17 18  1  0  0  0  0
 17 19  2  0  0  0  0
 19 20  1  0  0  0  0
 20 21  1  0  0  0  0
 22 23  2  0  0  0  0
 22 24  1  0  0  0  0
 24 25  1  0  0  0  0
 24 26  1  0  0  0  0
 26 27  1  0  0  0  0
 26 28  1  0  0  0  0
 26 29  1  0  0  0  0
M  END
$$$$

  -OEChem-03222214043D

 29 29  0     1  0  0  0  0  0999 V2000
   -3.0420   -4.1464    0.4086 H   0  0  0  0  0  0  0  0  0  0  0  0
   -2.9963   -3.1785   -0.0992 C   0  0  0  0  0  0  0  0  0  0  0  0
   -3.8368   -2.5662    0.2353 H   0  0  0  0  0  0  0  0  0  0  0  0
   -3.0788   -3.3439   -1.1762 H   0  0  0  0  0  0  0  0  0  0  0  0
   -1.6862   -2.4841    0.2220 C   0  0  0  0  0  0  0  0  0  0  0  0
   -0.9137   -2.9862    1.0170 O   0  0  0  0  0  0  0  0  0  0  0  0
   -1.3864   -1.2736   -0.3720 N   0  0  0  0  0  0  0  0  0  0  0  0
   -2.0208   -0.9617   -1.1011 H   0  0  0  0  0  0  0  0  0  0  0  0
   -0.0636   -0.6228   -0.2860 C   0  0  1  0  0  0  0  0  0  0  0  0
    0.6435   -1.3831   -0.6375 H   0  0  0  0  0  0  0  0  0  0  0  0
    0.0424    0.5249   -1.3107 C   0  0  0  0  0  0  0  0  0  0  0  0
    1.0928    0.6111   -1.6105 H   0  0  0  0  0  0  0  0  0  0  0  0
   -0.5253    0.2663   -2.2097 H   0  0  0  0  0  0  0  0  0  0  0  0
   -0.4103    1.8760   -0.8114 C   0  0  0  0  0  0  0  0  0  0  0  0
   -1.5409    2.1979   -0.0907 N   0  0  0  0  0  0  0  0  0  0  0  0
   -2.2658    1.5553    0.2144 H   0  0  0  0  0  0  0  0  0  0  0  0
   -1.5223    3.5551    0.1707 C   0  0  0  0  0  0  0  0  0  0  0  0
   -2.2853    4.0958    0.7232 H   0  0  0  0  0  0  0  0  0  0  0  0
   -0.4508    4.0997   -0.3496 N   0  0  0  0  0  0  0  0  0  0  0  0
    0.2572    3.0655   -0.9525 C   0  0  0  0  0  0  0  0  0  0  0  0
    1.2080    3.1858   -1.4635 H   0  0  0  0  0  0  0  0  0  0  0  0
    0.4575   -0.2629    1.1261 C   0  0  0  0  0  0  0  0  0  0  0  0
    1.6642   -0.2910    1.3317 O   0  0  0  0  0  0  0  0  0  0  0  0
   -0.3640    0.3344    2.0664 N   0  0  0  0  0  0  0  0  0  0  0  0
   -1.3600    0.2198    1.9253 H   0  0  0  0  0  0  0  0  0  0  0  0
    0.1133    0.7599    3.3762 C   0  0  0  0  0  0  0  0  0  0  0  0
    0.8931    1.5217    3.2705 H   0  0  0  0  0  0  0  0  0  0  0  0
   -0.7083    1.1875    3.9584 H   0  0  0  0  0  0  0  0  0  0  0  0
    0.5247   -0.0915    3.9285 H   0  0  0  0  0  0  0  0  0  0  0  0
  1  2  1  0  0  0  0
  2  3  1  0  0  0  0
  2  4  1  0  0  0  0
  2  5  1  0  0  0  0
  5  6  2  0  0  0  0
  5  7  1  0  0  0  0
  7  8  1  0  0  0  0
  7  9  1  0  0  0  0
  9 10  1  0  0  0  0
  9 11  1  0  0  0  0
  9 22  1  0  0  0  0
 11 12  1  0  0  0  0
 11 13  1  0  0  0  0
 11 14  1  0  0  0  0
 14 15  1  0  0  0  0
 14 20  2  0  0  0  0
 15 16  1  0  0  0  0
 15 17  1  0  0  0  0
 17 18  1  0  0  0  0
 17 19  2  0  0  0  0
 19 20  1  0  0  0  0
 20 21  1  0  0  0  0
 22 23  2  0  0  0  0
 22 24  1  0  0  0  0
 24 25  1  0  0  0  0
 24 26  1  0  0  0  0
 26 27  1  0  0  0  0
 26 28  1  0  0  0  0
 26 29  1  0  0  0  0
M  END
$$$$

  -OEChem-03222214043D

 29 29  0     1  0  0  0  0  0999 V2000
   -3.0333   -4.1485    0.3901 H   0  0  0  0  0  0  0  0  0  0  0  0
   -2.9883   -3.1758   -0.1082 C   0  0  0  0  0  0  0  0  0  0  0  0
   -3.8214   -2.5619    0.2421 H   0  0  0  0  0  0  0  0  0  0  0  0
   -3.0836   -3.3296   -1.1856 H   0  0  0  0  0  0  0  0  0  0  0  0
   -1.6707   -2.4920    0.2037 C   0  0  0  0  0  0  0  0  0  0  0  0
   -0.8828   -3.0131    0.9711 O   0  0  0  0  0  0  0  0  0  0  0  0
   -1.3826   -1.2637   -0.3576 N   0  0  0  0  0  0  0  0  0  0  0  0
   -2.0454   -0.9114   -1.0424 H   0  0  0  0  0  0  0  0  0  0  0  0
   -0.0657   -0.6024   -0.2701 C   0  0  1  0  0  0  0  0  0  0  0  0
    0.6426   -1.3563   -0.6332 H   0  0  0  0  0  0  0  0  0  0  0  0
    0.0428    0.5507   -1.2903 C   0  0  0  0  0  0  0  0  0  0  0  0
    1.0944    0.6328   -1.5873 H   0  0  0  0  0  0  0  0  0  0  0  0
   -0.5214    0.2845   -2.1895 H   0  0  0  0  0  0  0  0  0  0  0  0
   -0.4063    1.9156   -0.8241 C   0  0  0  0  0  0  0  0  0  0  0  0
   -1.3683    2.2660    0.0982 N   0  0  0  0  0  0  0  0  0  0  0  0
   -1.8971    1.6278    0.6855 H   0  0  0  0  0  0  0  0  0  0  0  0
   -1.4014    3.6439    0.1992 C   0  0  0  0  0  0  0  0  0  0  0  0
   -2.0538    4.2068    0.8606 H   0  0  0  0  0  0  0  0  0  0  0  0
   -0.5291    4.1769   -0.6196 N   0  0  0  0  0  0  0  0  0  0  0  0
    0.1062    3.1137   -1.2513 C   0  0  0  0  0  0  0  0  0  0  0  0
    0.8995    3.2193   -1.9852 H   0  0  0  0  0  0  0  0  0  0  0  0
    0.4539   -0.2833    1.1514 C   0  0  0  0  0  0  0  0  0  0  0  0
    1.6629   -0.2595    1.3428 O   0  0  0  0  0  0  0  0  0  0  0  0
   -0.3824    0.2729    2.1055 N   0  0  0  0  0  0  0  0  0  0  0  0
   -1.3573    0.0082    2.0207 H   0  0  0  0  0  0  0  0  0  0  0  0
    0.1037    0.6689    3.4221 C   0  0  0  0  0  0  0  0  0  0  0  0
    0.8747    1.4412    3.3285 H   0  0  0  0  0  0  0  0  0  0  0  0
   -0.7158    1.0739    4.0232 H   0  0  0  0  0  0  0  0  0  0  0  0
    0.5296   -0.1922    3.9481 H   0  0  0  0  0  0  0  0  0  0  0  0
  1  2  1  0  0  0  0
  2  3  1  0  0  0  0
  2  4  1  0  0  0  0
  2  5  1  0  0  0  0
  5  6  2  0  0  0  0
  5  7  1  0  0  0  0
  7  8  1  0  0  0  0
  7  9  1  0  0  0  0
  9 10  1  0  0  0  0
  9 11  1  0  0  0  0
  9 22  1  0  0  0  0
 11 12  1  0  0  0  0
 11 13  1  0  0  0  0
 11 14  1  0  0  0  0
 14 15  1  0  0  0  0
 14 20  2  0  0  0  0
 15 16  1  0  0  0  0
 15 17  1  0  0  0  0
 17 18  1  0  0  0  0
 17 19  2  0  0  0  0
 19 20  1  0  0  0  0
 20 21  1  0  0  0  0
 22 23  2  0  0  0  0
 22 24  1  0  0  0  0
 24 25  1  0  0  0  0
 24 26  1  0  0  0  0
 26 27  1  0  0  0  0
 26 28  1  0  0  0  0
 26 29  1  0  0  0  0
M  END
$$$$

  -OEChem-03222214043D

 29 29  0     1  0  0  0  0  0999 V2000
   -3.0507   -4.1165    0.3909 H   0  0  0  0  0  0  0  0  0  0  0  0
   -2.9945   -3.1409   -0.1005 C   0  0  0  0  0  0  0  0  0  0  0  0
   -3.8031   -2.5102    0.2762 H   0  0  0  0  0  0  0  0  0  0  0  0
   -3.1215   -3.2826   -1.1765 H   0  0  0  0  0  0  0  0  0  0  0  0
   -1.6533   -2.4912    0.1826 C   0  0  0  0  0  0  0  0  0  0  0  0
   -0.8505   -3.0447    0.9111 O   0  0  0  0  0  0  0  0  0  0  0  0
   -1.3612   -1.2534   -0.3550 N   0  0  0  0  0  0  0  0  0  0  0  0
   -2.0525   -0.8527   -0.9827 H   0  0  0  0  0  0  0  0  0  0  0  0
   -0.0438   -0.5935   -0.2668 C   0  0  1  0  0  0  0  0  0  0  0  0
    0.6646   -1.3405   -0.6435 H   0  0  0  0  0  0  0  0  0  0  0  0
    0.0565    0.5723   -1.2763 C   0  0  0  0  0  0  0  0  0  0  0  0
    1.1087    0.6553   -1.5703 H   0  0  0  0  0  0  0  0  0  0  0  0
   -0.5034    0.3086   -2.1790 H   0  0  0  0  0  0  0  0  0  0  0  0
   -0.3819    1.9463   -0.8230 C   0  0  0  0  0  0  0  0  0  0  0  0
   -1.1223    2.3458    0.2677 N   0  0  0  0  0  0  0  0  0  0  0  0
   -1.3623    1.7632    1.0670 H   0  0  0  0  0  0  0  0  0  0  0  0
   -1.2660    3.7193    0.2271 C   0  0  0  0  0  0  0  0  0  0  0  0
   -1.7784    4.3164    0.9760 H   0  0  0  0  0  0  0  0  0  0  0  0
   -0.6872    4.2010   -0.8445 N   0  0  0  0  0  0  0  0  0  0  0  0
   -0.1265    3.1113   -1.5002 C   0  0  0  0  0  0  0  0  0  0  0  0
    0.4329    3.1748   -2.4289 H   0  0  0  0  0  0  0  0  0  0  0  0
    0.4654   -0.3114    1.1652 C   0  0  0  0  0  0  0  0  0  0  0  0
    1.6717   -0.2687    1.3669 O   0  0  0  0  0  0  0  0  0  0  0  0
   -0.3886    0.2187    2.1201 N   0  0  0  0  0  0  0  0  0  0  0  0
   -1.3518   -0.0893    2.0274 H   0  0  0  0  0  0  0  0  0  0  0  0
    0.0801    0.5726    3.4556 C   0  0  0  0  0  0  0  0  0  0  0  0
    0.8501    1.3494    3.3985 H   0  0  0  0  0  0  0  0  0  0  0  0
   -0.7486    0.9551    4.0591 H   0  0  0  0  0  0  0  0  0  0  0  0
    0.5015   -0.3042    3.9589 H   0  0  0  0  0  0  0  0  0  0  0  0
  1  2  1  0  0  0  0
  2  3  1  0  0  0  0
  2  4  1  0  0  0  0
  2  5  1  0  0  0  0
  5  6  2  0  0  0  0
  5  7  1  0  0  0  0
  7  8  1  0  0  0  0
  7  9  1  0  0  0  0
  9 10  1  0  0  0  0
  9 11  1  0  0  0  0
  9 22  1  0  0  0  0
 11 12  1  0  0  0  0
 11 13  1  0  0  0  0
 11 14  1  0  0  0  0
 14 15  1  0  0  0  0
 14 20  2  0  0  0  0
 15 16  1  0  0  0  0
 15 17  1  0  0  0  0
 17 18  1  0  0  0  0
 17 19  2  0  0  0  0
 19 20  1  0  0  0  0
 20 21  1  0  0  0  0
 22 23  2  0  0  0  0
 22 24  1  0  0  0  0
 24 25  1  0  0  0  0
 24 26  1  0  0  0  0
 26 27  1  0  0  0  0
 26 28  1  0  0  0  0
 26 29  1  0  0  0  0
M  END
$$$$

  -OEChem-03222214043D

 29 29  0     1  0  0  0  0  0999 V2000
   -3.0785   -4.0695    0.4013 H   0  0  0  0  0  0  0  0  0  0  0  0
   -3.0120   -3.0930   -0.0872 C   0  0  0  0  0  0  0  0  0  0  0  0
   -3.7990   -2.4471    0.3095 H   0  0  0  0  0  0  0  0  0  0  0  0
   -3.1650   -3.2269   -1.1608 H   0  0  0  0  0  0  0  0  0  0  0  0
   -1.6512   -2.4736    0.1693 C   0  0  0  0  0  0  0  0  0  0  0  0
   -0.8385   -3.0564    0.8636 O   0  0  0  0  0  0  0  0  0  0  0  0
   -1.3496   -1.2332   -0.3568 N   0  0  0  0  0  0  0  0  0  0  0  0
   -2.0562   -0.7972   -0.9427 H   0  0  0  0  0  0  0  0  0  0  0  0
   -0.0274   -0.5847   -0.2662 C   0  0  1  0  0  0  0  0  0  0  0  0
    0.6749   -1.3346   -0.6479 H   0  0  0  0  0  0  0  0  0  0  0  0
    0.0743    0.5819   -1.2761 C   0  0  0  0  0  0  0  0  0  0  0  0
    1.1304    0.6617   -1.5564 H   0  0  0  0  0  0  0  0  0  0  0  0
   -0.4737    0.3161   -2.1857 H   0  0  0  0  0  0  0  0  0  0  0  0
   -0.3534    1.9647   -0.8358 C   0  0  0  0  0  0  0  0  0  0  0  0
   -0.8469    2.4303    0.3629 N   0  0  0  0  0  0  0  0  0  0  0  0
   -0.8499    1.9163    1.2433 H   0  0  0  0  0  0  0  0  0  0  0  0
   -1.1297    3.7764    0.2377 C   0  0  0  0  0  0  0  0  0  0  0  0
   -1.5049    4.4130    1.0339 H   0  0  0  0  0  0  0  0  0  0  0  0
   -0.8751    4.1762   -0.9833 N   0  0  0  0  0  0  0  0  0  0  0  0
   -0.3886    3.0623   -1.6578 C   0  0  0  0  0  0  0  0  0  0  0  0
   -0.0867    3.0607   -2.7010 H   0  0  0  0  0  0  0  0  0  0  0  0
    0.4821   -0.3230    1.1695 C   0  0  0  0  0  0  0  0  0  0  0  0
    1.6870   -0.2989    1.3795 O   0  0  0  0  0  0  0  0  0  0  0  0
   -0.3677    0.2031    2.1307 N   0  0  0  0  0  0  0  0  0  0  0  0
   -1.3454   -0.0423    2.0015 H   0  0  0  0  0  0  0  0  0  0  0  0
    0.0873    0.4858    3.4879 C   0  0  0  0  0  0  0  0  0  0  0  0
    0.8869    1.2342    3.4777 H   0  0  0  0  0  0  0  0  0  0  0  0
   -0.7385    0.8741    4.0915 H   0  0  0  0  0  0  0  0  0  0  0  0
    0.4662   -0.4261    3.9619 H   0  0  0  0  0  0  0  0  0  0  0  0
  1  2  1  0  0  0  0
  2  3  1  0  0  0  0
  2  4  1  0  0  0  0
  2  5  1  0  0  0  0
  5  6  2  0  0  0  0
  5  7  1  0  0  0  0
  7  8  1  0  0  0  0
  7  9  1  0  0  0  0
  9 10  1  0  0  0  0
  9 11  1  0  0  0  0
  9 22  1  0  0  0  0
 11 12  1  0  0  0  0
 11 13  1  0  0  0  0
 11 14  1  0  0  0  0
 14 15  1  0  0  0  0
 14 20  2  0  0  0  0
 15 16  1  0  0  0  0
 15 17  1  0  0  0  0
 17 18  1  0  0  0  0
 17 19  2  0  0  0  0
 19 20  1  0  0  0  0
 20 21  1  0  0  0  0
 22 23  2  0  0  0  0
 22 24  1  0  0  0  0
 24 25  1  0  0  0  0
 24 26  1  0  0  0  0
 26 27  1  0  0  0  0
 26 28  1  0  0  0  0
 26 29  1  0  0  0  0
M  END
$$$$

  -OEChem-03222214043D

 29 29  0     1  0  0  0  0  0999 V2000
   -3.1179   -4.0112    0.4516 H   0  0  0  0  0  0  0  0  0  0  0  0
   -3.0394   -3.0418   -0.0491 C   0  0  0  0  0  0  0  0  0  0  0  0
   -3.7966   -2.3708    0.3634 H   0  0  0  0  0  0  0  0  0  0  0  0
   -3.2270   -3.1820   -1.1164 H   0  0  0  0  0  0  0  0  0  0  0  0
   -1.6557   -2.4574    0.1623 C   0  0  0  0  0  0  0  0  0  0  0  0
   -0.8340   -3.0642    0.8247 O   0  0  0  0  0  0  0  0  0  0  0  0
   -1.3408   -1.2229   -0.3701 N   0  0  0  0  0  0  0  0  0  0  0  0
   -2.0611   -0.7560   -0.9139 H   0  0  0  0  0  0  0  0  0  0  0  0
   -0.0127   -0.5869   -0.2797 C   0  0  1  0  0  0  0  0  0  0  0  0
    0.6852   -1.3436   -0.6566 H   0  0  0  0  0  0  0  0  0  0  0  0
    0.0943    0.5732   -1.2969 C   0  0  0  0  0  0  0  0  0  0  0  0
    1.1536    0.6489   -1.5661 H   0  0  0  0  0  0  0  0  0  0  0  0
   -0.4438    0.3040   -2.2116 H   0  0  0  0  0  0  0  0  0  0  0  0
   -0.3254    1.9609   -0.8628 C   0  0  0  0  0  0  0  0  0  0  0  0
   -0.5562    2.4938    0.3861 N   0  0  0  0  0  0  0  0  0  0  0  0
   -0.3546    2.0355    1.2759 H   0  0  0  0  0  0  0  0  0  0  0  0
   -0.9704    3.8035    0.2468 C   0  0  0  0  0  0  0  0  0  0  0  0
   -1.2027    4.4770    1.0667 H   0  0  0  0  0  0  0  0  0  0  0  0
   -1.0429    4.1160   -1.0233 N   0  0  0  0  0  0  0  0  0  0  0  0
   -0.6418    2.9829   -1.7213 C   0  0  0  0  0  0  0  0  0  0  0  0
   -0.5961    2.9149   -2.8041 H   0  0  0  0  0  0  0  0  0  0  0  0
    0.4927   -0.3234    1.1574 C   0  0  0  0  0  0  0  0  0  0  0  0
    1.6958   -0.3190    1.3783 O   0  0  0  0  0  0  0  0  0  0  0  0
   -0.3517    0.2161    2.1156 N   0  0  0  0  0  0  0  0  0  0  0  0
   -1.3415    0.0542    1.9512 H   0  0  0  0  0  0  0  0  0  0  0  0
    0.0844    0.4574    3.4869 C   0  0  0  0  0  0  0  0  0  0  0  0
    0.9122    1.1743    3.5079 H   0  0  0  0  0  0  0  0  0  0  0  0
   -0.7392    0.8662    4.0798 H   0  0  0  0  0  0  0  0  0  0  0  0
    0.4169   -0.4767    3.9521 H   0  0  0  0  0  0  0  0  0  0  0  0
  1  2  1  0  0  0  0
  2  3  1  0  0  0  0
  2  4  1  0  0  0  0
  2  5  1  0  0  0  0
  5  6  2  0  0  0  0
  5  7  1  0  0  0  0
  7  8  1  0  0  0  0
  7  9  1  0  0  0  0
  9 10  1  0  0  0  0
  9 11  1  0  0  0  0
  9 22  1  0  0  0  0
 11 12  1  0  0  0  0
 11 13  1  0  0  0  0
 11 14  1  0  0  0  0
 14 15  1  0  0  0  0
 14 20  2  0  0  0  0
 15 16  1  0  0  0  0
 15 17  1  0  0  0  0
 17 18  1  0  0  0  0
 17 19  2  0  0  0  0
 19 20  1  0  0  0  0
 20 21  1  0  0  0  0
 22 23  2  0  0  0  0
 22 24  1  0  0  0  0
 24 25  1  0  0  0  0
 24 26  1  0  0  0  0
 26 27  1  0  0  0  0
 26 28  1  0  0  0  0
 26 29  1  0  0  0  0
M  END
$$$$

  -OEChem-03222214043D

 29 29  0     1  0  0  0  0  0999 V2000
   -3.1364   -3.9745    0.5026 H   0  0  0  0  0  0  0  0  0  0  0  0
   -3.0500   -3.0135   -0.0125 C   0  0  0  0  0  0  0  0  0  0  0  0
   -3.7861   -2.3229    0.4058 H   0  0  0  0  0  0  0  0  0  0  0  0
   -3.2613   -3.1637   -1.0739 H   0  0  0  0  0  0  0  0  0  0  0  0
   -1.6516   -2.4525    0.1631 C   0  0  0  0  0  0  0  0  0  0  0  0
   -0.8251   -3.0688    0.8107 O   0  0  0  0  0  0  0  0  0  0  0  0
   -1.3278   -1.2287   -0.3875 N   0  0  0  0  0  0  0  0  0  0  0  0
   -2.0559   -0.7473   -0.9080 H   0  0  0  0  0  0  0  0  0  0  0  0
    0.0022   -0.5975   -0.2995 C   0  0  1  0  0  0  0  0  0  0  0  0
    0.7017   -1.3579   -0.6656 H   0  0  0  0  0  0  0  0  0  0  0  0
    0.1076    0.5552   -1.3251 C   0  0  0  0  0  0  0  0  0  0  0  0
    1.1659    0.6319   -1.5971 H   0  0  0  0  0  0  0  0  0  0  0  0
   -0.4320    0.2812   -2.2373 H   0  0  0  0  0  0  0  0  0  0  0  0
   -0.3140    1.9407   -0.8868 C   0  0  0  0  0  0  0  0  0  0  0  0
   -0.2786    2.5397    0.3530 N   0  0  0  0  0  0  0  0  0  0  0  0
    0.1084    2.1280    1.2041 H   0  0  0  0  0  0  0  0  0  0  0  0
   -0.8101    3.8101    0.2539 C   0  0  0  0  0  0  0  0  0  0  0  0
   -0.9002    4.5167    1.0740 H   0  0  0  0  0  0  0  0  0  0  0  0
   -1.1963    4.0367   -0.9777 N   0  0  0  0  0  0  0  0  0  0  0  0
   -0.8886    2.8871   -1.6961 C   0  0  0  0  0  0  0  0  0  0  0  0
   -1.0877    2.7543   -2.7554 H   0  0  0  0  0  0  0  0  0  0  0  0
    0.4968   -0.3139    1.1373 C   0  0  0  0  0  0  0  0  0  0  0  0
    1.6980   -0.3011    1.3685 O   0  0  0  0  0  0  0  0  0  0  0  0
   -0.3513    0.2445    2.0803 N   0  0  0  0  0  0  0  0  0  0  0  0
   -1.3436    0.1411    1.8879 H   0  0  0  0  0  0  0  0  0  0  0  0
    0.0632    0.4980    3.4556 C   0  0  0  0  0  0  0  0  0  0  0  0
    0.8957    1.2090    3.4834 H   0  0  0  0  0  0  0  0  0  0  0  0
   -0.7674    0.9189    4.0301 H   0  0  0  0  0  0  0  0  0  0  0  0
    0.3805   -0.4339    3.9355 H   0  0  0  0  0  0  0  0  0  0  0  0
  1  2  1  0  0  0  0
  2  3  1  0  0  0  0
  2  4  1  0  0  0  0
  2  5  1  0  0  0  0
  5  6  2  0  0  0  0
  5  7  1  0  0  0  0
  7  8  1  0  0  0  0
  7  9  1  0  0  0  0
  9 10  1  0  0  0  0
  9 11  1  0  0  0  0
  9 22  1  0  0  0  0
 11 12  1  0  0  0  0
 11 13  1  0  0  0  0
 11 14  1  0  0  0  0
 14 15  1  0  0  0  0
 14 20  2  0  0  0  0
 15 16  1  0  0  0  0
 15 17  1  0  0  0  0
 17 18  1  0  0  0  0
 17 19  2  0  0  0  0
 19 20  1  0  0  0  0
 20 21  1  0  0  0  0
 22 23  2  0  0  0  0
 22 24  1  0  0  0  0
 24 25  1  0  0  0  0
 24 26  1  0  0  0  0
 26 27  1  0  0  0  0
 26 28  1  0  0  0  0
 26 29  1  0  0  0  0
M  END
$$$$

  -OEChem-03222214043D

 29 29  0     1  0  0  0  0  0999 V2000
   -3.1347   -3.9711    0.5346 H   0  0  0  0  0  0  0  0  0  0  0  0
   -3.0490   -3.0143    0.0115 C   0  0  0  0  0  0  0  0  0  0  0  0
   -3.7795   -2.3182    0.4302 H   0  0  0  0  0  0  0  0  0  0  0  0
   -3.2693   -3.1722   -1.0471 H   0  0  0  0  0  0  0  0  0  0  0  0
   -1.6478   -2.4559    0.1714 C   0  0  0  0  0  0  0  0  0  0  0  0
   -0.8188   -3.0673    0.8207 O   0  0  0  0  0  0  0  0  0  0  0  0
   -1.3207   -1.2447   -0.4052 N   0  0  0  0  0  0  0  0  0  0  0  0
   -2.0527   -0.7627   -0.9192 H   0  0  0  0  0  0  0  0  0  0  0  0
    0.0088   -0.6119   -0.3221 C   0  0  1  0  0  0  0  0  0  0  0  0
    0.7129   -1.3747   -0.6738 H   0  0  0  0  0  0  0  0  0  0  0  0
    0.1125    0.5338   -1.3548 C   0  0  0  0  0  0  0  0  0  0  0  0
    1.1680    0.6144   -1.6361 H   0  0  0  0  0  0  0  0  0  0  0  0
   -0.4353    0.2578   -2.2617 H   0  0  0  0  0  0  0  0  0  0  0  0
   -0.3150    1.9110   -0.9006 C   0  0  0  0  0  0  0  0  0  0  0  0
   -0.0234    2.5769    0.2697 N   0  0  0  0  0  0  0  0  0  0  0  0
    0.5566    2.2203    1.0315 H   0  0  0  0  0  0  0  0  0  0  0  0
   -0.6505    3.8066    0.2521 C   0  0  0  0  0  0  0  0  0  0  0  0
   -0.5966    4.5480    1.0442 H   0  0  0  0  0  0  0  0  0  0  0  0
   -1.3277    3.9459   -0.8622 N   0  0  0  0  0  0  0  0  0  0  0  0
   -1.1205    2.7797   -1.5903 C   0  0  0  0  0  0  0  0  0  0  0  0
   -1.5483    2.5822   -2.5687 H   0  0  0  0  0  0  0  0  0  0  0  0
    0.4888   -0.2973    1.1137 C   0  0  0  0  0  0  0  0  0  0  0  0
    1.6885   -0.2646    1.3525 O   0  0  0  0  0  0  0  0  0  0  0  0
   -0.3673    0.2814    2.0361 N   0  0  0  0  0  0  0  0  0  0  0  0
   -1.3579    0.2205    1.8205 H   0  0  0  0  0  0  0  0  0  0  0  0
    0.0310    0.5883    3.4049 C   0  0  0  0  0  0  0  0  0  0  0  0
    0.8449    1.3208    3.4154 H   0  0  0  0  0  0  0  0  0  0  0  0
   -0.8147    1.0053    3.9599 H   0  0  0  0  0  0  0  0  0  0  0  0
    0.3683   -0.3193    3.9169 H   0  0  0  0  0  0  0  0  0  0  0  0
  1  2  1  0  0  0  0
  2  3  1  0  0  0  0
  2  4  1  0  0  0  0
  2  5  1  0  0  0  0
  5  6  2  0  0  0  0
  5  7  1  0  0  0  0
  7  8  1  0  0  0  0
  7  9  1  0  0  0  0
  9 10  1  0  0  0  0
  9 11  1  0  0  0  0
  9 22  1  0  0  0  0
 11 12  1  0  0  0  0
 11 13  1  0  0  0  0
 11 14  1  0  0  0  0
 14 15  1  0  0  0  0
 14 20  2  0  0  0  0
 15 16  1  0  0  0  0
 15 17  1  0  0  0  0
 17 18  1  0  0  0  0
 17 19  2  0  0  0  0
 19 20  1  0  0  0  0
 20 21  1  0  0  0  0
 22 23  2  0  0  0  0
 22 24  1  0  0  0  0
 24 25  1  0  0  0  0
 24 26  1  0  0  0  0
 26 27  1  0  0  0  0
 26 28  1  0  0  0  0
 26 29  1  0  0  0  0
M  END
$$$$

  -OEChem-03222214043D

 29 29  0     1  0  0  0  0  0999 V2000
   -3.1211   -3.9789    0.5716 H   0  0  0  0  0  0  0  0  0  0  0  0
   -3.0405   -3.0295    0.0343 C   0  0  0  0  0  0  0  0  0  0  0  0
   -3.7646   -2.3264    0.4525 H   0  0  0  0  0  0  0  0  0  0  0  0
   -3.2744   -3.2012   -1.0190 H   0  0  0  0  0  0  0  0  0  0  0  0
   -1.6363   -2.4717    0.1701 C   0  0  0  0  0  0  0  0  0  0  0  0
   -0.8010   -3.0760    0.8182 O   0  0  0  0  0  0  0  0  0  0  0  0
   -1.3124   -1.2721   -0.4320 N   0  0  0  0  0  0  0  0  0  0  0  0
   -2.0505   -0.7948   -0.9411 H   0  0  0  0  0  0  0  0  0  0  0  0
    0.0137   -0.6317   -0.3514 C   0  0  1  0  0  0  0  0  0  0  0  0
    0.7276   -1.3909   -0.6904 H   0  0  0  0  0  0  0  0  0  0  0  0
    0.1132    0.5145   -1.3820 C   0  0  0  0  0  0  0  0  0  0  0  0
    1.1637    0.6044   -1.6780 H   0  0  0  0  0  0  0  0  0  0  0  0
   -0.4481    0.2465   -2.2828 H   0  0  0  0  0  0  0  0  0  0  0  0
   -0.3265    1.8725   -0.8918 C   0  0  0  0  0  0  0  0  0  0  0  0
    0.1911    2.6041    0.1545 N   0  0  0  0  0  0  0  0  0  0  0  0
    0.9391    2.3034    0.7821 H   0  0  0  0  0  0  0  0  0  0  0  0
   -0.5102    3.7894    0.2535 C   0  0  0  0  0  0  0  0  0  0  0  0
   -0.3299    4.5623    0.9953 H   0  0  0  0  0  0  0  0  0  0  0  0
   -1.4340    3.8415   -0.6769 N   0  0  0  0  0  0  0  0  0  0  0  0
   -1.3212    2.6623   -1.4047 C   0  0  0  0  0  0  0  0  0  0  0  0
   -1.9435    2.4010   -2.2553 H   0  0  0  0  0  0  0  0  0  0  0  0
    0.4762   -0.2838    1.0829 C   0  0  0  0  0  0  0  0  0  0  0  0
    1.6740   -0.2288    1.3309 O   0  0  0  0  0  0  0  0  0  0  0  0
   -0.3957    0.3110    1.9797 N   0  0  0  0  0  0  0  0  0  0  0  0
   -1.3810    0.2876    1.7362 H   0  0  0  0  0  0  0  0  0  0  0  0
   -0.0116    0.7195    3.3253 C   0  0  0  0  0  0  0  0  0  0  0  0
    0.7688    1.4864    3.2875 H   0  0  0  0  0  0  0  0  0  0  0  0
   -0.8752    1.1323    3.8554 H   0  0  0  0  0  0  0  0  0  0  0  0
    0.3649   -0.1388    3.8917 H   0  0  0  0  0  0  0  0  0  0  0  0
  1  2  1  0  0  0  0
  2  3  1  0  0  0  0
  2  4  1  0  0  0  0
  2  5  1  0  0  0  0
  5  6  2  0  0  0  0
  5  7  1  0  0  0  0
  7  8  1  0  0  0  0
  7  9  1  0  0  0  0
  9 10  1  0  0  0  0
  9 11  1  0  0  0  0
  9 22  1  0  0  0  0
 11 12  1  0  0  0  0
 11 13  1  0  0  0  0
 11 14  1  0  0  0  0
 14 15  1  0  0  0  0
 14 20  2  0  0  0  0
 15 16  1  0  0  0  0
 15 17  1  0  0  0  0
 17 18  1  0  0  0  0
 17 19  2  0  0  0  0
 19 20  1  0  0  0  0
 20 21  1  0  0  0  0
 22 23  2  0  0  0  0
 22 24  1  0  0  0  0
 24 25  1  0  0  0  0
 24 26  1  0  0  0  0
 26 27  1  0  0  0  0
 26 28  1  0  0  0  0
 26 29  1  0  0  0  0
M  END
$$$$

  -OEChem-03222214043D

 29 29  0     1  0  0  0  0  0999 V2000
   -3.1128   -3.9911    0.5872 H   0  0  0  0  0  0  0  0  0  0  0  0
   -3.0353   -3.0470    0.0401 C   0  0  0  0  0  0  0  0  0  0  0  0
   -3.7565   -2.3397    0.4562 H   0  0  0  0  0  0  0  0  0  0  0  0
   -3.2757   -3.2290   -1.0100 H   0  0  0  0  0  0  0  0  0  0  0  0
   -1.6301   -2.4885    0.1613 C   0  0  0  0  0  0  0  0  0  0  0  0
   -0.7908   -3.0886    0.8081 O   0  0  0  0  0  0  0  0  0  0  0  0
   -1.3078   -1.2975   -0.4587 N   0  0  0  0  0  0  0  0  0  0  0  0
   -2.0494   -0.8230   -0.9648 H   0  0  0  0  0  0  0  0  0  0  0  0
    0.0140   -0.6490   -0.3716 C   0  0  1  0  0  0  0  0  0  0  0  0
    0.7363   -1.4048   -0.7004 H   0  0  0  0  0  0  0  0  0  0  0  0
    0.1137    0.4991   -1.3971 C   0  0  0  0  0  0  0  0  0  0  0  0
    1.1613    0.6014   -1.6996 H   0  0  0  0  0  0  0  0  0  0  0  0
   -0.4543    0.2393   -2.2962 H   0  0  0  0  0  0  0  0  0  0  0  0
   -0.3440    1.8335   -0.8677 C   0  0  0  0  0  0  0  0  0  0  0  0
    0.3350    2.6552    0.0047 N   0  0  0  0  0  0  0  0  0  0  0  0
    1.2136    2.4336    0.4753 H   0  0  0  0  0  0  0  0  0  0  0  0
   -0.4272    3.7865    0.2215 C   0  0  0  0  0  0  0  0  0  0  0  0
   -0.1561    4.6055    0.8816 H   0  0  0  0  0  0  0  0  0  0  0  0
   -1.5338    3.7237   -0.4819 N   0  0  0  0  0  0  0  0  0  0  0  0
   -1.4861    2.5216   -1.1783 C   0  0  0  0  0  0  0  0  0  0  0  0
   -2.2528    2.1742   -1.8644 H   0  0  0  0  0  0  0  0  0  0  0  0
    0.4654   -0.2697    1.0590 C   0  0  0  0  0  0  0  0  0  0  0  0
    1.6622   -0.2230    1.3167 O   0  0  0  0  0  0  0  0  0  0  0  0
   -0.4137    0.3404    1.9381 N   0  0  0  0  0  0  0  0  0  0  0  0
   -1.3892    0.3783    1.6605 H   0  0  0  0  0  0  0  0  0  0  0  0
   -0.0297    0.8393    3.2523 C   0  0  0  0  0  0  0  0  0  0  0  0
    0.7265    1.6255    3.1595 H   0  0  0  0  0  0  0  0  0  0  0  0
   -0.9005    1.2567    3.7668 H   0  0  0  0  0  0  0  0  0  0  0  0
    0.3781    0.0279    3.8643 H   0  0  0  0  0  0  0  0  0  0  0  0
  1  2  1  0  0  0  0
  2  3  1  0  0  0  0
  2  4  1  0  0  0  0
  2  5  1  0  0  0  0
  5  6  2  0  0  0  0
  5  7  1  0  0  0  0
  7  8  1  0  0  0  0
  7  9  1  0  0  0  0
  9 10  1  0  0  0  0
  9 11  1  0  0  0  0
  9 22  1  0  0  0  0
 11 12  1  0  0  0  0
 11 13  1  0  0  0  0
 11 14  1  0  0  0  0
 14 15  1  0  0  0  0
 14 20  2  0  0  0  0
 15 16  1  0  0  0  0
 15 17  1  0  0  0  0
 17 18  1  0  0  0  0
 17 19  2  0  0  0  0
 19 20  1  0  0  0  0
 20 21  1  0  0  0  0
 22 23  2  0  0  0  0
 22 24  1  0  0  0  0
 24 25  1  0  0  0  0
 24 26  1  0  0  0  0
 26 27  1  0  0  0  0
 26 28  1  0  0  0  0
 26 29  1  0  0  0  0
M  END
$$$$

  -OEChem-03222214043D

 29 29  0     1  0  0  0  0  0999 V2000
   -3.1140   -4.0039    0.5767 H   0  0  0  0  0  0  0  0  0  0  0  0
   -3.0368   -3.0606    0.0286 C   0  0  0  0  0  0  0  0  0  0  0  0
   -3.7628   -2.3552    0.4396 H   0  0  0  0  0  0  0  0  0  0  0  0
   -3.2707   -3.2448   -1.0226 H   0  0  0  0  0  0  0  0  0  0  0  0
   -1.6341   -2.4975    0.1574 C   0  0  0  0  0  0  0  0  0  0  0  0
   -0.7996   -3.0894    0.8178 O   0  0  0  0  0  0  0  0  0  0  0  0
   -1.3093   -1.3120   -0.4717 N   0  0  0  0  0  0  0  0  0  0  0  0
   -2.0443   -0.8506   -0.9986 H   0  0  0  0  0  0  0  0  0  0  0  0
    0.0106   -0.6606   -0.3770 C   0  0  1  0  0  0  0  0  0  0  0  0
    0.7372   -1.4152   -0.6992 H   0  0  0  0  0  0  0  0  0  0  0  0
    0.1133    0.4883   -1.3992 C   0  0  0  0  0  0  0  0  0  0  0  0
    1.1598    0.5974   -1.7033 H   0  0  0  0  0  0  0  0  0  0  0  0
   -0.4576    0.2354   -2.2984 H   0  0  0  0  0  0  0  0  0  0  0  0
   -0.3569    1.8071   -0.8454 C   0  0  0  0  0  0  0  0  0  0  0  0
    0.4076    2.7471   -0.1918 N   0  0  0  0  0  0  0  0  0  0  0  0
    1.3825    2.6393    0.0879 H   0  0  0  0  0  0  0  0  0  0  0  0
   -0.4038    3.8168    0.1335 C   0  0  0  0  0  0  0  0  0  0  0  0
   -0.0830    4.7006    0.6776 H   0  0  0  0  0  0  0  0  0  0  0  0
   -1.6233    3.6065   -0.3050 N   0  0  0  0  0  0  0  0  0  0  0  0
   -1.6028    2.3675   -0.9337 C   0  0  0  0  0  0  0  0  0  0  0  0
   -2.4581    1.9063   -1.4180 H   0  0  0  0  0  0  0  0  0  0  0  0
    0.4592   -0.2612    1.0496 C   0  0  0  0  0  0  0  0  0  0  0  0
    1.6547   -0.2446    1.3173 O   0  0  0  0  0  0  0  0  0  0  0  0
   -0.4191    0.3615    1.9205 N   0  0  0  0  0  0  0  0  0  0  0  0
   -1.3832    0.4534    1.6174 H   0  0  0  0  0  0  0  0  0  0  0  0
   -0.0248    0.9172    3.2084 C   0  0  0  0  0  0  0  0  0  0  0  0
    0.7120    1.7154    3.0726 H   0  0  0  0  0  0  0  0  0  0  0  0
   -0.8960    1.3341    3.7222 H   0  0  0  0  0  0  0  0  0  0  0  0
    0.4109    0.1382    3.8429 H   0  0  0  0  0  0  0  0  0  0  0  0
  1  2  1  0  0  0  0
  2  3  1  0  0  0  0
  2  4  1  0  0  0  0
  2  5  1  0  0  0  0
  5  6  2  0  0  0  0
  5  7  1  0  0  0  0
  7  8  1  0  0  0  0
  7  9  1  0  0  0  0
  9 10  1  0  0  0  0
  9 11  1  0  0  0  0
  9 22  1  0  0  0  0
 11 12  1  0  0  0  0
 11 13  1  0  0  0  0
 11 14  1  0  0  0  0
 14 15  1  0  0  0  0
 14 20  2  0  0  0  0
 15 16  1  0  0  0  0
 15 17  1  0  0  0  0
 17 18  1  0  0  0  0
 17 19  2  0  0  0  0
 19 20  1  0  0  0  0
 20 21  1  0  0  0  0
 22 23  2  0  0  0  0
 22 24  1  0  0  0  0
 24 25  1  0  0  0  0
 24 26  1  0  0  0  0
 26 27  1  0  0  0  0
 26 28  1  0  0  0  0
 26 29  1  0  0  0  0
M  END
$$$$

  -OEChem-03222214043D

 29 29  0     1  0  0  0  0  0999 V2000
   -3.1191   -4.0237    0.5498 H   0  0  0  0  0  0  0  0  0  0  0  0
   -3.0410   -3.0786    0.0047 C   0  0  0  0  0  0  0  0  0  0  0  0
   -3.7822   -2.3815    0.4028 H   0  0  0  0  0  0  0  0  0  0  0  0
   -3.2523   -3.2640   -1.0511 H   0  0  0  0  0  0  0  0  0  0  0  0
   -1.6471   -2.5011    0.1619 C   0  0  0  0  0  0  0  0  0  0  0  0
   -0.8221   -3.0831    0.8424 O   0  0  0  0  0  0  0  0  0  0  0  0
   -1.3186   -1.3166   -0.4675 N   0  0  0  0  0  0  0  0  0  0  0  0
   -2.0390   -0.8764   -1.0312 H   0  0  0  0  0  0  0  0  0  0  0  0
    0.0014   -0.6657   -0.3674 C   0  0  1  0  0  0  0  0  0  0  0  0
    0.7271   -1.4222   -0.6871 H   0  0  0  0  0  0  0  0  0  0  0  0
    0.1089    0.4828   -1.3895 C   0  0  0  0  0  0  0  0  0  0  0  0
    1.1577    0.5903   -1.6857 H   0  0  0  0  0  0  0  0  0  0  0  0
   -0.4561    0.2321   -2.2929 H   0  0  0  0  0  0  0  0  0  0  0  0
   -0.3647    1.8017   -0.8369 C   0  0  0  0  0  0  0  0  0  0  0  0
    0.4115    2.8657   -0.4370 N   0  0  0  0  0  0  0  0  0  0  0  0
    1.4291    2.8815   -0.3823 H   0  0  0  0  0  0  0  0  0  0  0  0
   -0.4266    3.8788   -0.0109 C   0  0  0  0  0  0  0  0  0  0  0  0
   -0.0987    4.8353    0.3858 H   0  0  0  0  0  0  0  0  0  0  0  0
   -1.6804    3.5160   -0.1506 N   0  0  0  0  0  0  0  0  0  0  0  0
   -1.6551    2.2321   -0.6797 C   0  0  0  0  0  0  0  0  0  0  0  0
   -2.5375    1.6493   -0.9257 H   0  0  0  0  0  0  0  0  0  0  0  0
    0.4544   -0.2599    1.0560 C   0  0  0  0  0  0  0  0  0  0  0  0
    1.6495   -0.2682    1.3258 O   0  0  0  0  0  0  0  0  0  0  0  0
   -0.4182    0.3689    1.9278 N   0  0  0  0  0  0  0  0  0  0  0  0
   -1.3779    0.4840    1.6196 H   0  0  0  0  0  0  0  0  0  0  0  0
   -0.0085    0.9515    3.1982 C   0  0  0  0  0  0  0  0  0  0  0  0
    0.7152    1.7565    3.0343 H   0  0  0  0  0  0  0  0  0  0  0  0
   -0.8757    1.3661    3.7208 H   0  0  0  0  0  0  0  0  0  0  0  0
    0.4488    0.1891    3.8377 H   0  0  0  0  0  0  0  0  0  0  0  0
  1  2  1  0  0  0  0
  2  3  1  0  0  0  0
  2  4  1  0  0  0  0
  2  5  1  0  0  0  0
  5  6  2  0  0  0  0
  5  7  1  0  0  0  0
  7  8  1  0  0  0  0
  7  9  1  0  0  0  0
  9 10  1  0  0  0  0
  9 11  1  0  0  0  0
  9 22  1  0  0  0  0
 11 12  1  0  0  0  0
 11 13  1  0  0  0  0
 11 14  1  0  0  0  0
 14 15  1  0  0  0  0
 14 20  2  0  0  0  0
 15 16  1  0  0  0  0
 15 17  1  0  0  0  0
 17 18  1  0  0  0  0
 17 19  2  0  0  0  0
 19 20  1  0  0  0  0
 20 21  1  0  0  0  0
 22 23  2  0  0  0  0
 22 24  1  0  0  0  0
 24 25  1  0  0  0  0
 24 26  1  0  0  0  0
 26 27  1  0  0  0  0
 26 28  1  0  0  0  0
 26 29  1  0  0  0  0
M  END
$$$$

  -OEChem-03222214043D

 29 29  0     1  0  0  0  0  0999 V2000
   -3.1072   -4.0584    0.5149 H   0  0  0  0  0  0  0  0  0  0  0  0
   -3.0337   -3.1100   -0.0248 C   0  0  0  0  0  0  0  0  0  0  0  0
   -3.7977   -2.4286    0.3567 H   0  0  0  0  0  0  0  0  0  0  0  0
   -3.2151   -3.2952   -1.0862 H   0  0  0  0  0  0  0  0  0  0  0  0
   -1.6555   -2.5065    0.1691 C   0  0  0  0  0  0  0  0  0  0  0  0
   -0.8360   -3.0764    0.8661 O   0  0  0  0  0  0  0  0  0  0  0  0
   -1.3346   -1.3145   -0.4498 N   0  0  0  0  0  0  0  0  0  0  0  0
   -2.0443   -0.8951   -1.0422 H   0  0  0  0  0  0  0  0  0  0  0  0
   -0.0180   -0.6577   -0.3467 C   0  0  1  0  0  0  0  0  0  0  0  0
    0.7070   -1.4134   -0.6695 H   0  0  0  0  0  0  0  0  0  0  0  0
    0.0920    0.4884   -1.3714 C   0  0  0  0  0  0  0  0  0  0  0  0
    1.1458    0.5923   -1.6507 H   0  0  0  0  0  0  0  0  0  0  0  0
   -0.4574    0.2327   -2.2829 H   0  0  0  0  0  0  0  0  0  0  0  0
   -0.3843    1.8182   -0.8442 C   0  0  0  0  0  0  0  0  0  0  0  0
    0.3468    2.9782   -0.7228 N   0  0  0  0  0  0  0  0  0  0  0  0
    1.3432    3.0845   -0.9061 H   0  0  0  0  0  0  0  0  0  0  0  0
   -0.4796    3.9632   -0.2147 C   0  0  0  0  0  0  0  0  0  0  0  0
   -0.1733    4.9815    0.0083 H   0  0  0  0  0  0  0  0  0  0  0  0
   -1.6909    3.4897   -0.0383 N   0  0  0  0  0  0  0  0  0  0  0  0
   -1.6467    2.1601   -0.4361 C   0  0  0  0  0  0  0  0  0  0  0  0
   -2.4970    1.4854   -0.4206 H   0  0  0  0  0  0  0  0  0  0  0  0
    0.4470   -0.2583    1.0746 C   0  0  0  0  0  0  0  0  0  0  0  0
    1.6444   -0.2742    1.3327 O   0  0  0  0  0  0  0  0  0  0  0  0
   -0.4156    0.3616    1.9623 N   0  0  0  0  0  0  0  0  0  0  0  0
   -1.3862    0.4517    1.6822 H   0  0  0  0  0  0  0  0  0  0  0  0
    0.0097    0.9362    3.2315 C   0  0  0  0  0  0  0  0  0  0  0  0
    0.7319    1.7417    3.0633 H   0  0  0  0  0  0  0  0  0  0  0  0
   -0.8506    1.3491    3.7667 H   0  0  0  0  0  0  0  0  0  0  0  0
    0.4740    0.1704    3.8616 H   0  0  0  0  0  0  0  0  0  0  0  0
  1  2  1  0  0  0  0
  2  3  1  0  0  0  0
  2  4  1  0  0  0  0
  2  5  1  0  0  0  0
  5  6  2  0  0  0  0
  5  7  1  0  0  0  0
  7  8  1  0  0  0  0
  7  9  1  0  0  0  0
  9 10  1  0  0  0  0
  9 11  1  0  0  0  0
  9 22  1  0  0  0  0
 11 12  1  0  0  0  0
 11 13  1  0  0  0  0
 11 14  1  0  0  0  0
 14 15  1  0  0  0  0
 14 20  2  0  0  0  0
 15 16  1  0  0  0  0
 15 17  1  0  0  0  0
 17 18  1  0  0  0  0
 17 19  2  0  0  0  0
 19 20  1  0  0  0  0
 20 21  1  0  0  0  0
 22 23  2  0  0  0  0
 22 24  1  0  0  0  0
 24 25  1  0  0  0  0
 24 26  1  0  0  0  0
 26 27  1  0  0  0  0
 26 28  1  0  0  0  0
 26 29  1  0  0  0  0
M  END
$$$$

  -OEChem-03222214043D

 29 29  0     1  0  0  0  0  0999 V2000
   -3.0765   -4.0864    0.4903 H   0  0  0  0  0  0  0  0  0  0  0  0
   -3.0163   -3.1276   -0.0326 C   0  0  0  0  0  0  0  0  0  0  0  0
   -3.7857   -2.4616    0.3651 H   0  0  0  0  0  0  0  0  0  0  0  0
   -3.2017   -3.2959   -1.0962 H   0  0  0  0  0  0  0  0  0  0  0  0
   -1.6441   -2.5121    0.1653 C   0  0  0  0  0  0  0  0  0  0  0  0
   -0.8165   -3.0814    0.8529 O   0  0  0  0  0  0  0  0  0  0  0  0
   -1.3408   -1.3039   -0.4300 N   0  0  0  0  0  0  0  0  0  0  0  0
   -2.0563   -0.8841   -1.0156 H   0  0  0  0  0  0  0  0  0  0  0  0
   -0.0321   -0.6325   -0.3221 C   0  0  1  0  0  0  0  0  0  0  0  0
    0.6953   -1.3831   -0.6525 H   0  0  0  0  0  0  0  0  0  0  0  0
    0.0753    0.5102   -1.3516 C   0  0  0  0  0  0  0  0  0  0  0  0
    1.1345    0.6171   -1.6090 H   0  0  0  0  0  0  0  0  0  0  0  0
   -0.4518    0.2403   -2.2721 H   0  0  0  0  0  0  0  0  0  0  0  0
   -0.4111    1.8532   -0.8643 C   0  0  0  0  0  0  0  0  0  0  0  0
    0.2149    3.0688   -1.0271 N   0  0  0  0  0  0  0  0  0  0  0  0
    1.1325    3.2235   -1.4406 H   0  0  0  0  0  0  0  0  0  0  0  0
   -0.5817    4.0505   -0.4677 C   0  0  0  0  0  0  0  0  0  0  0  0
   -0.3357    5.1080   -0.4310 H   0  0  0  0  0  0  0  0  0  0  0  0
   -1.6819    3.5207    0.0118 N   0  0  0  0  0  0  0  0  0  0  0  0
   -1.5895    2.1572   -0.2334 C   0  0  0  0  0  0  0  0  0  0  0  0
   -2.3536    1.4337    0.0331 H   0  0  0  0  0  0  0  0  0  0  0  0
    0.4462   -0.2527    1.1001 C   0  0  0  0  0  0  0  0  0  0  0  0
    1.6466   -0.2651    1.3427 O   0  0  0  0  0  0  0  0  0  0  0  0
   -0.4084    0.3403    2.0131 N   0  0  0  0  0  0  0  0  0  0  0  0
   -1.3957    0.3576    1.7824 H   0  0  0  0  0  0  0  0  0  0  0  0
    0.0238    0.8505    3.3077 C   0  0  0  0  0  0  0  0  0  0  0  0
    0.7738    1.6378    3.1777 H   0  0  0  0  0  0  0  0  0  0  0  0
   -0.8275    1.2721    3.8508 H   0  0  0  0  0  0  0  0  0  0  0  0
    0.4568    0.0457    3.9112 H   0  0  0  0  0  0  0  0  0  0  0  0
  1  2  1  0  0  0  0
  2  3  1  0  0  0  0
  2  4  1  0  0  0  0
  2  5  1  0  0  0  0
  5  6  2  0  0  0  0
  5  7  1  0  0  0  0
  7  8  1  0  0  0  0
  7  9  1  0  0  0  0
  9 10  1  0  0  0  0
  9 11  1  0  0  0  0
  9 22  1  0  0  0  0
 11 12  1  0  0  0  0
 11 13  1  0  0  0  0
 11 14  1  0  0  0  0
 14 15  1  0  0  0  0
 14 20  2  0  0  0  0
 15 16  1  0  0  0  0
 15 17  1  0  0  0  0
 17 18  1  0  0  0  0
 17 19  2  0  0  0  0
 19 20  1  0  0  0  0
 20 21  1  0  0  0  0
 22 23  2  0  0  0  0
 22 24  1  0  0  0  0
 24 25  1  0  0  0  0
 24 26  1  0  0  0  0
 26 27  1  0  0  0  0
 26 28  1  0  0  0  0
 26 29  1  0  0  0  0
M  END
$$$$

  -OEChem-03222214043D

 29 29  0     1  0  0  0  0  0999 V2000
   -3.0484   -4.1130    0.4577 H   0  0  0  0  0  0  0  0  0  0  0  0
   -3.0001   -3.1432   -0.0458 C   0  0  0  0  0  0  0  0  0  0  0  0
   -3.7710   -2.4916    0.3722 H   0  0  0  0  0  0  0  0  0  0  0  0
   -3.1935   -3.2907   -1.1109 H   0  0  0  0  0  0  0  0  0  0  0  0
   -1.6310   -2.5209    0.1526 C   0  0  0  0  0  0  0  0  0  0  0  0
   -0.7905   -3.0989    0.8172 O   0  0  0  0  0  0  0  0  0  0  0  0
   -1.3485   -1.2912   -0.4081 N   0  0  0  0  0  0  0  0  0  0  0  0
   -2.0784   -0.8578   -0.9660 H   0  0  0  0  0  0  0  0  0  0  0  0
   -0.0486   -0.6049   -0.2924 C   0  0  1  0  0  0  0  0  0  0  0  0
    0.6793   -1.3494   -0.6359 H   0  0  0  0  0  0  0  0  0  0  0  0
    0.0584    0.5394   -1.3213 C   0  0  0  0  0  0  0  0  0  0  0  0
    1.1220    0.6508   -1.5592 H   0  0  0  0  0  0  0  0  0  0  0  0
   -0.4487    0.2579   -2.2494 H   0  0  0  0  0  0  0  0  0  0  0  0
   -0.4381    1.8928   -0.8685 C   0  0  0  0  0  0  0  0  0  0  0  0
    0.0349    3.1156   -1.2919 N   0  0  0  0  0  0  0  0  0  0  0  0
    0.8335    3.2736   -1.9034 H   0  0  0  0  0  0  0  0  0  0  0  0
   -0.7238    4.1104   -0.7039 C   0  0  0  0  0  0  0  0  0  0  0  0
   -0.5686    5.1772   -0.8394 H   0  0  0  0  0  0  0  0  0  0  0  0
   -1.6645    3.5797    0.0393 N   0  0  0  0  0  0  0  0  0  0  0  0
   -1.5012    2.2043   -0.0597 C   0  0  0  0  0  0  0  0  0  0  0  0
   -2.1498    1.4777    0.4190 H   0  0  0  0  0  0  0  0  0  0  0  0
    0.4492   -0.2561    1.1307 C   0  0  0  0  0  0  0  0  0  0  0  0
    1.6543   -0.2547    1.3482 O   0  0  0  0  0  0  0  0  0  0  0  0
   -0.3935    0.3001    2.0769 N   0  0  0  0  0  0  0  0  0  0  0  0
   -1.3892    0.2594    1.8896 H   0  0  0  0  0  0  0  0  0  0  0  0
    0.0587    0.7562    3.3848 C   0  0  0  0  0  0  0  0  0  0  0  0
    0.8118    1.5438    3.2765 H   0  0  0  0  0  0  0  0  0  0  0  0
   -0.7824    1.1605    3.9559 H   0  0  0  0  0  0  0  0  0  0  0  0
    0.4949   -0.0744    3.9494 H   0  0  0  0  0  0  0  0  0  0  0  0
  1  2  1  0  0  0  0
  2  3  1  0  0  0  0
  2  4  1  0  0  0  0
  2  5  1  0  0  0  0
  5  6  2  0  0  0  0
  5  7  1  0  0  0  0
  7  8  1  0  0  0  0
  7  9  1  0  0  0  0
  9 10  1  0  0  0  0
  9 11  1  0  0  0  0
  9 22  1  0  0  0  0
 11 12  1  0  0  0  0
 11 13  1  0  0  0  0
 11 14  1  0  0  0  0
 14 15  1  0  0  0  0
 14 20  2  0  0  0  0
 15 16  1  0  0  0  0
 15 17  1  0  0  0  0
 17 18  1  0  0  0  0
 17 19  2  0  0  0  0
 19 20  1  0  0  0  0
 20 21  1  0  0  0  0
 22 23  2  0  0  0  0
 22 24  1  0  0  0  0
 24 25  1  0  0  0  0
 24 26  1  0  0  0  0
 26 27  1  0  0  0  0
 26 28  1  0  0  0  0
 26 29  1  0  0  0  0
M  END
$$$$

  -OEChem-03222214043D

 29 29  0     1  0  0  0  0  0999 V2000
   -3.0599   -4.1254    0.3781 H   0  0  0  0  0  0  0  0  0  0  0  0
   -3.0150   -3.1412   -0.0968 C   0  0  0  0  0  0  0  0  0  0  0  0
   -3.7884   -2.5046    0.3396 H   0  0  0  0  0  0  0  0  0  0  0  0
   -3.2072   -3.2578   -1.1660 H   0  0  0  0  0  0  0  0  0  0  0  0
   -1.6479   -2.5205    0.1196 C   0  0  0  0  0  0  0  0  0  0  0  0
   -0.7979   -3.1238    0.7488 O   0  0  0  0  0  0  0  0  0  0  0  0
   -1.3763   -1.2657   -0.3876 N   0  0  0  0  0  0  0  0  0  0  0  0
   -2.1199   -0.8029   -0.9024 H   0  0  0  0  0  0  0  0  0  0  0  0
   -0.0786   -0.5785   -0.2585 C   0  0  1  0  0  0  0  0  0  0  0  0
    0.6407   -1.3214   -0.6233 H   0  0  0  0  0  0  0  0  0  0  0  0
    0.0450    0.5737   -1.2776 C   0  0  0  0  0  0  0  0  0  0  0  0
    1.1123    0.6788   -1.5011 H   0  0  0  0  0  0  0  0  0  0  0  0
   -0.4500    0.2909   -2.2117 H   0  0  0  0  0  0  0  0  0  0  0  0
   -0.4449    1.9396   -0.8521 C   0  0  0  0  0  0  0  0  0  0  0  0
   -0.1479    3.1203   -1.4984 N   0  0  0  0  0  0  0  0  0  0  0  0
    0.5066    3.2348   -2.2697 H   0  0  0  0  0  0  0  0  0  0  0  0
   -0.8468    4.1480   -0.8943 C   0  0  0  0  0  0  0  0  0  0  0  0
   -0.7883    5.1954   -1.1771 H   0  0  0  0  0  0  0  0  0  0  0  0
   -1.5984    3.6737    0.0683 N   0  0  0  0  0  0  0  0  0  0  0  0
   -1.3667    2.3044    0.0969 C   0  0  0  0  0  0  0  0  0  0  0  0
   -1.8930    1.6199    0.7519 H   0  0  0  0  0  0  0  0  0  0  0  0
    0.4471   -0.2859    1.1672 C   0  0  0  0  0  0  0  0  0  0  0  0
    1.6572   -0.2733    1.3536 O   0  0  0  0  0  0  0  0  0  0  0  0
   -0.3745    0.2255    2.1557 N   0  0  0  0  0  0  0  0  0  0  0  0
   -1.3749    0.1536    2.0045 H   0  0  0  0  0  0  0  0  0  0  0  0
    0.1104    0.6415    3.4658 C   0  0  0  0  0  0  0  0  0  0  0  0
    0.8418    1.4501    3.3630 H   0  0  0  0  0  0  0  0  0  0  0  0
   -0.7201    1.0047    4.0786 H   0  0  0  0  0  0  0  0  0  0  0  0
    0.5837   -0.1990    3.9842 H   0  0  0  0  0  0  0  0  0  0  0  0
  1  2  1  0  0  0  0
  2  3  1  0  0  0  0
  2  4  1  0  0  0  0
  2  5  1  0  0  0  0
  5  6  2  0  0  0  0
  5  7  1  0  0  0  0
  7  8  1  0  0  0  0
  7  9  1  0  0  0  0
  9 10  1  0  0  0  0
  9 11  1  0  0  0  0
  9 22  1  0  0  0  0
 11 12  1  0  0  0  0
 11 13  1  0  0  0  0
 11 14  1  0  0  0  0
 14 15  1  0  0  0  0
 14 20  2  0  0  0  0
 15 16  1  0  0  0  0
 15 17  1  0  0  0  0
 17 18  1  0  0  0  0
 17 19  2  0  0  0  0
 19 20  1  0  0  0  0
 20 21  1  0  0  0  0
 22 23  2  0  0  0  0
 22 24  1  0  0  0  0
 24 25  1  0  0  0  0
 24 26  1  0  0  0  0
 26 27  1  0  0  0  0
 26 28  1  0  0  0  0
 26 29  1  0  0  0  0
M  END
$$$$

  -OEChem-03222214043D

 29 29  0     1  0  0  0  0  0999 V2000
   -2.9348   -4.1628    0.3736 H   0  0  0  0  0  0  0  0  0  0  0  0
   -2.9334   -3.1603   -0.0638 C   0  0  0  0  0  0  0  0  0  0  0  0
   -3.6883   -2.5553    0.4436 H   0  0  0  0  0  0  0  0  0  0  0  0
   -3.1880   -3.2389   -1.1233 H   0  0  0  0  0  0  0  0  0  0  0  0
   -1.5649   -2.5256    0.0951 C   0  0  0  0  0  0  0  0  0  0  0  0
   -0.6644   -3.1511    0.6241 O   0  0  0  0  0  0  0  0  0  0  0  0
   -1.3493   -1.2353   -0.3489 N   0  0  0  0  0  0  0  0  0  0  0  0
   -2.1408   -0.7495   -0.7606 H   0  0  0  0  0  0  0  0  0  0  0  0
   -0.0678   -0.5135   -0.2284 C   0  0  1  0  0  0  0  0  0  0  0  0
    0.6595   -1.2306   -0.6280 H   0  0  0  0  0  0  0  0  0  0  0  0
    0.0156    0.6557   -1.2440 C   0  0  0  0  0  0  0  0  0  0  0  0
    1.0171    0.5996   -1.6843 H   0  0  0  0  0  0  0  0  0  0  0  0
   -0.6926    0.4593   -2.0550 H   0  0  0  0  0  0  0  0  0  0  0  0
   -0.1542    2.1020   -0.8177 C   0  0  0  0  0  0  0  0  0  0  0  0
   -0.0773    3.1380   -1.7270 N   0  0  0  0  0  0  0  0  0  0  0  0
    0.1481    3.0512   -2.7157 H   0  0  0  0  0  0  0  0  0  0  0  0
   -0.3115    4.3334   -1.0774 C   0  0  0  0  0  0  0  0  0  0  0  0
   -0.3036    5.3140   -1.5448 H   0  0  0  0  0  0  0  0  0  0  0  0
   -0.5512    4.1103    0.1887 N   0  0  0  0  0  0  0  0  0  0  0  0
   -0.4513    2.7348    0.3670 C   0  0  0  0  0  0  0  0  0  0  0  0
   -0.6203    2.2637    1.3230 H   0  0  0  0  0  0  0  0  0  0  0  0
    0.4596   -0.3099    1.2095 C   0  0  0  0  0  0  0  0  0  0  0  0
    1.6678   -0.2898    1.4033 O   0  0  0  0  0  0  0  0  0  0  0  0
   -0.3821    0.1009    2.2280 N   0  0  0  0  0  0  0  0  0  0  0  0
   -1.3789    0.0246    2.0557 H   0  0  0  0  0  0  0  0  0  0  0  0
    0.0790    0.3646    3.5859 C   0  0  0  0  0  0  0  0  0  0  0  0
    0.8496    1.1428    3.5849 H   0  0  0  0  0  0  0  0  0  0  0  0
   -0.7532    0.7067    4.2083 H   0  0  0  0  0  0  0  0  0  0  0  0
    0.4961   -0.5448    4.0314 H   0  0  0  0  0  0  0  0  0  0  0  0
  1  2  1  0  0  0  0
  2  3  1  0  0  0  0
  2  4  1  0  0  0  0
  2  5  1  0  0  0  0
  5  6  2  0  0  0  0
  5  7  1  0  0  0  0
  7  8  1  0  0  0  0
  7  9  1  0  0  0  0
  9 10  1  0  0  0  0
  9 11  1  0  0  0  0
  9 22  1  0  0  0  0
 11 12  1  0  0  0  0
 11 13  1  0  0  0  0
 11 14  1  0  0  0  0
 14 15  1  0  0  0  0
 14 20  2  0  0  0  0
 15 16  1  0  0  0  0
 15 17  1  0  0  0  0
 17 18  1  0  0  0  0
 17 19  2  0  0  0  0
 19 20  1  0  0  0  0
 20 21  1  0  0  0  0
 22 23  2  0  0  0  0
 22 24  1  0  0  0  0
 24 25  1  0  0  0  0
 24 26  1  0  0  0  0
 26 27  1  0  0  0  0
 26 28  1  0  0  0  0
 26 29  1  0  0  0  0
M  END
$$$$

  -OEChem-03222214043D

 29 29  0     1  0  0  0  0  0999 V2000
   -3.0607   -4.0710    0.4237 H   0  0  0  0  0  0  0  0  0  0  0  0
   -3.0141   -3.0803   -0.0377 C   0  0  0  0  0  0  0  0  0  0  0  0
   -3.7364   -2.4280    0.4587 H   0  0  0  0  0  0  0  0  0  0  0  0
   -3.2793   -3.1722   -1.0936 H   0  0  0  0  0  0  0  0  0  0  0  0
   -1.6159   -2.5078    0.0990 C   0  0  0  0  0  0  0  0  0  0  0  0
   -0.7430   -3.1633    0.6373 O   0  0  0  0  0  0  0  0  0  0  0  0
   -1.3407   -1.2425   -0.3824 N   0  0  0  0  0  0  0  0  0  0  0  0
   -2.1132   -0.7280   -0.7945 H   0  0  0  0  0  0  0  0  0  0  0  0
   -0.0329   -0.5675   -0.2583 C   0  0  1  0  0  0  0  0  0  0  0  0
    0.6934   -1.2896   -0.6501 H   0  0  0  0  0  0  0  0  0  0  0  0
    0.0407    0.6248   -1.2505 C   0  0  0  0  0  0  0  0  0  0  0  0
    1.0194    0.5609   -1.7382 H   0  0  0  0  0  0  0  0  0  0  0  0
   -0.7056    0.4605   -2.0339 H   0  0  0  0  0  0  0  0  0  0  0  0
   -0.0883    2.0641   -0.7841 C   0  0  0  0  0  0  0  0  0  0  0  0
   -0.3305    3.0964   -1.6687 N   0  0  0  0  0  0  0  0  0  0  0  0
   -0.4523    3.0072   -2.6750 H   0  0  0  0  0  0  0  0  0  0  0  0
   -0.3531    4.2921   -0.9793 C   0  0  0  0  0  0  0  0  0  0  0  0
   -0.5354    5.2678   -1.4208 H   0  0  0  0  0  0  0  0  0  0  0  0
   -0.1235    4.0765    0.2897 N   0  0  0  0  0  0  0  0  0  0  0  0
    0.0745    2.7063    0.4230 C   0  0  0  0  0  0  0  0  0  0  0  0
    0.3544    2.2486    1.3618 H   0  0  0  0  0  0  0  0  0  0  0  0
    0.4312   -0.3585    1.1991 C   0  0  0  0  0  0  0  0  0  0  0  0
    1.6257   -0.3913    1.4619 O   0  0  0  0  0  0  0  0  0  0  0  0
   -0.4526    0.1076    2.1582 N   0  0  0  0  0  0  0  0  0  0  0  0
   -1.4372    0.1104    1.9145 H   0  0  0  0  0  0  0  0  0  0  0  0
   -0.0654    0.3710    3.5388 C   0  0  0  0  0  0  0  0  0  0  0  0
    0.7385    1.1136    3.5776 H   0  0  0  0  0  0  0  0  0  0  0  0
   -0.9182    0.7587    4.1040 H   0  0  0  0  0  0  0  0  0  0  0  0
    0.2819   -0.5493    4.0200 H   0  0  0  0  0  0  0  0  0  0  0  0
  1  2  1  0  0  0  0
  2  3  1  0  0  0  0
  2  4  1  0  0  0  0
  2  5  1  0  0  0  0
  5  6  2  0  0  0  0
  5  7  1  0  0  0  0
  7  8  1  0  0  0  0
  7  9  1  0  0  0  0
  9 10  1  0  0  0  0
  9 11  1  0  0  0  0
  9 22  1  0  0  0  0
 11 12  1  0  0  0  0
 11 13  1  0  0  0  0
 11 14  1  0  0  0  0
 14 15  1  0  0  0  0
 14 20  2  0  0  0  0
 15 16  1  0  0  0  0
 15 17  1  0  0  0  0
 17 18  1  0  0  0  0
 17 19  2  0  0  0  0
 19 20  1  0  0  0  0
 20 21  1  0  0  0  0
 22 23  2  0  0  0  0
 22 24  1  0  0  0  0
 24 25  1  0  0  0  0
 24 26  1  0  0  0  0
 26 27  1  0  0  0  0
 26 28  1  0  0  0  0
 26 29  1  0  0  0  0
M  END
$$$$

  -OEChem-03222214043D

 29 29  0     1  0  0  0  0  0999 V2000
   -3.0909   -4.0306    0.5105 H   0  0  0  0  0  0  0  0  0  0  0  0
   -3.0241   -3.0636    0.0038 C   0  0  0  0  0  0  0  0  0  0  0  0
   -3.7296   -2.3732    0.4717 H   0  0  0  0  0  0  0  0  0  0  0  0
   -3.2949   -3.1974   -1.0461 H   0  0  0  0  0  0  0  0  0  0  0  0
   -1.6128   -2.5175    0.1087 C   0  0  0  0  0  0  0  0  0  0  0  0
   -0.7462   -3.1779    0.6512 O   0  0  0  0  0  0  0  0  0  0  0  0
   -1.3186   -1.2715   -0.4102 N   0  0  0  0  0  0  0  0  0  0  0  0
   -2.0886   -0.7480   -0.8149 H   0  0  0  0  0  0  0  0  0  0  0  0
   -0.0040   -0.6100   -0.2888 C   0  0  1  0  0  0  0  0  0  0  0  0
    0.7258   -1.3337   -0.6701 H   0  0  0  0  0  0  0  0  0  0  0  0
    0.0534    0.5855   -1.2784 C   0  0  0  0  0  0  0  0  0  0  0  0
    1.0256    0.5352   -1.7802 H   0  0  0  0  0  0  0  0  0  0  0  0
   -0.7019    0.4322   -2.0554 H   0  0  0  0  0  0  0  0  0  0  0  0
   -0.0747    2.0073   -0.7634 C   0  0  0  0  0  0  0  0  0  0  0  0
   -0.6224    3.0338   -1.5060 N   0  0  0  0  0  0  0  0  0  0  0  0
   -1.0109    2.9562   -2.4432 H   0  0  0  0  0  0  0  0  0  0  0  0
   -0.5281    4.2105   -0.7892 C   0  0  0  0  0  0  0  0  0  0  0  0
   -0.8927    5.1783   -1.1217 H   0  0  0  0  0  0  0  0  0  0  0  0
    0.0669    3.9891    0.3542 N   0  0  0  0  0  0  0  0  0  0  0  0
    0.3852    2.6350    0.3726 C   0  0  0  0  0  0  0  0  0  0  0  0
    0.9502    2.1679    1.1714 H   0  0  0  0  0  0  0  0  0  0  0  0
    0.4407   -0.3614    1.1686 C   0  0  0  0  0  0  0  0  0  0  0  0
    1.6283   -0.4223    1.4574 O   0  0  0  0  0  0  0  0  0  0  0  0
   -0.4515    0.1481    2.0969 N   0  0  0  0  0  0  0  0  0  0  0  0
   -1.4243    0.2131    1.8177 H   0  0  0  0  0  0  0  0  0  0  0  0
   -0.0832    0.4801    3.4677 C   0  0  0  0  0  0  0  0  0  0  0  0
    0.6974    1.2479    3.4811 H   0  0  0  0  0  0  0  0  0  0  0  0
   -0.9523    0.8640    4.0102 H   0  0  0  0  0  0  0  0  0  0  0  0
    0.2873   -0.4084    3.9898 H   0  0  0  0  0  0  0  0  0  0  0  0
  1  2  1  0  0  0  0
  2  3  1  0  0  0  0
  2  4  1  0  0  0  0
  2  5  1  0  0  0  0
  5  6  2  0  0  0  0
  5  7  1  0  0  0  0
  7  8  1  0  0  0  0
  7  9  1  0  0  0  0
  9 10  1  0  0  0  0
  9 11  1  0  0  0  0
  9 22  1  0  0  0  0
 11 12  1  0  0  0  0
 11 13  1  0  0  0  0
 11 14  1  0  0  0  0
 14 15  1  0  0  0  0
 14 20  2  0  0  0  0
 15 16  1  0  0  0  0
 15 17  1  0  0  0  0
 17 18  1  0  0  0  0
 17 19  2  0  0  0  0
 19 20  1  0  0  0  0
 20 21  1  0  0  0  0
 22 23  2  0  0  0  0
 22 24  1  0  0  0  0
 24 25  1  0  0  0  0
 24 26  1  0  0  0  0
 26 27  1  0  0  0  0
 26 28  1  0  0  0  0
 26 29  1  0  0  0  0
M  END
$$$$

  -OEChem-03222214043D

 29 29  0     1  0  0  0  0  0999 V2000
   -3.1021   -4.0416    0.5105 H   0  0  0  0  0  0  0  0  0  0  0  0
   -3.0320   -3.0755    0.0022 C   0  0  0  0  0  0  0  0  0  0  0  0
   -3.7380   -2.3832    0.4667 H   0  0  0  0  0  0  0  0  0  0  0  0
   -3.2998   -3.2113   -1.0483 H   0  0  0  0  0  0  0  0  0  0  0  0
   -1.6200   -2.5317    0.1116 C   0  0  0  0  0  0  0  0  0  0  0  0
   -0.7614   -3.1860    0.6740 O   0  0  0  0  0  0  0  0  0  0  0  0
   -1.3140   -1.2986   -0.4308 N   0  0  0  0  0  0  0  0  0  0  0  0
   -2.0766   -0.7793   -0.8533 H   0  0  0  0  0  0  0  0  0  0  0  0
    0.0021   -0.6420   -0.3038 C   0  0  1  0  0  0  0  0  0  0  0  0
    0.7341   -1.3701   -0.6720 H   0  0  0  0  0  0  0  0  0  0  0  0
    0.0633    0.5509   -1.2940 C   0  0  0  0  0  0  0  0  0  0  0  0
    1.0421    0.5087   -1.7837 H   0  0  0  0  0  0  0  0  0  0  0  0
   -0.6820    0.4082   -2.0824 H   0  0  0  0  0  0  0  0  0  0  0  0
   -0.0699    1.9531   -0.7353 C   0  0  0  0  0  0  0  0  0  0  0  0
   -0.8623    2.9440   -1.2772 N   0  0  0  0  0  0  0  0  0  0  0  0
   -1.4656    2.8552   -2.0917 H   0  0  0  0  0  0  0  0  0  0  0  0
   -0.6682    4.1115   -0.5643 C   0  0  0  0  0  0  0  0  0  0  0  0
   -1.1702    5.0551   -0.7586 H   0  0  0  0  0  0  0  0  0  0  0  0
    0.2140    3.9163    0.3822 N   0  0  0  0  0  0  0  0  0  0  0  0
    0.6194    2.5899    0.2712 C   0  0  0  0  0  0  0  0  0  0  0  0
    1.3912    2.1387    0.8868 H   0  0  0  0  0  0  0  0  0  0  0  0
    0.4402   -0.3577    1.1498 C   0  0  0  0  0  0  0  0  0  0  0  0
    1.6248   -0.4327    1.4482 O   0  0  0  0  0  0  0  0  0  0  0  0
   -0.4498    0.1823    2.0622 N   0  0  0  0  0  0  0  0  0  0  0  0
   -1.4064    0.3178    1.7550 H   0  0  0  0  0  0  0  0  0  0  0  0
   -0.0660    0.6103    3.4014 C   0  0  0  0  0  0  0  0  0  0  0  0
    0.6639    1.4250    3.3490 H   0  0  0  0  0  0  0  0  0  0  0  0
   -0.9426    0.9660    3.9509 H   0  0  0  0  0  0  0  0  0  0  0  0
    0.3753   -0.2240    3.9570 H   0  0  0  0  0  0  0  0  0  0  0  0
  1  2  1  0  0  0  0
  2  3  1  0  0  0  0
  2  4  1  0  0  0  0
  2  5  1  0  0  0  0
  5  6  2  0  0  0  0
  5  7  1  0  0  0  0
  7  8  1  0  0  0  0
  7  9  1  0  0  0  0
  9 10  1  0  0  0  0
  9 11  1  0  0  0  0
  9 22  1  0  0  0  0
 11 12  1  0  0  0  0
 11 13  1  0  0  0  0
 11 14  1  0  0  0  0
 14 15  1  0  0  0  0
 14 20  2  0  0  0  0
 15 16  1  0  0  0  0
 15 17  1  0  0  0  0
 17 18  1  0  0  0  0
 17 19  2  0  0  0  0
 19 20  1  0  0  0  0
 20 21  1  0  0  0  0
 22 23  2  0  0  0  0
 22 24  1  0  0  0  0
 24 25  1  0  0  0  0
 24 26  1  0  0  0  0
 26 27  1  0  0  0  0
 26 28  1  0  0  0  0
 26 29  1  0  0  0  0
M  END
$$$$

  -OEChem-03222214043D

 29 29  0     1  0  0  0  0  0999 V2000
   -3.1096   -4.0487    0.5147 H   0  0  0  0  0  0  0  0  0  0  0  0
   -3.0350   -3.0872   -0.0015 C   0  0  0  0  0  0  0  0  0  0  0  0
   -3.7439   -2.3902    0.4514 H   0  0  0  0  0  0  0  0  0  0  0  0
   -3.2945   -3.2323   -1.0529 H   0  0  0  0  0  0  0  0  0  0  0  0
   -1.6238   -2.5428    0.1142 C   0  0  0  0  0  0  0  0  0  0  0  0
   -0.7721   -3.1877    0.6976 O   0  0  0  0  0  0  0  0  0  0  0  0
   -1.3105   -1.3203   -0.4476 N   0  0  0  0  0  0  0  0  0  0  0  0
   -2.0662   -0.8106   -0.8932 H   0  0  0  0  0  0  0  0  0  0  0  0
    0.0057   -0.6652   -0.3189 C   0  0  1  0  0  0  0  0  0  0  0  0
    0.7400   -1.3966   -0.6761 H   0  0  0  0  0  0  0  0  0  0  0  0
    0.0748    0.5248   -1.3088 C   0  0  0  0  0  0  0  0  0  0  0  0
    1.0601    0.4874   -1.7862 H   0  0  0  0  0  0  0  0  0  0  0  0
   -0.6616    0.3969   -2.1080 H   0  0  0  0  0  0  0  0  0  0  0  0
   -0.0610    1.9056   -0.7076 C   0  0  0  0  0  0  0  0  0  0  0  0
   -1.0384    2.8313   -1.0059 N   0  0  0  0  0  0  0  0  0  0  0  0
   -1.8112    2.7069   -1.6557 H   0  0  0  0  0  0  0  0  0  0  0  0
   -0.7648    3.9984   -0.3179 C   0  0  0  0  0  0  0  0  0  0  0  0
   -1.3683    4.9009   -0.3517 H   0  0  0  0  0  0  0  0  0  0  0  0
    0.3333    3.8610    0.3814 N   0  0  0  0  0  0  0  0  0  0  0  0
    0.7994    2.5740    0.1306 C   0  0  0  0  0  0  0  0  0  0  0  0
    1.7204    2.1631    0.5341 H   0  0  0  0  0  0  0  0  0  0  0  0
    0.4392   -0.3518    1.1315 C   0  0  0  0  0  0  0  0  0  0  0  0
    1.6241   -0.4172    1.4319 O   0  0  0  0  0  0  0  0  0  0  0  0
   -0.4525    0.2102    2.0290 N   0  0  0  0  0  0  0  0  0  0  0  0
   -1.3965    0.3771    1.6993 H   0  0  0  0  0  0  0  0  0  0  0  0
   -0.0542    0.7309    3.3306 C   0  0  0  0  0  0  0  0  0  0  0  0
    0.6468    1.5637    3.2110 H   0  0  0  0  0  0  0  0  0  0  0  0
   -0.9298    1.0907    3.8787 H   0  0  0  0  0  0  0  0  0  0  0  0
    0.4269   -0.0528    3.9251 H   0  0  0  0  0  0  0  0  0  0  0  0
  1  2  1  0  0  0  0
  2  3  1  0  0  0  0
  2  4  1  0  0  0  0
  2  5  1  0  0  0  0
  5  6  2  0  0  0  0
  5  7  1  0  0  0  0
  7  8  1  0  0  0  0
  7  9  1  0  0  0  0
  9 10  1  0  0  0  0
  9 11  1  0  0  0  0
  9 22  1  0  0  0  0
 11 12  1  0  0  0  0
 11 13  1  0  0  0  0
 11 14  1  0  0  0  0
 14 15  1  0  0  0  0
 14 20  2  0  0  0  0
 15 16  1  0  0  0  0
 15 17  1  0  0  0  0
 17 18  1  0  0  0  0
 17 19  2  0  0  0  0
 19 20  1  0  0  0  0
 20 21  1  0  0  0  0
 22 23  2  0  0  0  0
 22 24  1  0  0  0  0
 24 25  1  0  0  0  0
 24 26  1  0  0  0  0
 26 27  1  0  0  0  0
 26 28  1  0  0  0  0
 26 29  1  0  0  0  0
M  END
$$$$

  -OEChem-03222214043D

 29 29  0     1  0  0  0  0  0999 V2000
   -3.1166   -4.0705    0.4808 H   0  0  0  0  0  0  0  0  0  0  0  0
   -3.0405   -3.1047   -0.0271 C   0  0  0  0  0  0  0  0  0  0  0  0
   -3.7731   -2.4209    0.4079 H   0  0  0  0  0  0  0  0  0  0  0  0
   -3.2658   -3.2467   -1.0867 H   0  0  0  0  0  0  0  0  0  0  0  0
   -1.6417   -2.5404    0.1355 C   0  0  0  0  0  0  0  0  0  0  0  0
   -0.8077   -3.1606    0.7691 O   0  0  0  0  0  0  0  0  0  0  0  0
   -1.3205   -1.3273   -0.4419 N   0  0  0  0  0  0  0  0  0  0  0  0
   -2.0531   -0.8536   -0.9592 H   0  0  0  0  0  0  0  0  0  0  0  0
   -0.0017   -0.6765   -0.3218 C   0  0  1  0  0  0  0  0  0  0  0  0
    0.7272   -1.4161   -0.6725 H   0  0  0  0  0  0  0  0  0  0  0  0
    0.0781    0.5068   -1.3161 C   0  0  0  0  0  0  0  0  0  0  0  0
    1.0651    0.4625   -1.7899 H   0  0  0  0  0  0  0  0  0  0  0  0
   -0.6591    0.3908   -2.1164 H   0  0  0  0  0  0  0  0  0  0  0  0
   -0.0498    1.8768   -0.6934 C   0  0  0  0  0  0  0  0  0  0  0  0
   -1.1455    2.7125   -0.7361 N   0  0  0  0  0  0  0  0  0  0  0  0
   -2.0314    2.5278   -1.2004 H   0  0  0  0  0  0  0  0  0  0  0  0
   -0.8185    3.8940   -0.0968 C   0  0  0  0  0  0  0  0  0  0  0  0
   -1.4843    4.7435    0.0264 H   0  0  0  0  0  0  0  0  0  0  0  0
    0.4162    3.8454    0.3367 N   0  0  0  0  0  0  0  0  0  0  0  0
    0.9154    2.6017   -0.0384 C   0  0  0  0  0  0  0  0  0  0  0  0
    1.9264    2.2553    0.1566 H   0  0  0  0  0  0  0  0  0  0  0  0
    0.4448   -0.3399    1.1201 C   0  0  0  0  0  0  0  0  0  0  0  0
    1.6345   -0.3896    1.4049 O   0  0  0  0  0  0  0  0  0  0  0  0
   -0.4377    0.2418    2.0136 N   0  0  0  0  0  0  0  0  0  0  0  0
   -1.3840    0.3998    1.6874 H   0  0  0  0  0  0  0  0  0  0  0  0
   -0.0211    0.8193    3.2849 C   0  0  0  0  0  0  0  0  0  0  0  0
    0.6423    1.6743    3.1165 H   0  0  0  0  0  0  0  0  0  0  0  0
   -0.8933    1.1623    3.8492 H   0  0  0  0  0  0  0  0  0  0  0  0
    0.5087    0.0744    3.8883 H   0  0  0  0  0  0  0  0  0  0  0  0
  1  2  1  0  0  0  0
  2  3  1  0  0  0  0
  2  4  1  0  0  0  0
  2  5  1  0  0  0  0
  5  6  2  0  0  0  0
  5  7  1  0  0  0  0
  7  8  1  0  0  0  0
  7  9  1  0  0  0  0
  9 10  1  0  0  0  0
  9 11  1  0  0  0  0
  9 22  1  0  0  0  0
 11 12  1  0  0  0  0
 11 13  1  0  0  0  0
 11 14  1  0  0  0  0
 14 15  1  0  0  0  0
 14 20  2  0  0  0  0
 15 16  1  0  0  0  0
 15 17  1  0  0  0  0
 17 18  1  0  0  0  0
 17 19  2  0  0  0  0
 19 20  1  0  0  0  0
 20 21  1  0  0  0  0
 22 23  2  0  0  0  0
 22 24  1  0  0  0  0
 24 25  1  0  0  0  0
 24 26  1  0  0  0  0
 26 27  1  0  0  0  0
 26 28  1  0  0  0  0
 26 29  1  0  0  0  0
M  END
$$$$

  -OEChem-03222214043D

 29 29  0     1  0  0  0  0  0999 V2000
   -3.1146   -4.0921    0.4533 H   0  0  0  0  0  0  0  0  0  0  0  0
   -3.0412   -3.1283   -0.0588 C   0  0  0  0  0  0  0  0  0  0  0  0
   -3.8113   -2.4613    0.3357 H   0  0  0  0  0  0  0  0  0  0  0  0
   -3.2128   -3.2849   -1.1263 H   0  0  0  0  0  0  0  0  0  0  0  0
   -1.6673   -2.5248    0.1633 C   0  0  0  0  0  0  0  0  0  0  0  0
   -0.8557   -3.1087    0.8573 O   0  0  0  0  0  0  0  0  0  0  0  0
   -1.3426   -1.3189   -0.4275 N   0  0  0  0  0  0  0  0  0  0  0  0
   -2.0366   -0.9051   -1.0406 H   0  0  0  0  0  0  0  0  0  0  0  0
   -0.0184   -0.6760   -0.3195 C   0  0  1  0  0  0  0  0  0  0  0  0
    0.7013   -1.4259   -0.6676 H   0  0  0  0  0  0  0  0  0  0  0  0
    0.0737    0.4992   -1.3211 C   0  0  0  0  0  0  0  0  0  0  0  0
    1.0584    0.4414   -1.7976 H   0  0  0  0  0  0  0  0  0  0  0  0
   -0.6681    0.3920   -2.1182 H   0  0  0  0  0  0  0  0  0  0  0  0
   -0.0399    1.8668   -0.6930 C   0  0  0  0  0  0  0  0  0  0  0  0
   -1.1867    2.6005   -0.4759 N   0  0  0  0  0  0  0  0  0  0  0  0
   -2.1353    2.3329   -0.7260 H   0  0  0  0  0  0  0  0  0  0  0  0
   -0.8286    3.8078    0.0951 C   0  0  0  0  0  0  0  0  0  0  0  0
   -1.5207    4.5961    0.3769 H   0  0  0  0  0  0  0  0  0  0  0  0
    0.4710    3.8693    0.2441 N   0  0  0  0  0  0  0  0  0  0  0  0
    0.9791    2.6693   -0.2445 C   0  0  0  0  0  0  0  0  0  0  0  0
    2.0325    2.4057   -0.2675 H   0  0  0  0  0  0  0  0  0  0  0  0
    0.4483   -0.3250    1.1134 C   0  0  0  0  0  0  0  0  0  0  0  0
    1.6423   -0.3750    1.3802 O   0  0  0  0  0  0  0  0  0  0  0  0
   -0.4174    0.2741    2.0118 N   0  0  0  0  0  0  0  0  0  0  0  0
   -1.3752    0.4057    1.7090 H   0  0  0  0  0  0  0  0  0  0  0  0
    0.0196    0.8693    3.2678 C   0  0  0  0  0  0  0  0  0  0  0  0
    0.6807    1.7213    3.0761 H   0  0  0  0  0  0  0  0  0  0  0  0
   -0.8433    1.2208    3.8410 H   0  0  0  0  0  0  0  0  0  0  0  0
    0.5587    0.1332    3.8736 H   0  0  0  0  0  0  0  0  0  0  0  0
  1  2  1  0  0  0  0
  2  3  1  0  0  0  0
  2  4  1  0  0  0  0
  2  5  1  0  0  0  0
  5  6  2  0  0  0  0
  5  7  1  0  0  0  0
  7  8  1  0  0  0  0
  7  9  1  0  0  0  0
  9 10  1  0  0  0  0
  9 11  1  0  0  0  0
  9 22  1  0  0  0  0
 11 12  1  0  0  0  0
 11 13  1  0  0  0  0
 11 14  1  0  0  0  0
 14 15  1  0  0  0  0
 14 20  2  0  0  0  0
 15 16  1  0  0  0  0
 15 17  1  0  0  0  0
 17 18  1  0  0  0  0
 17 19  2  0  0  0  0
 19 20  1  0  0  0  0
 20 21  1  0  0  0  0
 22 23  2  0  0  0  0
 22 24  1  0  0  0  0
 24 25  1  0  0  0  0
 24 26  1  0  0  0  0
 26 27  1  0  0  0  0
 26 28  1  0  0  0  0
 26 29  1  0  0  0  0
M  END
$$$$

  -OEChem-03222214043D

 29 29  0     1  0  0  0  0  0999 V2000
   -3.1005   -4.0992    0.4337 H   0  0  0  0  0  0  0  0  0  0  0  0
   -3.0310   -3.1351   -0.0784 C   0  0  0  0  0  0  0  0  0  0  0  0
   -3.8317   -2.4860    0.2839 H   0  0  0  0  0  0  0  0  0  0  0  0
   -3.1582   -3.2982   -1.1512 H   0  0  0  0  0  0  0  0  0  0  0  0
   -1.6815   -2.4979    0.1943 C   0  0  0  0  0  0  0  0  0  0  0  0
   -0.8928   -3.0470    0.9409 O   0  0  0  0  0  0  0  0  0  0  0  0
   -1.3579   -1.2961   -0.4050 N   0  0  0  0  0  0  0  0  0  0  0  0
   -2.0200   -0.9337   -1.0833 H   0  0  0  0  0  0  0  0  0  0  0  0
   -0.0309   -0.6561   -0.3092 C   0  0  1  0  0  0  0  0  0  0  0  0
    0.6805   -1.4160   -0.6527 H   0  0  0  0  0  0  0  0  0  0  0  0
    0.0701    0.5029   -1.3279 C   0  0  0  0  0  0  0  0  0  0  0  0
    1.0509    0.4289   -1.8104 H   0  0  0  0  0  0  0  0  0  0  0  0
   -0.6790    0.3899   -2.1173 H   0  0  0  0  0  0  0  0  0  0  0  0
   -0.0350    1.8815   -0.7241 C   0  0  0  0  0  0  0  0  0  0  0  0
   -1.1659    2.5188   -0.2597 N   0  0  0  0  0  0  0  0  0  0  0  0
   -2.1148    2.1546   -0.2687 H   0  0  0  0  0  0  0  0  0  0  0  0
   -0.8010    3.7701    0.2015 C   0  0  0  0  0  0  0  0  0  0  0  0
   -1.4818    4.5031    0.6248 H   0  0  0  0  0  0  0  0  0  0  0  0
    0.4871    3.9507    0.0484 N   0  0  0  0  0  0  0  0  0  0  0  0
    0.9804    2.7809   -0.5213 C   0  0  0  0  0  0  0  0  0  0  0  0
    2.0228    2.6068   -0.7712 H   0  0  0  0  0  0  0  0  0  0  0  0
    0.4552   -0.2956    1.1152 C   0  0  0  0  0  0  0  0  0  0  0  0
    1.6525   -0.3489    1.3659 O   0  0  0  0  0  0  0  0  0  0  0  0
   -0.3934    0.3123    2.0239 N   0  0  0  0  0  0  0  0  0  0  0  0
   -1.3782    0.3387    1.7888 H   0  0  0  0  0  0  0  0  0  0  0  0
    0.0479    0.8268    3.3135 C   0  0  0  0  0  0  0  0  0  0  0  0
    0.7744    1.6342    3.1733 H   0  0  0  0  0  0  0  0  0  0  0  0
   -0.8037    1.2215    3.8755 H   0  0  0  0  0  0  0  0  0  0  0  0
    0.5136    0.0308    3.9042 H   0  0  0  0  0  0  0  0  0  0  0  0
  1  2  1  0  0  0  0
  2  3  1  0  0  0  0
  2  4  1  0  0  0  0
  2  5  1  0  0  0  0
  5  6  2  0  0  0  0
  5  7  1  0  0  0  0
  7  8  1  0  0  0  0
  7  9  1  0  0  0  0
  9 10  1  0  0  0  0
  9 11  1  0  0  0  0
  9 22  1  0  0  0  0
 11 12  1  0  0  0  0
 11 13  1  0  0  0  0
 11 14  1  0  0  0  0
 14 15  1  0  0  0  0
 14 20  2  0  0  0  0
 15 16  1  0  0  0  0
 15 17  1  0  0  0  0
 17 18  1  0  0  0  0
 17 19  2  0  0  0  0
 19 20  1  0  0  0  0
 20 21  1  0  0  0  0
 22 23  2  0  0  0  0
 22 24  1  0  0  0  0
 24 25  1  0  0  0  0
 24 26  1  0  0  0  0
 26 27  1  0  0  0  0
 26 28  1  0  0  0  0
 26 29  1  0  0  0  0
M  END
$$$$

  -OEChem-03222214043D

 29 29  0     1  0  0  0  0  0999 V2000
   -3.0786   -4.1051    0.4270 H   0  0  0  0  0  0  0  0  0  0  0  0
   -3.0168   -3.1408   -0.0855 C   0  0  0  0  0  0  0  0  0  0  0  0
   -3.8338   -2.5046    0.2631 H   0  0  0  0  0  0  0  0  0  0  0  0
   -3.1250   -3.3079   -1.1598 H   0  0  0  0  0  0  0  0  0  0  0  0
   -1.6825   -2.4806    0.2070 C   0  0  0  0  0  0  0  0  0  0  0  0
   -0.9017   -3.0088    0.9765 O   0  0  0  0  0  0  0  0  0  0  0  0
   -1.3689   -1.2726   -0.3852 N   0  0  0  0  0  0  0  0  0  0  0  0
   -2.0225   -0.9271   -1.0810 H   0  0  0  0  0  0  0  0  0  0  0  0
   -0.0434   -0.6271   -0.2938 C   0  0  1  0  0  0  0  0  0  0  0  0
    0.6640   -1.3921   -0.6340 H   0  0  0  0  0  0  0  0  0  0  0  0
    0.0743    0.5180   -1.3267 C   0  0  0  0  0  0  0  0  0  0  0  0
    1.0546    0.4273   -1.8076 H   0  0  0  0  0  0  0  0  0  0  0  0
   -0.6750    0.3930   -2.1140 H   0  0  0  0  0  0  0  0  0  0  0  0
   -0.0287    1.9145   -0.7633 C   0  0  0  0  0  0  0  0  0  0  0  0
   -1.0769    2.4868   -0.0744 N   0  0  0  0  0  0  0  0  0  0  0  0
   -1.9540    2.0385    0.1742 H   0  0  0  0  0  0  0  0  0  0  0  0
   -0.7270    3.7826    0.2561 C   0  0  0  0  0  0  0  0  0  0  0  0
   -1.3542    4.4781    0.8063 H   0  0  0  0  0  0  0  0  0  0  0  0
    0.4717    4.0560   -0.1956 N   0  0  0  0  0  0  0  0  0  0  0  0
    0.9241    2.8991   -0.8218 C   0  0  0  0  0  0  0  0  0  0  0  0
    1.8966    2.7931   -1.2934 H   0  0  0  0  0  0  0  0  0  0  0  0
    0.4523   -0.2757    1.1298 C   0  0  0  0  0  0  0  0  0  0  0  0
    1.6532   -0.3127    1.3655 O   0  0  0  0  0  0  0  0  0  0  0  0
   -0.3931    0.3198    2.0505 N   0  0  0  0  0  0  0  0  0  0  0  0
   -1.3853    0.1972    1.8870 H   0  0  0  0  0  0  0  0  0  0  0  0
    0.0531    0.7393    3.3734 C   0  0  0  0  0  0  0  0  0  0  0  0
    0.8380    1.4985    3.2886 H   0  0  0  0  0  0  0  0  0  0  0  0
   -0.7805    1.1686    3.9369 H   0  0  0  0  0  0  0  0  0  0  0  0
    0.4484   -0.1150    3.9333 H   0  0  0  0  0  0  0  0  0  0  0  0
  1  2  1  0  0  0  0
  2  3  1  0  0  0  0
  2  4  1  0  0  0  0
  2  5  1  0  0  0  0
  5  6  2  0  0  0  0
  5  7  1  0  0  0  0
  7  8  1  0  0  0  0
  7  9  1  0  0  0  0
  9 10  1  0  0  0  0
  9 11  1  0  0  0  0
  9 22  1  0  0  0  0
 11 12  1  0  0  0  0
 11 13  1  0  0  0  0
 11 14  1  0  0  0  0
 14 15  1  0  0  0  0
 14 20  2  0  0  0  0
 15 16  1  0  0  0  0
 15 17  1  0  0  0  0
 17 18  1  0  0  0  0
 17 19  2  0  0  0  0
 19 20  1  0  0  0  0
 20 21  1  0  0  0  0
 22 23  2  0  0  0  0
 22 24  1  0  0  0  0
 24 25  1  0  0  0  0
 24 26  1  0  0  0  0
 26 27  1  0  0  0  0
 26 28  1  0  0  0  0
 26 29  1  0  0  0  0
M  END
$$$$

  -OEChem-03222214043D

 29 29  0     1  0  0  0  0  0999 V2000
   -3.0657   -4.1108    0.4073 H   0  0  0  0  0  0  0  0  0  0  0  0
   -3.0050   -3.1430   -0.0989 C   0  0  0  0  0  0  0  0  0  0  0  0
   -3.8265   -2.5123    0.2490 H   0  0  0  0  0  0  0  0  0  0  0  0
   -3.1063   -3.3037   -1.1750 H   0  0  0  0  0  0  0  0  0  0  0  0
   -1.6749   -2.4794    0.2040 C   0  0  0  0  0  0  0  0  0  0  0  0
   -0.8914   -3.0125    0.9674 O   0  0  0  0  0  0  0  0  0  0  0  0
   -1.3681   -1.2607   -0.3693 N   0  0  0  0  0  0  0  0  0  0  0  0
   -2.0308   -0.9002   -1.0494 H   0  0  0  0  0  0  0  0  0  0  0  0
   -0.0449   -0.6106   -0.2780 C   0  0  1  0  0  0  0  0  0  0  0  0
    0.6622   -1.3735   -0.6243 H   0  0  0  0  0  0  0  0  0  0  0  0
    0.0768    0.5360   -1.3106 C   0  0  0  0  0  0  0  0  0  0  0  0
    1.0529    0.4363   -1.7980 H   0  0  0  0  0  0  0  0  0  0  0  0
   -0.6788    0.4048   -2.0909 H   0  0  0  0  0  0  0  0  0  0  0  0
   -0.0224    1.9477   -0.7819 C   0  0  0  0  0  0  0  0  0  0  0  0
   -0.9153    2.4896    0.1173 N   0  0  0  0  0  0  0  0  0  0  0  0
   -1.6238    1.9830    0.6405 H   0  0  0  0  0  0  0  0  0  0  0  0
   -0.6005    3.8223    0.3021 C   0  0  0  0  0  0  0  0  0  0  0  0
   -1.1248    4.5016    0.9679 H   0  0  0  0  0  0  0  0  0  0  0  0
    0.4241    4.1516   -0.4443 N   0  0  0  0  0  0  0  0  0  0  0  0
    0.8022    2.9925   -1.1133 C   0  0  0  0  0  0  0  0  0  0  0  0
    1.6354    2.9268   -1.8066 H   0  0  0  0  0  0  0  0  0  0  0  0
    0.4475   -0.2864    1.1523 C   0  0  0  0  0  0  0  0  0  0  0  0
    1.6490   -0.3008    1.3859 O   0  0  0  0  0  0  0  0  0  0  0  0
   -0.4099    0.2845    2.0788 N   0  0  0  0  0  0  0  0  0  0  0  0
   -1.3911    0.0682    1.9430 H   0  0  0  0  0  0  0  0  0  0  0  0
    0.0323    0.6579    3.4171 C   0  0  0  0  0  0  0  0  0  0  0  0
    0.8259    1.4109    3.3621 H   0  0  0  0  0  0  0  0  0  0  0  0
   -0.8009    1.0786    3.9877 H   0  0  0  0  0  0  0  0  0  0  0  0
    0.4143   -0.2179    3.9525 H   0  0  0  0  0  0  0  0  0  0  0  0
  1  2  1  0  0  0  0
  2  3  1  0  0  0  0
  2  4  1  0  0  0  0
  2  5  1  0  0  0  0
  5  6  2  0  0  0  0
  5  7  1  0  0  0  0
  7  8  1  0  0  0  0
  7  9  1  0  0  0  0
  9 10  1  0  0  0  0
  9 11  1  0  0  0  0
  9 22  1  0  0  0  0
 11 12  1  0  0  0  0
 11 13  1  0  0  0  0
 11 14  1  0  0  0  0
 14 15  1  0  0  0  0
 14 20  2  0  0  0  0
 15 16  1  0  0  0  0
 15 17  1  0  0  0  0
 17 18  1  0  0  0  0
 17 19  2  0  0  0  0
 19 20  1  0  0  0  0
 20 21  1  0  0  0  0
 22 23  2  0  0  0  0
 22 24  1  0  0  0  0
 24 25  1  0  0  0  0
 24 26  1  0  0  0  0
 26 27  1  0  0  0  0
 26 28  1  0  0  0  0
 26 29  1  0  0  0  0
M  END
$$$$

  -OEChem-03222214043D

 29 29  0     1  0  0  0  0  0999 V2000
   -3.0732   -4.0929    0.3955 H   0  0  0  0  0  0  0  0  0  0  0  0
   -3.0054   -3.1201   -0.0999 C   0  0  0  0  0  0  0  0  0  0  0  0
   -3.8114   -2.4810    0.2683 H   0  0  0  0  0  0  0  0  0  0  0  0
   -3.1265   -3.2662   -1.1760 H   0  0  0  0  0  0  0  0  0  0  0  0
   -1.6606   -2.4800    0.1895 C   0  0  0  0  0  0  0  0  0  0  0  0
   -0.8706   -3.0356    0.9299 O   0  0  0  0  0  0  0  0  0  0  0  0
   -1.3500   -1.2532   -0.3641 N   0  0  0  0  0  0  0  0  0  0  0  0
   -2.0295   -0.8605   -1.0093 H   0  0  0  0  0  0  0  0  0  0  0  0
   -0.0267   -0.6036   -0.2682 C   0  0  1  0  0  0  0  0  0  0  0  0
    0.6825   -1.3606   -0.6224 H   0  0  0  0  0  0  0  0  0  0  0  0
    0.0903    0.5534   -1.2926 C   0  0  0  0  0  0  0  0  0  0  0  0
    1.0639    0.4531   -1.7848 H   0  0  0  0  0  0  0  0  0  0  0  0
   -0.6680    0.4190   -2.0700 H   0  0  0  0  0  0  0  0  0  0  0  0
   -0.0039    1.9759   -0.7869 C   0  0  0  0  0  0  0  0  0  0  0  0
   -0.6840    2.5078    0.2868 N   0  0  0  0  0  0  0  0  0  0  0  0
   -1.1259    1.9753    1.0333 H   0  0  0  0  0  0  0  0  0  0  0  0
   -0.4558    3.8698    0.3255 C   0  0  0  0  0  0  0  0  0  0  0  0
   -0.8427    4.5466    1.0816 H   0  0  0  0  0  0  0  0  0  0  0  0
    0.3020    4.2291   -0.6803 N   0  0  0  0  0  0  0  0  0  0  0  0
    0.5999    3.0603   -1.3713 C   0  0  0  0  0  0  0  0  0  0  0  0
    1.2225    3.0150   -2.2598 H   0  0  0  0  0  0  0  0  0  0  0  0
    0.4508   -0.3099    1.1730 C   0  0  0  0  0  0  0  0  0  0  0  0
    1.6494   -0.3088    1.4190 O   0  0  0  0  0  0  0  0  0  0  0  0
   -0.4238    0.2394    2.0985 N   0  0  0  0  0  0  0  0  0  0  0  0
   -1.3968   -0.0127    1.9540 H   0  0  0  0  0  0  0  0  0  0  0  0
   -0.0008    0.5623    3.4565 C   0  0  0  0  0  0  0  0  0  0  0  0
    0.7963    1.3133    3.4417 H   0  0  0  0  0  0  0  0  0  0  0  0
   -0.8410    0.9649    4.0298 H   0  0  0  0  0  0  0  0  0  0  0  0
    0.3700   -0.3341    3.9651 H   0  0  0  0  0  0  0  0  0  0  0  0
  1  2  1  0  0  0  0
  2  3  1  0  0  0  0
  2  4  1  0  0  0  0
  2  5  1  0  0  0  0
  5  6  2  0  0  0  0
  5  7  1  0  0  0  0
  7  8  1  0  0  0  0
  7  9  1  0  0  0  0
  9 10  1  0  0  0  0
  9 11  1  0  0  0  0
  9 22  1  0  0  0  0
 11 12  1  0  0  0  0
 11 13  1  0  0  0  0
 11 14  1  0  0  0  0
 14 15  1  0  0  0  0
 14 20  2  0  0  0  0
 15 16  1  0  0  0  0
 15 17  1  0  0  0  0
 17 18  1  0  0  0  0
 17 19  2  0  0  0  0
 19 20  1  0  0  0  0
 20 21  1  0  0  0  0
 22 23  2  0  0  0  0
 22 24  1  0  0  0  0
 24 25  1  0  0  0  0
 24 26  1  0  0  0  0
 26 27  1  0  0  0  0
 26 28  1  0  0  0  0
 26 29  1  0  0  0  0
M  END
$$$$

  -OEChem-03222214043D

 29 29  0     1  0  0  0  0  0999 V2000
   -3.0940   -4.0642    0.3898 H   0  0  0  0  0  0  0  0  0  0  0  0
   -3.0174   -3.0907   -0.1030 C   0  0  0  0  0  0  0  0  0  0  0  0
   -3.8105   -2.4415    0.2753 H   0  0  0  0  0  0  0  0  0  0  0  0
   -3.1510   -3.2311   -1.1784 H   0  0  0  0  0  0  0  0  0  0  0  0
   -1.6609   -2.4712    0.1754 C   0  0  0  0  0  0  0  0  0  0  0  0
   -0.8650   -3.0489    0.8926 O   0  0  0  0  0  0  0  0  0  0  0  0
   -1.3439   -1.2392   -0.3625 N   0  0  0  0  0  0  0  0  0  0  0  0
   -2.0334   -0.8185   -0.9790 H   0  0  0  0  0  0  0  0  0  0  0  0
   -0.0173   -0.5979   -0.2609 C   0  0  1  0  0  0  0  0  0  0  0  0
    0.6875   -1.3562   -0.6216 H   0  0  0  0  0  0  0  0  0  0  0  0
    0.1024    0.5630   -1.2826 C   0  0  0  0  0  0  0  0  0  0  0  0
    1.0802    0.4598   -1.7661 H   0  0  0  0  0  0  0  0  0  0  0  0
   -0.6480    0.4254   -2.0673 H   0  0  0  0  0  0  0  0  0  0  0  0
    0.0154    1.9935   -0.7940 C   0  0  0  0  0  0  0  0  0  0  0  0
   -0.4201    2.5311    0.3978 N   0  0  0  0  0  0  0  0  0  0  0  0
   -0.6341    2.0049    1.2444 H   0  0  0  0  0  0  0  0  0  0  0  0
   -0.3045    3.9061    0.3370 C   0  0  0  0  0  0  0  0  0  0  0  0
   -0.5497    4.5904    1.1442 H   0  0  0  0  0  0  0  0  0  0  0  0
    0.1498    4.2670   -0.8372 N   0  0  0  0  0  0  0  0  0  0  0  0
    0.3611    3.0891   -1.5440 C   0  0  0  0  0  0  0  0  0  0  0  0
    0.7438    3.0447   -2.5595 H   0  0  0  0  0  0  0  0  0  0  0  0
    0.4597   -0.3277    1.1848 C   0  0  0  0  0  0  0  0  0  0  0  0
    1.6571   -0.3332    1.4349 O   0  0  0  0  0  0  0  0  0  0  0  0
   -0.4121    0.2129    2.1185 N   0  0  0  0  0  0  0  0  0  0  0  0
   -1.3919    0.0031    1.9496 H   0  0  0  0  0  0  0  0  0  0  0  0
    0.0005    0.4791    3.4924 C   0  0  0  0  0  0  0  0  0  0  0  0
    0.8249    1.1999    3.5136 H   0  0  0  0  0  0  0  0  0  0  0  0
   -0.8341    0.8946    4.0651 H   0  0  0  0  0  0  0  0  0  0  0  0
    0.3301   -0.4453    3.9788 H   0  0  0  0  0  0  0  0  0  0  0  0
  1  2  1  0  0  0  0
  2  3  1  0  0  0  0
  2  4  1  0  0  0  0
  2  5  1  0  0  0  0
  5  6  2  0  0  0  0
  5  7  1  0  0  0  0
  7  8  1  0  0  0  0
  7  9  1  0  0  0  0
  9 10  1  0  0  0  0
  9 11  1  0  0  0  0
  9 22  1  0  0  0  0
 11 12  1  0  0  0  0
 11 13  1  0  0  0  0
 11 14  1  0  0  0  0
 14 15  1  0  0  0  0
 14 20  2  0  0  0  0
 15 16  1  0  0  0  0
 15 17  1  0  0  0  0
 17 18  1  0  0  0  0
 17 19  2  0  0  0  0
 19 20  1  0  0  0  0
 20 21  1  0  0  0  0
 22 23  2  0  0  0  0
 22 24  1  0  0  0  0
 24 25  1  0  0  0  0
 24 26  1  0  0  0  0
 26 27  1  0  0  0  0
 26 28  1  0  0  0  0
 26 29  1  0  0  0  0
M  END
$$$$

  -OEChem-03222214043D

 29 29  0     1  0  0  0  0  0999 V2000
   -3.1368   -4.0142    0.4048 H   0  0  0  0  0  0  0  0  0  0  0  0
   -3.0475   -3.0409   -0.0863 C   0  0  0  0  0  0  0  0  0  0  0  0
   -3.8177   -2.3750    0.3099 H   0  0  0  0  0  0  0  0  0  0  0  0
   -3.2050   -3.1742   -1.1594 H   0  0  0  0  0  0  0  0  0  0  0  0
   -1.6715   -2.4545    0.1671 C   0  0  0  0  0  0  0  0  0  0  0  0
   -0.8716   -3.0589    0.8573 O   0  0  0  0  0  0  0  0  0  0  0  0
   -1.3368   -1.2264   -0.3690 N   0  0  0  0  0  0  0  0  0  0  0  0
   -2.0347   -0.7743   -0.9528 H   0  0  0  0  0  0  0  0  0  0  0  0
   -0.0014   -0.6046   -0.2661 C   0  0  1  0  0  0  0  0  0  0  0  0
    0.6951   -1.3690   -0.6303 H   0  0  0  0  0  0  0  0  0  0  0  0
    0.1221    0.5583   -1.2862 C   0  0  0  0  0  0  0  0  0  0  0  0
    1.1050    0.4499   -1.7577 H   0  0  0  0  0  0  0  0  0  0  0  0
   -0.6188    0.4225   -2.0803 H   0  0  0  0  0  0  0  0  0  0  0  0
    0.0521    1.9930   -0.8048 C   0  0  0  0  0  0  0  0  0  0  0  0
   -0.1095    2.5399    0.4499 N   0  0  0  0  0  0  0  0  0  0  0  0
   -0.0899    2.0253    1.3314 H   0  0  0  0  0  0  0  0  0  0  0  0
   -0.1400    3.9160    0.3410 C   0  0  0  0  0  0  0  0  0  0  0  0
   -0.2335    4.6074    1.1736 H   0  0  0  0  0  0  0  0  0  0  0  0
   -0.0382    4.2673   -0.9168 N   0  0  0  0  0  0  0  0  0  0  0  0
    0.0870    3.0843   -1.6356 C   0  0  0  0  0  0  0  0  0  0  0  0
    0.1900    3.0321   -2.7154 H   0  0  0  0  0  0  0  0  0  0  0  0
    0.4740   -0.3453    1.1818 C   0  0  0  0  0  0  0  0  0  0  0  0
    1.6694   -0.3655    1.4400 O   0  0  0  0  0  0  0  0  0  0  0  0
   -0.3908    0.2056    2.1155 N   0  0  0  0  0  0  0  0  0  0  0  0
   -1.3782    0.0715    1.9162 H   0  0  0  0  0  0  0  0  0  0  0  0
    0.0045    0.4319    3.5015 C   0  0  0  0  0  0  0  0  0  0  0  0
    0.8530    1.1226    3.5532 H   0  0  0  0  0  0  0  0  0  0  0  0
   -0.8264    0.8651    4.0665 H   0  0  0  0  0  0  0  0  0  0  0  0
    0.2916   -0.5132    3.9750 H   0  0  0  0  0  0  0  0  0  0  0  0
  1  2  1  0  0  0  0
  2  3  1  0  0  0  0
  2  4  1  0  0  0  0
  2  5  1  0  0  0  0
  5  6  2  0  0  0  0
  5  7  1  0  0  0  0
  7  8  1  0  0  0  0
  7  9  1  0  0  0  0
  9 10  1  0  0  0  0
  9 11  1  0  0  0  0
  9 22  1  0  0  0  0
 11 12  1  0  0  0  0
 11 13  1  0  0  0  0
 11 14  1  0  0  0  0
 14 15  1  0  0  0  0
 14 20  2  0  0  0  0
 15 16  1  0  0  0  0
 15 17  1  0  0  0  0
 17 18  1  0  0  0  0
 17 19  2  0  0  0  0
 19 20  1  0  0  0  0
 20 21  1  0  0  0  0
 22 23  2  0  0  0  0
 22 24  1  0  0  0  0
 24 25  1  0  0  0  0
 24 26  1  0  0  0  0
 26 27  1  0  0  0  0
 26 28  1  0  0  0  0
 26 29  1  0  0  0  0
M  END
$$$$

  -OEChem-03222214043D

 29 29  0     1  0  0  0  0  0999 V2000
   -3.1651   -3.9730    0.4528 H   0  0  0  0  0  0  0  0  0  0  0  0
   -3.0662   -3.0068   -0.0505 C   0  0  0  0  0  0  0  0  0  0  0  0
   -3.8122   -2.3203    0.3571 H   0  0  0  0  0  0  0  0  0  0  0  0
   -3.2523   -3.1468   -1.1180 H   0  0  0  0  0  0  0  0  0  0  0  0
   -1.6721   -2.4486    0.1638 C   0  0  0  0  0  0  0  0  0  0  0  0
   -0.8643   -3.0707    0.8291 O   0  0  0  0  0  0  0  0  0  0  0  0
   -1.3268   -1.2286   -0.3840 N   0  0  0  0  0  0  0  0  0  0  0  0
   -2.0353   -0.7530   -0.9355 H   0  0  0  0  0  0  0  0  0  0  0  0
    0.0133   -0.6171   -0.2851 C   0  0  1  0  0  0  0  0  0  0  0  0
    0.7067   -1.3862   -0.6447 H   0  0  0  0  0  0  0  0  0  0  0  0
    0.1372    0.5435   -1.3082 C   0  0  0  0  0  0  0  0  0  0  0  0
    1.1229    0.4325   -1.7732 H   0  0  0  0  0  0  0  0  0  0  0  0
   -0.5982    0.4067   -2.1073 H   0  0  0  0  0  0  0  0  0  0  0  0
    0.0766    1.9789   -0.8258 C   0  0  0  0  0  0  0  0  0  0  0  0
    0.1934    2.5279    0.4330 N   0  0  0  0  0  0  0  0  0  0  0  0
    0.4350    2.0193    1.2857 H   0  0  0  0  0  0  0  0  0  0  0  0
    0.0233    3.8952    0.3469 C   0  0  0  0  0  0  0  0  0  0  0  0
    0.0815    4.5872    1.1822 H   0  0  0  0  0  0  0  0  0  0  0  0
   -0.2218    4.2368   -0.8942 N   0  0  0  0  0  0  0  0  0  0  0  0
   -0.1880    3.0582   -1.6304 C   0  0  0  0  0  0  0  0  0  0  0  0
   -0.3575    3.0007   -2.7017 H   0  0  0  0  0  0  0  0  0  0  0  0
    0.4823   -0.3499    1.1633 C   0  0  0  0  0  0  0  0  0  0  0  0
    1.6769   -0.3580    1.4266 O   0  0  0  0  0  0  0  0  0  0  0  0
   -0.3818    0.2159    2.0873 N   0  0  0  0  0  0  0  0  0  0  0  0
   -1.3700    0.1394    1.8645 H   0  0  0  0  0  0  0  0  0  0  0  0
   -0.0025    0.4552    3.4753 C   0  0  0  0  0  0  0  0  0  0  0  0
    0.8481    1.1426    3.5308 H   0  0  0  0  0  0  0  0  0  0  0  0
   -0.8390    0.8982    4.0245 H   0  0  0  0  0  0  0  0  0  0  0  0
    0.2740   -0.4857    3.9628 H   0  0  0  0  0  0  0  0  0  0  0  0
  1  2  1  0  0  0  0
  2  3  1  0  0  0  0
  2  4  1  0  0  0  0
  2  5  1  0  0  0  0
  5  6  2  0  0  0  0
  5  7  1  0  0  0  0
  7  8  1  0  0  0  0
  7  9  1  0  0  0  0
  9 10  1  0  0  0  0
  9 11  1  0  0  0  0
  9 22  1  0  0  0  0
 11 12  1  0  0  0  0
 11 13  1  0  0  0  0
 11 14  1  0  0  0  0
 14 15  1  0  0  0  0
 14 20  2  0  0  0  0
 15 16  1  0  0  0  0
 15 17  1  0  0  0  0
 17 18  1  0  0  0  0
 17 19  2  0  0  0  0
 19 20  1  0  0  0  0
 20 21  1  0  0  0  0
 22 23  2  0  0  0  0
 22 24  1  0  0  0  0
 24 25  1  0  0  0  0
 24 26  1  0  0  0  0
 26 27  1  0  0  0  0
 26 28  1  0  0  0  0
 26 29  1  0  0  0  0
M  END
$$$$

  -OEChem-03222214043D

 29 29  0     1  0  0  0  0  0999 V2000
   -3.1697   -3.9453    0.5234 H   0  0  0  0  0  0  0  0  0  0  0  0
   -3.0673   -2.9911   -0.0014 C   0  0  0  0  0  0  0  0  0  0  0  0
   -3.7878   -2.2827    0.4142 H   0  0  0  0  0  0  0  0  0  0  0  0
   -3.2877   -3.1471   -1.0602 H   0  0  0  0  0  0  0  0  0  0  0  0
   -1.6572   -2.4560    0.1620 C   0  0  0  0  0  0  0  0  0  0  0  0
   -0.8395   -3.0849    0.8089 O   0  0  0  0  0  0  0  0  0  0  0  0
   -1.3092   -1.2474   -0.4090 N   0  0  0  0  0  0  0  0  0  0  0  0
   -2.0307   -0.7577   -0.9301 H   0  0  0  0  0  0  0  0  0  0  0  0
    0.0312   -0.6353   -0.3186 C   0  0  1  0  0  0  0  0  0  0  0  0
    0.7302   -1.4037   -0.6689 H   0  0  0  0  0  0  0  0  0  0  0  0
    0.1463    0.5238   -1.3446 C   0  0  0  0  0  0  0  0  0  0  0  0
    1.1296    0.4178   -1.8154 H   0  0  0  0  0  0  0  0  0  0  0  0
   -0.5942    0.3879   -2.1393 H   0  0  0  0  0  0  0  0  0  0  0  0
    0.0859    1.9526   -0.8454 C   0  0  0  0  0  0  0  0  0  0  0  0
    0.4780    2.4964    0.3591 N   0  0  0  0  0  0  0  0  0  0  0  0
    0.9450    1.9924    1.1165 H   0  0  0  0  0  0  0  0  0  0  0  0
    0.1800    3.8439    0.3632 C   0  0  0  0  0  0  0  0  0  0  0  0
    0.3863    4.5280    1.1814 H   0  0  0  0  0  0  0  0  0  0  0  0
   -0.3946    4.1764   -0.7673 N   0  0  0  0  0  0  0  0  0  0  0  0
   -0.4555    3.0130   -1.5261 C   0  0  0  0  0  0  0  0  0  0  0  0
   -0.8864    2.9528   -2.5210 H   0  0  0  0  0  0  0  0  0  0  0  0
    0.4828   -0.3456    1.1315 C   0  0  0  0  0  0  0  0  0  0  0  0
    1.6764   -0.3138    1.4010 O   0  0  0  0  0  0  0  0  0  0  0  0
   -0.3939    0.2349    2.0336 N   0  0  0  0  0  0  0  0  0  0  0  0
   -1.3781    0.1961    1.7869 H   0  0  0  0  0  0  0  0  0  0  0  0
   -0.0314    0.5474    3.4108 C   0  0  0  0  0  0  0  0  0  0  0  0
    0.7817    1.2801    3.4393 H   0  0  0  0  0  0  0  0  0  0  0  0
   -0.8912    0.9671    3.9417 H   0  0  0  0  0  0  0  0  0  0  0  0
    0.2919   -0.3583    3.9351 H   0  0  0  0  0  0  0  0  0  0  0  0
  1  2  1  0  0  0  0
  2  3  1  0  0  0  0
  2  4  1  0  0  0  0
  2  5  1  0  0  0  0
  5  6  2  0  0  0  0
  5  7  1  0  0  0  0
  7  8  1  0  0  0  0
  7  9  1  0  0  0  0
  9 10  1  0  0  0  0
  9 11  1  0  0  0  0
  9 22  1  0  0  0  0
 11 12  1  0  0  0  0
 11 13  1  0  0  0  0
 11 14  1  0  0  0  0
 14 15  1  0  0  0  0
 14 20  2  0  0  0  0
 15 16  1  0  0  0  0
 15 17  1  0  0  0  0
 17 18  1  0  0  0  0
 17 19  2  0  0  0  0
 19 20  1  0  0  0  0
 20 21  1  0  0  0  0
 22 23  2  0  0  0  0
 22 24  1  0  0  0  0
 24 25  1  0  0  0  0
 24 26  1  0  0  0  0
 26 27  1  0  0  0  0
 26 28  1  0  0  0  0
 26 29  1  0  0  0  0
M  END
$$$$

  -OEChem-03222214043D

 29 29  0     1  0  0  0  0  0999 V2000
   -3.1559   -3.9577    0.5507 H   0  0  0  0  0  0  0  0  0  0  0  0
   -3.0594   -3.0071    0.0184 C   0  0  0  0  0  0  0  0  0  0  0  0
   -3.7771   -2.2966    0.4351 H   0  0  0  0  0  0  0  0  0  0  0  0
   -3.2884   -3.1710   -1.0374 H   0  0  0  0  0  0  0  0  0  0  0  0
   -1.6489   -2.4688    0.1654 C   0  0  0  0  0  0  0  0  0  0  0  0
   -0.8241   -3.0892    0.8117 O   0  0  0  0  0  0  0  0  0  0  0  0
   -1.3072   -1.2690   -0.4267 N   0  0  0  0  0  0  0  0  0  0  0  0
   -2.0351   -0.7846   -0.9436 H   0  0  0  0  0  0  0  0  0  0  0  0
    0.0284   -0.6470   -0.3417 C   0  0  1  0  0  0  0  0  0  0  0  0
    0.7345   -1.4133   -0.6817 H   0  0  0  0  0  0  0  0  0  0  0  0
    0.1365    0.5059   -1.3736 C   0  0  0  0  0  0  0  0  0  0  0  0
    1.1155    0.4088   -1.8549 H   0  0  0  0  0  0  0  0  0  0  0  0
   -0.6124    0.3699   -2.1602 H   0  0  0  0  0  0  0  0  0  0  0  0
    0.0638    1.9226   -0.8493 C   0  0  0  0  0  0  0  0  0  0  0  0
    0.6995    2.4759    0.2413 N   0  0  0  0  0  0  0  0  0  0  0  0
    1.3315    1.9821    0.8770 H   0  0  0  0  0  0  0  0  0  0  0  0
    0.3190    3.7976    0.3558 C   0  0  0  0  0  0  0  0  0  0  0  0
    0.6603    4.4820    1.1272 H   0  0  0  0  0  0  0  0  0  0  0  0
   -0.5222    4.1048   -0.6029 N   0  0  0  0  0  0  0  0  0  0  0  0
   -0.6835    2.9508   -1.3617 C   0  0  0  0  0  0  0  0  0  0  0  0
   -1.3237    2.8744   -2.2353 H   0  0  0  0  0  0  0  0  0  0  0  0
    0.4757   -0.3254    1.1036 C   0  0  0  0  0  0  0  0  0  0  0  0
    1.6709   -0.2679    1.3669 O   0  0  0  0  0  0  0  0  0  0  0  0
   -0.4060    0.2677    1.9919 N   0  0  0  0  0  0  0  0  0  0  0  0
   -1.3881    0.2504    1.7359 H   0  0  0  0  0  0  0  0  0  0  0  0
   -0.0372    0.6741    3.3425 C   0  0  0  0  0  0  0  0  0  0  0  0
    0.7353    1.4493    3.3139 H   0  0  0  0  0  0  0  0  0  0  0  0
   -0.9092    1.0757    3.8673 H   0  0  0  0  0  0  0  0  0  0  0  0
    0.3436   -0.1828    3.9085 H   0  0  0  0  0  0  0  0  0  0  0  0
  1  2  1  0  0  0  0
  2  3  1  0  0  0  0
  2  4  1  0  0  0  0
  2  5  1  0  0  0  0
  5  6  2  0  0  0  0
  5  7  1  0  0  0  0
  7  8  1  0  0  0  0
  7  9  1  0  0  0  0
  9 10  1  0  0  0  0
  9 11  1  0  0  0  0
  9 22  1  0  0  0  0
 11 12  1  0  0  0  0
 11 13  1  0  0  0  0
 11 14  1  0  0  0  0
 14 15  1  0  0  0  0
 14 20  2  0  0  0  0
 15 16  1  0  0  0  0
 15 17  1  0  0  0  0
 17 18  1  0  0  0  0
 17 19  2  0  0  0  0
 19 20  1  0  0  0  0
 20 21  1  0  0  0  0
 22 23  2  0  0  0  0
 22 24  1  0  0  0  0
 24 25  1  0  0  0  0
 24 26  1  0  0  0  0
 26 27  1  0  0  0  0
 26 28  1  0  0  0  0
 26 29  1  0  0  0  0
M  END
$$$$

  -OEChem-03222214043D

 29 29  0     1  0  0  0  0  0999 V2000
   -3.1306   -3.9819    0.5726 H   0  0  0  0  0  0  0  0  0  0  0  0
   -3.0462   -3.0354    0.0312 C   0  0  0  0  0  0  0  0  0  0  0  0
   -3.7664   -2.3270    0.4475 H   0  0  0  0  0  0  0  0  0  0  0  0
   -3.2825   -3.2106   -1.0212 H   0  0  0  0  0  0  0  0  0  0  0  0
   -1.6390   -2.4843    0.1626 C   0  0  0  0  0  0  0  0  0  0  0  0
   -0.8057   -3.0919    0.8102 O   0  0  0  0  0  0  0  0  0  0  0  0
   -1.3082   -1.2909   -0.4485 N   0  0  0  0  0  0  0  0  0  0  0  0
   -2.0425   -0.8167   -0.9654 H   0  0  0  0  0  0  0  0  0  0  0  0
    0.0208   -0.6550   -0.3643 C   0  0  1  0  0  0  0  0  0  0  0  0
    0.7356   -1.4171   -0.6952 H   0  0  0  0  0  0  0  0  0  0  0  0
    0.1234    0.4942   -1.3978 C   0  0  0  0  0  0  0  0  0  0  0  0
    1.0997    0.4123   -1.8871 H   0  0  0  0  0  0  0  0  0  0  0  0
   -0.6319    0.3617   -2.1790 H   0  0  0  0  0  0  0  0  0  0  0  0
    0.0317    1.8924   -0.8357 C   0  0  0  0  0  0  0  0  0  0  0  0
    0.8650    2.4809    0.0908 N   0  0  0  0  0  0  0  0  0  0  0  0
    1.6254    2.0133    0.5907 H   0  0  0  0  0  0  0  0  0  0  0  0
    0.4210    3.7663    0.3282 C   0  0  0  0  0  0  0  0  0  0  0  0
    0.8719    4.4635    1.0288 H   0  0  0  0  0  0  0  0  0  0  0  0
   -0.6335    4.0200   -0.4112 N   0  0  0  0  0  0  0  0  0  0  0  0
   -0.8791    2.8666   -1.1478 C   0  0  0  0  0  0  0  0  0  0  0  0
   -1.6883    2.7526   -1.8628 H   0  0  0  0  0  0  0  0  0  0  0  0
    0.4684   -0.2994    1.0738 C   0  0  0  0  0  0  0  0  0  0  0  0
    1.6652   -0.2470    1.3355 O   0  0  0  0  0  0  0  0  0  0  0  0
   -0.4155    0.3052    1.9517 N   0  0  0  0  0  0  0  0  0  0  0  0
   -1.3910    0.3343    1.6743 H   0  0  0  0  0  0  0  0  0  0  0  0
   -0.0383    0.7992    3.2698 C   0  0  0  0  0  0  0  0  0  0  0  0
    0.7082    1.5953    3.1825 H   0  0  0  0  0  0  0  0  0  0  0  0
   -0.9139    1.2024    3.7872 H   0  0  0  0  0  0  0  0  0  0  0  0
    0.3791   -0.0116    3.8762 H   0  0  0  0  0  0  0  0  0  0  0  0
  1  2  1  0  0  0  0
  2  3  1  0  0  0  0
  2  4  1  0  0  0  0
  2  5  1  0  0  0  0
  5  6  2  0  0  0  0
  5  7  1  0  0  0  0
  7  8  1  0  0  0  0
  7  9  1  0  0  0  0
  9 10  1  0  0  0  0
  9 11  1  0  0  0  0
  9 22  1  0  0  0  0
 11 12  1  0  0  0  0
 11 13  1  0  0  0  0
 11 14  1  0  0  0  0
 14 15  1  0  0  0  0
 14 20  2  0  0  0  0
 15 16  1  0  0  0  0
 15 17  1  0  0  0  0
 17 18  1  0  0  0  0
 17 19  2  0  0  0  0
 19 20  1  0  0  0  0
 20 21  1  0  0  0  0
 22 23  2  0  0  0  0
 22 24  1  0  0  0  0
 24 25  1  0  0  0  0
 24 26  1  0  0  0  0
 26 27  1  0  0  0  0
 26 28  1  0  0  0  0
 26 29  1  0  0  0  0
M  END
$$$$

  -OEChem-03222214043D

 29 29  0     1  0  0  0  0  0999 V2000
   -3.1167   -4.0103    0.5686 H   0  0  0  0  0  0  0  0  0  0  0  0
   -3.0407   -3.0640    0.0258 C   0  0  0  0  0  0  0  0  0  0  0  0
   -3.7673   -2.3618    0.4414 H   0  0  0  0  0  0  0  0  0  0  0  0
   -3.2758   -3.2432   -1.0262 H   0  0  0  0  0  0  0  0  0  0  0  0
   -1.6384   -2.4995    0.1563 C   0  0  0  0  0  0  0  0  0  0  0  0
   -0.8012   -3.0963    0.8087 O   0  0  0  0  0  0  0  0  0  0  0  0
   -1.3160   -1.3074   -0.4622 N   0  0  0  0  0  0  0  0  0  0  0  0
   -2.0515   -0.8450   -0.9876 H   0  0  0  0  0  0  0  0  0  0  0  0
    0.0066   -0.6591   -0.3729 C   0  0  1  0  0  0  0  0  0  0  0  0
    0.7270   -1.4187   -0.6978 H   0  0  0  0  0  0  0  0  0  0  0  0
    0.1122    0.4869   -1.4063 C   0  0  0  0  0  0  0  0  0  0  0  0
    1.0880    0.4170   -1.8984 H   0  0  0  0  0  0  0  0  0  0  0  0
   -0.6460    0.3587   -2.1851 H   0  0  0  0  0  0  0  0  0  0  0  0
    0.0016    1.8675   -0.8117 C   0  0  0  0  0  0  0  0  0  0  0  0
    0.9656    2.5344   -0.0887 N   0  0  0  0  0  0  0  0  0  0  0  0
    1.8414    2.1330    0.2512 H   0  0  0  0  0  0  0  0  0  0  0  0
    0.4710    3.7777    0.2534 C   0  0  0  0  0  0  0  0  0  0  0  0
    0.9979    4.5159    0.8515 H   0  0  0  0  0  0  0  0  0  0  0  0
   -0.7347    3.9347   -0.2419 N   0  0  0  0  0  0  0  0  0  0  0  0
   -1.0324    2.7585   -0.9202 C   0  0  0  0  0  0  0  0  0  0  0  0
   -1.9588    2.5716   -1.4550 H   0  0  0  0  0  0  0  0  0  0  0  0
    0.4615   -0.2799    1.0575 C   0  0  0  0  0  0  0  0  0  0  0  0
    1.6602   -0.2438    1.3145 O   0  0  0  0  0  0  0  0  0  0  0  0
   -0.4178    0.3314    1.9352 N   0  0  0  0  0  0  0  0  0  0  0  0
   -1.3874    0.3995    1.6450 H   0  0  0  0  0  0  0  0  0  0  0  0
   -0.0212    0.8924    3.2201 C   0  0  0  0  0  0  0  0  0  0  0  0
    0.7004    1.7037    3.0786 H   0  0  0  0  0  0  0  0  0  0  0  0
   -0.8946    1.2941    3.7424 H   0  0  0  0  0  0  0  0  0  0  0  0
    0.4337    0.1203    3.8496 H   0  0  0  0  0  0  0  0  0  0  0  0
  1  2  1  0  0  0  0
  2  3  1  0  0  0  0
  2  4  1  0  0  0  0
  2  5  1  0  0  0  0
  5  6  2  0  0  0  0
  5  7  1  0  0  0  0
  7  8  1  0  0  0  0
  7  9  1  0  0  0  0
  9 10  1  0  0  0  0
  9 11  1  0  0  0  0
  9 22  1  0  0  0  0
 11 12  1  0  0  0  0
 11 13  1  0  0  0  0
 11 14  1  0  0  0  0
 14 15  1  0  0  0  0
 14 20  2  0  0  0  0
 15 16  1  0  0  0  0
 15 17  1  0  0  0  0
 17 18  1  0  0  0  0
 17 19  2  0  0  0  0
 19 20  1  0  0  0  0
 20 21  1  0  0  0  0
 22 23  2  0  0  0  0
 22 24  1  0  0  0  0
 24 25  1  0  0  0  0
 24 26  1  0  0  0  0
 26 27  1  0  0  0  0
 26 28  1  0  0  0  0
 26 29  1  0  0  0  0
M  END
$$$$

  -OEChem-03222214043D

 29 29  0     1  0  0  0  0  0999 V2000
   -3.1088   -4.0309    0.5585 H   0  0  0  0  0  0  0  0  0  0  0  0
   -3.0385   -3.0844    0.0147 C   0  0  0  0  0  0  0  0  0  0  0  0
   -3.7740   -2.3883    0.4246 H   0  0  0  0  0  0  0  0  0  0  0  0
   -3.2645   -3.2671   -1.0384 H   0  0  0  0  0  0  0  0  0  0  0  0
   -1.6423   -2.5079    0.1535 C   0  0  0  0  0  0  0  0  0  0  0  0
   -0.8042   -3.0999    0.8089 O   0  0  0  0  0  0  0  0  0  0  0  0
   -1.3246   -1.3154   -0.4666 N   0  0  0  0  0  0  0  0  0  0  0  0
   -2.0603   -0.8580   -0.9961 H   0  0  0  0  0  0  0  0  0  0  0  0
   -0.0045   -0.6631   -0.3731 C   0  0  1  0  0  0  0  0  0  0  0  0
    0.7174   -1.4217   -0.6964 H   0  0  0  0  0  0  0  0  0  0  0  0
    0.1054    0.4831   -1.4041 C   0  0  0  0  0  0  0  0  0  0  0  0
    1.0798    0.4169   -1.8992 H   0  0  0  0  0  0  0  0  0  0  0  0
   -0.6549    0.3604   -2.1818 H   0  0  0  0  0  0  0  0  0  0  0  0
   -0.0130    1.8539   -0.7912 C   0  0  0  0  0  0  0  0  0  0  0  0
    1.0131    2.6316   -0.3049 N   0  0  0  0  0  0  0  0  0  0  0  0
    1.9786    2.3322   -0.1692 H   0  0  0  0  0  0  0  0  0  0  0  0
    0.4795    3.8269    0.1373 C   0  0  0  0  0  0  0  0  0  0  0  0
    1.0457    4.6286    0.6027 H   0  0  0  0  0  0  0  0  0  0  0  0
   -0.8151    3.8512   -0.0801 N   0  0  0  0  0  0  0  0  0  0  0  0
   -1.1313    2.6350   -0.6730 C   0  0  0  0  0  0  0  0  0  0  0  0
   -2.1275    2.3446   -0.9924 H   0  0  0  0  0  0  0  0  0  0  0  0
    0.4541   -0.2762    1.0544 C   0  0  0  0  0  0  0  0  0  0  0  0
    1.6522   -0.2653    1.3149 O   0  0  0  0  0  0  0  0  0  0  0  0
   -0.4228    0.3378    1.9326 N   0  0  0  0  0  0  0  0  0  0  0  0
   -1.3855    0.4384    1.6296 H   0  0  0  0  0  0  0  0  0  0  0  0
   -0.0102    0.9473    3.1897 C   0  0  0  0  0  0  0  0  0  0  0  0
    0.6777    1.7784    3.0035 H   0  0  0  0  0  0  0  0  0  0  0  0
   -0.8819    1.3329    3.7268 H   0  0  0  0  0  0  0  0  0  0  0  0
    0.4897    0.2099    3.8266 H   0  0  0  0  0  0  0  0  0  0  0  0
  1  2  1  0  0  0  0
  2  3  1  0  0  0  0
  2  4  1  0  0  0  0
  2  5  1  0  0  0  0
  5  6  2  0  0  0  0
  5  7  1  0  0  0  0
  7  8  1  0  0  0  0
  7  9  1  0  0  0  0
  9 10  1  0  0  0  0
  9 11  1  0  0  0  0
  9 22  1  0  0  0  0
 11 12  1  0  0  0  0
 11 13  1  0  0  0  0
 11 14  1  0  0  0  0
 14 15  1  0  0  0  0
 14 20  2  0  0  0  0
 15 16  1  0  0  0  0
 15 17  1  0  0  0  0
 17 18  1  0  0  0  0
 17 19  2  0  0  0  0
 19 20  1  0  0  0  0
 20 21  1  0  0  0  0
 22 23  2  0  0  0  0
 22 24  1  0  0  0  0
 24 25  1  0  0  0  0
 24 26  1  0  0  0  0
 26 27  1  0  0  0  0
 26 28  1  0  0  0  0
 26 29  1  0  0  0  0
M  END
$$$$

  -OEChem-03222214043D

 29 29  0     1  0  0  0  0  0999 V2000
   -3.1137   -4.0445    0.5269 H   0  0  0  0  0  0  0  0  0  0  0  0
   -3.0406   -3.0925   -0.0069 C   0  0  0  0  0  0  0  0  0  0  0  0
   -3.7866   -2.4046    0.3982 H   0  0  0  0  0  0  0  0  0  0  0  0
   -3.2498   -3.2671   -1.0651 H   0  0  0  0  0  0  0  0  0  0  0  0
   -1.6505   -2.5080    0.1587 C   0  0  0  0  0  0  0  0  0  0  0  0
   -0.8216   -3.0947    0.8302 O   0  0  0  0  0  0  0  0  0  0  0  0
   -1.3299   -1.3135   -0.4560 N   0  0  0  0  0  0  0  0  0  0  0  0
   -2.0551   -0.8694   -1.0104 H   0  0  0  0  0  0  0  0  0  0  0  0
   -0.0109   -0.6598   -0.3566 C   0  0  1  0  0  0  0  0  0  0  0  0
    0.7102   -1.4205   -0.6775 H   0  0  0  0  0  0  0  0  0  0  0  0
    0.1030    0.4811   -1.3929 C   0  0  0  0  0  0  0  0  0  0  0  0
    1.0817    0.4117   -1.8790 H   0  0  0  0  0  0  0  0  0  0  0  0
   -0.6505    0.3537   -2.1764 H   0  0  0  0  0  0  0  0  0  0  0  0
   -0.0216    1.8576   -0.7932 C   0  0  0  0  0  0  0  0  0  0  0  0
    0.9885    2.7644   -0.5661 N   0  0  0  0  0  0  0  0  0  0  0  0
    1.9874    2.5895   -0.6658 H   0  0  0  0  0  0  0  0  0  0  0  0
    0.4296    3.9144   -0.0411 C   0  0  0  0  0  0  0  0  0  0  0  0
    0.9870    4.7948    0.2659 H   0  0  0  0  0  0  0  0  0  0  0  0
   -0.8747    3.7894    0.0361 N   0  0  0  0  0  0  0  0  0  0  0  0
   -1.1688    2.5187   -0.4417 C   0  0  0  0  0  0  0  0  0  0  0  0
   -2.1704    2.1077   -0.5227 H   0  0  0  0  0  0  0  0  0  0  0  0
    0.4533   -0.2720    1.0687 C   0  0  0  0  0  0  0  0  0  0  0  0
    1.6504   -0.2870    1.3305 O   0  0  0  0  0  0  0  0  0  0  0  0
   -0.4160    0.3422    1.9540 N   0  0  0  0  0  0  0  0  0  0  0  0
   -1.3830    0.4366    1.6642 H   0  0  0  0  0  0  0  0  0  0  0  0
    0.0072    0.9419    3.2122 C   0  0  0  0  0  0  0  0  0  0  0  0
    0.7049    1.7651    3.0270 H   0  0  0  0  0  0  0  0  0  0  0  0
   -0.8579    1.3369    3.7530 H   0  0  0  0  0  0  0  0  0  0  0  0
    0.4995    0.1961    3.8452 H   0  0  0  0  0  0  0  0  0  0  0  0
  1  2  1  0  0  0  0
  2  3  1  0  0  0  0
  2  4  1  0  0  0  0
  2  5  1  0  0  0  0
  5  6  2  0  0  0  0
  5  7  1  0  0  0  0
  7  8  1  0  0  0  0
  7  9  1  0  0  0  0
  9 10  1  0  0  0  0
  9 11  1  0  0  0  0
  9 22  1  0  0  0  0
 11 12  1  0  0  0  0
 11 13  1  0  0  0  0
 11 14  1  0  0  0  0
 14 15  1  0  0  0  0
 14 20  2  0  0  0  0
 15 16  1  0  0  0  0
 15 17  1  0  0  0  0
 17 18  1  0  0  0  0
 17 19  2  0  0  0  0
 19 20  1  0  0  0  0
 20 21  1  0  0  0  0
 22 23  2  0  0  0  0
 22 24  1  0  0  0  0
 24 25  1  0  0  0  0
 24 26  1  0  0  0  0
 26 27  1  0  0  0  0
 26 28  1  0  0  0  0
 26 29  1  0  0  0  0
M  END
$$$$

  -OEChem-03222214043D

 29 29  0     1  0  0  0  0  0999 V2000
   -3.1004   -4.0646    0.4976 H   0  0  0  0  0  0  0  0  0  0  0  0
   -3.0330   -3.1061   -0.0250 C   0  0  0  0  0  0  0  0  0  0  0  0
   -3.7907   -2.4312    0.3802 H   0  0  0  0  0  0  0  0  0  0  0  0
   -3.2298   -3.2713   -1.0869 H   0  0  0  0  0  0  0  0  0  0  0  0
   -1.6510   -2.5081    0.1606 C   0  0  0  0  0  0  0  0  0  0  0  0
   -0.8233   -3.0917    0.8362 O   0  0  0  0  0  0  0  0  0  0  0  0
   -1.3372   -1.3035   -0.4378 N   0  0  0  0  0  0  0  0  0  0  0  0
   -2.0591   -0.8656   -1.0017 H   0  0  0  0  0  0  0  0  0  0  0  0
   -0.0218   -0.6433   -0.3320 C   0  0  1  0  0  0  0  0  0  0  0  0
    0.6989   -1.4035   -0.6548 H   0  0  0  0  0  0  0  0  0  0  0  0
    0.0975    0.4931   -1.3727 C   0  0  0  0  0  0  0  0  0  0  0  0
    1.0857    0.4172   -1.8381 H   0  0  0  0  0  0  0  0  0  0  0  0
   -0.6390    0.3540   -2.1703 H   0  0  0  0  0  0  0  0  0  0  0  0
   -0.0338    1.8852   -0.8073 C   0  0  0  0  0  0  0  0  0  0  0  0
    0.8994    2.8963   -0.8508 N   0  0  0  0  0  0  0  0  0  0  0  0
    1.8585    2.8165   -1.1837 H   0  0  0  0  0  0  0  0  0  0  0  0
    0.3505    4.0229   -0.2670 C   0  0  0  0  0  0  0  0  0  0  0  0
    0.8637    4.9713   -0.1367 H   0  0  0  0  0  0  0  0  0  0  0  0
   -0.8841    3.7828    0.1066 N   0  0  0  0  0  0  0  0  0  0  0  0
   -1.1374    2.4598   -0.2326 C   0  0  0  0  0  0  0  0  0  0  0  0
   -2.0841    1.9536   -0.0697 H   0  0  0  0  0  0  0  0  0  0  0  0
    0.4499   -0.2694    1.0939 C   0  0  0  0  0  0  0  0  0  0  0  0
    1.6480   -0.2896    1.3492 O   0  0  0  0  0  0  0  0  0  0  0  0
   -0.4141    0.3293    1.9943 N   0  0  0  0  0  0  0  0  0  0  0  0
   -1.3944    0.3745    1.7396 H   0  0  0  0  0  0  0  0  0  0  0  0
    0.0125    0.8814    3.2731 C   0  0  0  0  0  0  0  0  0  0  0  0
    0.7335    1.6908    3.1176 H   0  0  0  0  0  0  0  0  0  0  0  0
   -0.8469    1.2844    3.8172 H   0  0  0  0  0  0  0  0  0  0  0  0
    0.4792    0.1049    3.8884 H   0  0  0  0  0  0  0  0  0  0  0  0
  1  2  1  0  0  0  0
  2  3  1  0  0  0  0
  2  4  1  0  0  0  0
  2  5  1  0  0  0  0
  5  6  2  0  0  0  0
  5  7  1  0  0  0  0
  7  8  1  0  0  0  0
  7  9  1  0  0  0  0
  9 10  1  0  0  0  0
  9 11  1  0  0  0  0
  9 22  1  0  0  0  0
 11 12  1  0  0  0  0
 11 13  1  0  0  0  0
 11 14  1  0  0  0  0
 14 15  1  0  0  0  0
 14 20  2  0  0  0  0
 15 16  1  0  0  0  0
 15 17  1  0  0  0  0
 17 18  1  0  0  0  0
 17 19  2  0  0  0  0
 19 20  1  0  0  0  0
 20 21  1  0  0  0  0
 22 23  2  0  0  0  0
 22 24  1  0  0  0  0
 24 25  1  0  0  0  0
 24 26  1  0  0  0  0
 26 27  1  0  0  0  0
 26 28  1  0  0  0  0
 26 29  1  0  0  0  0
M  END
$$$$

  -OEChem-03222214043D

 29 29  0     1  0  0  0  0  0999 V2000
   -3.0758   -4.0855    0.4670 H   0  0  0  0  0  0  0  0  0  0  0  0
   -3.0179   -3.1187   -0.0411 C   0  0  0  0  0  0  0  0  0  0  0  0
   -3.7790   -2.4559    0.3772 H   0  0  0  0  0  0  0  0  0  0  0  0
   -3.2175   -3.2690   -1.1047 H   0  0  0  0  0  0  0  0  0  0  0  0
   -1.6402   -2.5127    0.1485 C   0  0  0  0  0  0  0  0  0  0  0  0
   -0.8030   -3.1028    0.8064 O   0  0  0  0  0  0  0  0  0  0  0  0
   -1.3432   -1.2895   -0.4194 N   0  0  0  0  0  0  0  0  0  0  0  0
   -2.0752   -0.8416   -0.9625 H   0  0  0  0  0  0  0  0  0  0  0  0
   -0.0356   -0.6163   -0.3029 C   0  0  1  0  0  0  0  0  0  0  0  0
    0.6856   -1.3735   -0.6320 H   0  0  0  0  0  0  0  0  0  0  0  0
    0.0920    0.5175   -1.3465 C   0  0  0  0  0  0  0  0  0  0  0  0
    1.0934    0.4389   -1.7826 H   0  0  0  0  0  0  0  0  0  0  0  0
   -0.6204    0.3624   -2.1625 H   0  0  0  0  0  0  0  0  0  0  0  0
   -0.0517    1.9260   -0.8222 C   0  0  0  0  0  0  0  0  0  0  0  0
    0.7495    3.0041   -1.1272 N   0  0  0  0  0  0  0  0  0  0  0  0
    1.6086    2.9808   -1.6732 H   0  0  0  0  0  0  0  0  0  0  0  0
    0.2350    4.1251   -0.5029 C   0  0  0  0  0  0  0  0  0  0  0  0
    0.6709    5.1191   -0.5462 H   0  0  0  0  0  0  0  0  0  0  0  0
   -0.8617    3.8170    0.1466 N   0  0  0  0  0  0  0  0  0  0  0  0
   -1.0544    2.4556   -0.0510 C   0  0  0  0  0  0  0  0  0  0  0  0
   -1.8987    1.8944    0.3373 H   0  0  0  0  0  0  0  0  0  0  0  0
    0.4452   -0.2704    1.1268 C   0  0  0  0  0  0  0  0  0  0  0  0
    1.6458   -0.2840    1.3686 O   0  0  0  0  0  0  0  0  0  0  0  0
   -0.4137    0.2959    2.0525 N   0  0  0  0  0  0  0  0  0  0  0  0
   -1.4042    0.2797    1.8367 H   0  0  0  0  0  0  0  0  0  0  0  0
    0.0182    0.7861    3.3549 C   0  0  0  0  0  0  0  0  0  0  0  0
    0.7567    1.5860    3.2359 H   0  0  0  0  0  0  0  0  0  0  0  0
   -0.8355    1.1856    3.9105 H   0  0  0  0  0  0  0  0  0  0  0  0
    0.4651   -0.0242    3.9404 H   0  0  0  0  0  0  0  0  0  0  0  0
  1  2  1  0  0  0  0
  2  3  1  0  0  0  0
  2  4  1  0  0  0  0
  2  5  1  0  0  0  0
  5  6  2  0  0  0  0
  5  7  1  0  0  0  0
  7  8  1  0  0  0  0
  7  9  1  0  0  0  0
  9 10  1  0  0  0  0
  9 11  1  0  0  0  0
  9 22  1  0  0  0  0
 11 12  1  0  0  0  0
 11 13  1  0  0  0  0
 11 14  1  0  0  0  0
 14 15  1  0  0  0  0
 14 20  2  0  0  0  0
 15 16  1  0  0  0  0
 15 17  1  0  0  0  0
 17 18  1  0  0  0  0
 17 19  2  0  0  0  0
 19 20  1  0  0  0  0
 20 21  1  0  0  0  0
 22 23  2  0  0  0  0
 22 24  1  0  0  0  0
 24 25  1  0  0  0  0
 24 26  1  0  0  0  0
 26 27  1  0  0  0  0
 26 28  1  0  0  0  0
 26 29  1  0  0  0  0
M  END
$$$$

  -OEChem-03222214043D

 29 29  0     1  0  0  0  0  0999 V2000
   -3.0526   -4.1129    0.4088 H   0  0  0  0  0  0  0  0  0  0  0  0
   -3.0052   -3.1323   -0.0738 C   0  0  0  0  0  0  0  0  0  0  0  0
   -3.7736   -2.4890    0.3614 H   0  0  0  0  0  0  0  0  0  0  0  0
   -3.2031   -3.2566   -1.1411 H   0  0  0  0  0  0  0  0  0  0  0  0
   -1.6342   -2.5166    0.1318 C   0  0  0  0  0  0  0  0  0  0  0  0
   -0.7873   -3.1178    0.7669 O   0  0  0  0  0  0  0  0  0  0  0  0
   -1.3550   -1.2708   -0.3944 N   0  0  0  0  0  0  0  0  0  0  0  0
   -2.0970   -0.8113   -0.9138 H   0  0  0  0  0  0  0  0  0  0  0  0
   -0.0552   -0.5856   -0.2650 C   0  0  1  0  0  0  0  0  0  0  0  0
    0.6650   -1.3386   -0.6066 H   0  0  0  0  0  0  0  0  0  0  0  0
    0.0827    0.5493   -1.3077 C   0  0  0  0  0  0  0  0  0  0  0  0
    1.0953    0.4705   -1.7176 H   0  0  0  0  0  0  0  0  0  0  0  0
   -0.6074    0.3794   -2.1397 H   0  0  0  0  0  0  0  0  0  0  0  0
   -0.0714    1.9727   -0.8227 C   0  0  0  0  0  0  0  0  0  0  0  0
    0.5506    3.0759   -1.3664 N   0  0  0  0  0  0  0  0  0  0  0  0
    1.2687    3.0667   -2.0879 H   0  0  0  0  0  0  0  0  0  0  0  0
    0.0861    4.2090   -0.7259 C   0  0  0  0  0  0  0  0  0  0  0  0
    0.4191    5.2228   -0.9294 H   0  0  0  0  0  0  0  0  0  0  0  0
   -0.8224    3.8838    0.1606 N   0  0  0  0  0  0  0  0  0  0  0  0
   -0.9368    2.5004    0.1024 C   0  0  0  0  0  0  0  0  0  0  0  0
   -1.6531    1.9280    0.6819 H   0  0  0  0  0  0  0  0  0  0  0  0
    0.4436   -0.2790    1.1673 C   0  0  0  0  0  0  0  0  0  0  0  0
    1.6480   -0.2867    1.3882 O   0  0  0  0  0  0  0  0  0  0  0  0
   -0.4026    0.2464    2.1279 N   0  0  0  0  0  0  0  0  0  0  0  0
   -1.3984    0.1978    1.9421 H   0  0  0  0  0  0  0  0  0  0  0  0
    0.0492    0.6747    3.4457 C   0  0  0  0  0  0  0  0  0  0  0  0
    0.7837    1.4819    3.3541 H   0  0  0  0  0  0  0  0  0  0  0  0
   -0.7961    1.0441    4.0339 H   0  0  0  0  0  0  0  0  0  0  0  0
    0.5082   -0.1617    3.9834 H   0  0  0  0  0  0  0  0  0  0  0  0
  1  2  1  0  0  0  0
  2  3  1  0  0  0  0
  2  4  1  0  0  0  0
  2  5  1  0  0  0  0
  5  6  2  0  0  0  0
  5  7  1  0  0  0  0
  7  8  1  0  0  0  0
  7  9  1  0  0  0  0
  9 10  1  0  0  0  0
  9 11  1  0  0  0  0
  9 22  1  0  0  0  0
 11 12  1  0  0  0  0
 11 13  1  0  0  0  0
 11 14  1  0  0  0  0
 14 15  1  0  0  0  0
 14 20  2  0  0  0  0
 15 16  1  0  0  0  0
 15 17  1  0  0  0  0
 17 18  1  0  0  0  0
 17 19  2  0  0  0  0
 19 20  1  0  0  0  0
 20 21  1  0  0  0  0
 22 23  2  0  0  0  0
 22 24  1  0  0  0  0
 24 25  1  0  0  0  0
 24 26  1  0  0  0  0
 26 27  1  0  0  0  0
 26 28  1  0  0  0  0
 26 29  1  0  0  0  0
M  END
$$$$

  -OEChem-03222214043D

 29 29  0     1  0  0  0  0  0999 V2000
   -3.0385   -4.1302    0.3244 H   0  0  0  0  0  0  0  0  0  0  0  0
   -3.0028   -3.1327   -0.1231 C   0  0  0  0  0  0  0  0  0  0  0  0
   -3.7772   -2.5138    0.3362 H   0  0  0  0  0  0  0  0  0  0  0  0
   -3.2018   -3.2212   -1.1938 H   0  0  0  0  0  0  0  0  0  0  0  0
   -1.6376   -2.5104    0.1009 C   0  0  0  0  0  0  0  0  0  0  0  0
   -0.7809   -3.1288    0.7057 O   0  0  0  0  0  0  0  0  0  0  0  0
   -1.3756   -1.2391   -0.3707 N   0  0  0  0  0  0  0  0  0  0  0  0
   -2.1279   -0.7623   -0.8590 H   0  0  0  0  0  0  0  0  0  0  0  0
   -0.0804   -0.5481   -0.2284 C   0  0  1  0  0  0  0  0  0  0  0  0
    0.6340   -1.2966   -0.5925 H   0  0  0  0  0  0  0  0  0  0  0  0
    0.0695    0.5955   -1.2617 C   0  0  0  0  0  0  0  0  0  0  0  0
    1.0880    0.5133   -1.6568 H   0  0  0  0  0  0  0  0  0  0  0  0
   -0.6081    0.4178   -2.1022 H   0  0  0  0  0  0  0  0  0  0  0  0
   -0.0838    2.0336   -0.8131 C   0  0  0  0  0  0  0  0  0  0  0  0
    0.3199    3.1186   -1.5632 N   0  0  0  0  0  0  0  0  0  0  0  0
    0.8513    3.0837   -2.4306 H   0  0  0  0  0  0  0  0  0  0  0  0
   -0.0618    4.2791   -0.9185 C   0  0  0  0  0  0  0  0  0  0  0  0
    0.1462    5.2870   -1.2664 H   0  0  0  0  0  0  0  0  0  0  0  0
   -0.7217    3.9866    0.1735 N   0  0  0  0  0  0  0  0  0  0  0  0
   -0.7538    2.5991    0.2445 C   0  0  0  0  0  0  0  0  0  0  0  0
   -1.2998    2.0589    1.0067 H   0  0  0  0  0  0  0  0  0  0  0  0
    0.4399   -0.3010    1.2071 C   0  0  0  0  0  0  0  0  0  0  0  0
    1.6481   -0.3021    1.4045 O   0  0  0  0  0  0  0  0  0  0  0  0
   -0.3912    0.1715    2.2070 N   0  0  0  0  0  0  0  0  0  0  0  0
   -1.3900    0.1057    2.0425 H   0  0  0  0  0  0  0  0  0  0  0  0
    0.0816    0.5180    3.5418 C   0  0  0  0  0  0  0  0  0  0  0  0
    0.8069    1.3370    3.4899 H   0  0  0  0  0  0  0  0  0  0  0  0
   -0.7558    0.8391    4.1686 H   0  0  0  0  0  0  0  0  0  0  0  0
    0.5585   -0.3465    4.0156 H   0  0  0  0  0  0  0  0  0  0  0  0
  1  2  1  0  0  0  0
  2  3  1  0  0  0  0
  2  4  1  0  0  0  0
  2  5  1  0  0  0  0
  5  6  2  0  0  0  0
  5  7  1  0  0  0  0
  7  8  1  0  0  0  0
  7  9  1  0  0  0  0
  9 10  1  0  0  0  0
  9 11  1  0  0  0  0
  9 22  1  0  0  0  0
 11 12  1  0  0  0  0
 11 13  1  0  0  0  0
 11 14  1  0  0  0  0
 14 15  1  0  0  0  0
 14 20  2  0  0  0  0
 15 16  1  0  0  0  0
 15 17  1  0  0  0  0
 17 18  1  0  0  0  0
 17 19  2  0  0  0  0
 19 20  1  0  0  0  0
 20 21  1  0  0  0  0
 22 23  2  0  0  0  0
 22 24  1  0  0  0  0
 24 25  1  0  0  0  0
 24 26  1  0  0  0  0
 26 27  1  0  0  0  0
 26 28  1  0  0  0  0
 26 29  1  0  0  0  0
M  END
$$$$

  -OEChem-03222214043D

 29 29  0     1  0  0  0  0  0999 V2000
   -3.1017   -4.0152    0.4306 H   0  0  0  0  0  0  0  0  0  0  0  0
   -3.0255   -3.0352   -0.0494 C   0  0  0  0  0  0  0  0  0  0  0  0
   -3.7489   -2.3605    0.4144 H   0  0  0  0  0  0  0  0  0  0  0  0
   -3.2644   -3.1440   -1.1101 H   0  0  0  0  0  0  0  0  0  0  0  0
   -1.6213   -2.4842    0.1120 C   0  0  0  0  0  0  0  0  0  0  0  0
   -0.7751   -3.1429    0.6875 O   0  0  0  0  0  0  0  0  0  0  0  0
   -1.3103   -1.2372   -0.3954 N   0  0  0  0  0  0  0  0  0  0  0  0
   -2.0598   -0.7280   -0.8535 H   0  0  0  0  0  0  0  0  0  0  0  0
    0.0086   -0.5836   -0.2592 C   0  0  1  0  0  0  0  0  0  0  0  0
    0.7417   -1.3132   -0.6226 H   0  0  0  0  0  0  0  0  0  0  0  0
    0.0992    0.6111   -1.2532 C   0  0  0  0  0  0  0  0  0  0  0  0
    0.9289    0.3801   -1.9297 H   0  0  0  0  0  0  0  0  0  0  0  0
   -0.8064    0.6160   -1.8673 H   0  0  0  0  0  0  0  0  0  0  0  0
    0.3239    2.0443   -0.7987 C   0  0  0  0  0  0  0  0  0  0  0  0
    0.3969    3.0777   -1.7118 N   0  0  0  0  0  0  0  0  0  0  0  0
    0.3153    2.9909   -2.7223 H   0  0  0  0  0  0  0  0  0  0  0  0
    0.6299    4.2632   -1.0444 C   0  0  0  0  0  0  0  0  0  0  0  0
    0.7269    5.2387   -1.5126 H   0  0  0  0  0  0  0  0  0  0  0  0
    0.7143    4.0392    0.2405 N   0  0  0  0  0  0  0  0  0  0  0  0
    0.5523    2.6678    0.4092 C   0  0  0  0  0  0  0  0  0  0  0  0
    0.6201    2.1939    1.3785 H   0  0  0  0  0  0  0  0  0  0  0  0
    0.4204   -0.3569    1.2115 C   0  0  0  0  0  0  0  0  0  0  0  0
    1.5988   -0.4339    1.5317 O   0  0  0  0  0  0  0  0  0  0  0  0
   -0.4932    0.1449    2.1240 N   0  0  0  0  0  0  0  0  0  0  0  0
   -1.4656    0.1618    1.8368 H   0  0  0  0  0  0  0  0  0  0  0  0
   -0.1669    0.3918    3.5234 C   0  0  0  0  0  0  0  0  0  0  0  0
    0.6589    1.1065    3.6064 H   0  0  0  0  0  0  0  0  0  0  0  0
   -1.0338    0.8067    4.0463 H   0  0  0  0  0  0  0  0  0  0  0  0
    0.1243   -0.5411    4.0176 H   0  0  0  0  0  0  0  0  0  0  0  0
  1  2  1  0  0  0  0
  2  3  1  0  0  0  0
  2  4  1  0  0  0  0
  2  5  1  0  0  0  0
  5  6  2  0  0  0  0
  5  7  1  0  0  0  0
  7  8  1  0  0  0  0
  7  9  1  0  0  0  0
  9 10  1  0  0  0  0
  9 11  1  0  0  0  0
  9 22  1  0  0  0  0
 11 12  1  0  0  0  0
 11 13  1  0  0  0  0
 11 14  1  0  0  0  0
 14 15  1  0  0  0  0
 14 20  2  0  0  0  0
 15 16  1  0  0  0  0
 15 17  1  0  0  0  0
 17 18  1  0  0  0  0
 17 19  2  0  0  0  0
 19 20  1  0  0  0  0
 20 21  1  0  0  0  0
 22 23  2  0  0  0  0
 22 24  1  0  0  0  0
 24 25  1  0  0  0  0
 24 26  1  0  0  0  0
 26 27  1  0  0  0  0
 26 28  1  0  0  0  0
 26 29  1  0  0  0  0
M  END
$$$$

  -OEChem-03222214043D

 29 29  0     1  0  0  0  0  0999 V2000
   -3.1341   -3.9754    0.4870 H   0  0  0  0  0  0  0  0  0  0  0  0
   -3.0398   -3.0110   -0.0207 C   0  0  0  0  0  0  0  0  0  0  0  0
   -3.7394   -2.3056    0.4338 H   0  0  0  0  0  0  0  0  0  0  0  0
   -3.2956   -3.1423   -1.0748 H   0  0  0  0  0  0  0  0  0  0  0  0
   -1.6201   -2.4923    0.1081 C   0  0  0  0  0  0  0  0  0  0  0  0
   -0.7789   -3.1645    0.6752 O   0  0  0  0  0  0  0  0  0  0  0  0
   -1.2904   -1.2582   -0.4181 N   0  0  0  0  0  0  0  0  0  0  0  0
   -2.0387   -0.7336   -0.8599 H   0  0  0  0  0  0  0  0  0  0  0  0
    0.0357   -0.6201   -0.2801 C   0  0  1  0  0  0  0  0  0  0  0  0
    0.7700   -1.3486   -0.6433 H   0  0  0  0  0  0  0  0  0  0  0  0
    0.1094    0.5848   -1.2640 C   0  0  0  0  0  0  0  0  0  0  0  0
    0.9234    0.3686   -1.9639 H   0  0  0  0  0  0  0  0  0  0  0  0
   -0.8093    0.6000   -1.8580 H   0  0  0  0  0  0  0  0  0  0  0  0
    0.3394    2.0068   -0.7776 C   0  0  0  0  0  0  0  0  0  0  0  0
    0.1031    3.0980   -1.5904 N   0  0  0  0  0  0  0  0  0  0  0  0
   -0.2316    3.0693   -2.5509 H   0  0  0  0  0  0  0  0  0  0  0  0
    0.4234    4.2539   -0.9071 C   0  0  0  0  0  0  0  0  0  0  0  0
    0.3276    5.2619   -1.3006 H   0  0  0  0  0  0  0  0  0  0  0  0
    0.8596    3.9567    0.2888 N   0  0  0  0  0  0  0  0  0  0  0  0
    0.8385    2.5683    0.3788 C   0  0  0  0  0  0  0  0  0  0  0  0
    1.1953    2.0343    1.2509 H   0  0  0  0  0  0  0  0  0  0  0  0
    0.4360   -0.3742    1.1901 C   0  0  0  0  0  0  0  0  0  0  0  0
    1.6049   -0.4967    1.5314 O   0  0  0  0  0  0  0  0  0  0  0  0
   -0.4766    0.1568    2.0861 N   0  0  0  0  0  0  0  0  0  0  0  0
   -1.4380    0.2380    1.7744 H   0  0  0  0  0  0  0  0  0  0  0  0
   -0.1556    0.4475    3.4779 C   0  0  0  0  0  0  0  0  0  0  0  0
    0.6301    1.2077    3.5396 H   0  0  0  0  0  0  0  0  0  0  0  0
   -1.0409    0.8232    3.9995 H   0  0  0  0  0  0  0  0  0  0  0  0
    0.1888   -0.4584    3.9880 H   0  0  0  0  0  0  0  0  0  0  0  0
  1  2  1  0  0  0  0
  2  3  1  0  0  0  0
  2  4  1  0  0  0  0
  2  5  1  0  0  0  0
  5  6  2  0  0  0  0
  5  7  1  0  0  0  0
  7  8  1  0  0  0  0
  7  9  1  0  0  0  0
  9 10  1  0  0  0  0
  9 11  1  0  0  0  0
  9 22  1  0  0  0  0
 11 12  1  0  0  0  0
 11 13  1  0  0  0  0
 11 14  1  0  0  0  0
 14 15  1  0  0  0  0
 14 20  2  0  0  0  0
 15 16  1  0  0  0  0
 15 17  1  0  0  0  0
 17 18  1  0  0  0  0
 17 19  2  0  0  0  0
 19 20  1  0  0  0  0
 20 21  1  0  0  0  0
 22 23  2  0  0  0  0
 22 24  1  0  0  0  0
 24 25  1  0  0  0  0
 24 26  1  0  0  0  0
 26 27  1  0  0  0  0
 26 28  1  0  0  0  0
 26 29  1  0  0  0  0
M  END
$$$$

  -OEChem-03222214043D

 29 29  0     1  0  0  0  0  0999 V2000
   -3.1453   -3.9808    0.5084 H   0  0  0  0  0  0  0  0  0  0  0  0
   -3.0465   -3.0209   -0.0070 C   0  0  0  0  0  0  0  0  0  0  0  0
   -3.7398   -2.3076    0.4447 H   0  0  0  0  0  0  0  0  0  0  0  0
   -3.3067   -3.1588   -1.0591 H   0  0  0  0  0  0  0  0  0  0  0  0
   -1.6228   -2.5106    0.1127 C   0  0  0  0  0  0  0  0  0  0  0  0
   -0.7857   -3.1830    0.6853 O   0  0  0  0  0  0  0  0  0  0  0  0
   -1.2832   -1.2894   -0.4374 N   0  0  0  0  0  0  0  0  0  0  0  0
   -2.0298   -0.7629   -0.8791 H   0  0  0  0  0  0  0  0  0  0  0  0
    0.0459   -0.6573   -0.3004 C   0  0  1  0  0  0  0  0  0  0  0  0
    0.7836   -1.3846   -0.6592 H   0  0  0  0  0  0  0  0  0  0  0  0
    0.1055    0.5515   -1.2809 C   0  0  0  0  0  0  0  0  0  0  0  0
    0.9149    0.3499   -1.9905 H   0  0  0  0  0  0  0  0  0  0  0  0
   -0.8171    0.5733   -1.8689 H   0  0  0  0  0  0  0  0  0  0  0  0
    0.3368    1.9573   -0.7540 C   0  0  0  0  0  0  0  0  0  0  0  0
   -0.1664    3.0855   -1.3701 N   0  0  0  0  0  0  0  0  0  0  0  0
   -0.7422    3.1064   -2.2086 H   0  0  0  0  0  0  0  0  0  0  0  0
    0.2631    4.2050   -0.6851 C   0  0  0  0  0  0  0  0  0  0  0  0
    0.0097    5.2307   -0.9381 H   0  0  0  0  0  0  0  0  0  0  0  0
    1.0231    3.8492    0.3177 N   0  0  0  0  0  0  0  0  0  0  0  0
    1.1028    2.4608    0.2750 C   0  0  0  0  0  0  0  0  0  0  0  0
    1.7141    1.8799    0.9564 H   0  0  0  0  0  0  0  0  0  0  0  0
    0.4379   -0.3817    1.1679 C   0  0  0  0  0  0  0  0  0  0  0  0
    1.5958   -0.5450    1.5295 O   0  0  0  0  0  0  0  0  0  0  0  0
   -0.4737    0.1767    2.0475 N   0  0  0  0  0  0  0  0  0  0  0  0
   -1.4096    0.3525    1.6997 H   0  0  0  0  0  0  0  0  0  0  0  0
   -0.1356    0.5703    3.4094 C   0  0  0  0  0  0  0  0  0  0  0  0
    0.6172    1.3656    3.4020 H   0  0  0  0  0  0  0  0  0  0  0  0
   -1.0249    0.9401    3.9284 H   0  0  0  0  0  0  0  0  0  0  0  0
    0.2597   -0.2846    3.9683 H   0  0  0  0  0  0  0  0  0  0  0  0
  1  2  1  0  0  0  0
  2  3  1  0  0  0  0
  2  4  1  0  0  0  0
  2  5  1  0  0  0  0
  5  6  2  0  0  0  0
  5  7  1  0  0  0  0
  7  8  1  0  0  0  0
  7  9  1  0  0  0  0
  9 10  1  0  0  0  0
  9 11  1  0  0  0  0
  9 22  1  0  0  0  0
 11 12  1  0  0  0  0
 11 13  1  0  0  0  0
 11 14  1  0  0  0  0
 14 15  1  0  0  0  0
 14 20  2  0  0  0  0
 15 16  1  0  0  0  0
 15 17  1  0  0  0  0
 17 18  1  0  0  0  0
 17 19  2  0  0  0  0
 19 20  1  0  0  0  0
 20 21  1  0  0  0  0
 22 23  2  0  0  0  0
 22 24  1  0  0  0  0
 24 25  1  0  0  0  0
 24 26  1  0  0  0  0
 26 27  1  0  0  0  0
 26 28  1  0  0  0  0
 26 29  1  0  0  0  0
M  END
$$$$

  -OEChem-03222214043D

 29 29  0     1  0  0  0  0  0999 V2000
   -3.1383   -4.0016    0.5219 H   0  0  0  0  0  0  0  0  0  0  0  0
   -3.0436   -3.0451   -0.0003 C   0  0  0  0  0  0  0  0  0  0  0  0
   -3.7457   -2.3339    0.4412 H   0  0  0  0  0  0  0  0  0  0  0  0
   -3.2957   -3.1935   -1.0529 H   0  0  0  0  0  0  0  0  0  0  0  0
   -1.6249   -2.5224    0.1251 C   0  0  0  0  0  0  0  0  0  0  0  0
   -0.7906   -3.1766    0.7225 O   0  0  0  0  0  0  0  0  0  0  0  0
   -1.2859   -1.3115   -0.4478 N   0  0  0  0  0  0  0  0  0  0  0  0
   -2.0275   -0.8029   -0.9176 H   0  0  0  0  0  0  0  0  0  0  0  0
    0.0407   -0.6741   -0.3158 C   0  0  1  0  0  0  0  0  0  0  0  0
    0.7820   -1.4029   -0.6636 H   0  0  0  0  0  0  0  0  0  0  0  0
    0.0990    0.5274   -1.3024 C   0  0  0  0  0  0  0  0  0  0  0  0
    0.9195    0.3336   -2.0014 H   0  0  0  0  0  0  0  0  0  0  0  0
   -0.8153    0.5532   -1.9027 H   0  0  0  0  0  0  0  0  0  0  0  0
    0.3286    1.9136   -0.7351 C   0  0  0  0  0  0  0  0  0  0  0  0
   -0.3748    3.0429   -1.1002 N   0  0  0  0  0  0  0  0  0  0  0  0
   -1.1435    3.0863   -1.7652 H   0  0  0  0  0  0  0  0  0  0  0  0
    0.1617    4.1339   -0.4439 C   0  0  0  0  0  0  0  0  0  0  0  0
   -0.1988    5.1551   -0.5289 H   0  0  0  0  0  0  0  0  0  0  0  0
    1.1734    3.7587    0.2959 N   0  0  0  0  0  0  0  0  0  0  0  0
    1.3082    2.3864    0.1084 C   0  0  0  0  0  0  0  0  0  0  0  0
    2.0961    1.7867    0.5529 H   0  0  0  0  0  0  0  0  0  0  0  0
    0.4335   -0.3641    1.1472 C   0  0  0  0  0  0  0  0  0  0  0  0
    1.5936   -0.5129    1.5084 O   0  0  0  0  0  0  0  0  0  0  0  0
   -0.4770    0.2128    2.0156 N   0  0  0  0  0  0  0  0  0  0  0  0
   -1.4044    0.4058    1.6553 H   0  0  0  0  0  0  0  0  0  0  0  0
   -0.1217    0.6803    3.3493 C   0  0  0  0  0  0  0  0  0  0  0  0
    0.6106    1.4923    3.2868 H   0  0  0  0  0  0  0  0  0  0  0  0
   -1.0092    1.0528    3.8692 H   0  0  0  0  0  0  0  0  0  0  0  0
    0.3065   -0.1367    3.9397 H   0  0  0  0  0  0  0  0  0  0  0  0
  1  2  1  0  0  0  0
  2  3  1  0  0  0  0
  2  4  1  0  0  0  0
  2  5  1  0  0  0  0
  5  6  2  0  0  0  0
  5  7  1  0  0  0  0
  7  8  1  0  0  0  0
  7  9  1  0  0  0  0
  9 10  1  0  0  0  0
  9 11  1  0  0  0  0
  9 22  1  0  0  0  0
 11 12  1  0  0  0  0
 11 13  1  0  0  0  0
 11 14  1  0  0  0  0
 14 15  1  0  0  0  0
 14 20  2  0  0  0  0
 15 16  1  0  0  0  0
 15 17  1  0  0  0  0
 17 18  1  0  0  0  0
 17 19  2  0  0  0  0
 19 20  1  0  0  0  0
 20 21  1  0  0  0  0
 22 23  2  0  0  0  0
 22 24  1  0  0  0  0
 24 25  1  0  0  0  0
 24 26  1  0  0  0  0
 26 27  1  0  0  0  0
 26 28  1  0  0  0  0
 26 29  1  0  0  0  0
M  END
$$$$

  -OEChem-03222214043D

 29 29  0     1  0  0  0  0  0999 V2000
   -3.1333   -4.0236    0.5133 H   0  0  0  0  0  0  0  0  0  0  0  0
   -3.0418   -3.0674   -0.0103 C   0  0  0  0  0  0  0  0  0  0  0  0
   -3.7615   -2.3641    0.4153 H   0  0  0  0  0  0  0  0  0  0  0  0
   -3.2717   -3.2225   -1.0672 H   0  0  0  0  0  0  0  0  0  0  0  0
   -1.6332   -2.5247    0.1404 C   0  0  0  0  0  0  0  0  0  0  0  0
   -0.8061   -3.1557    0.7718 O   0  0  0  0  0  0  0  0  0  0  0  0
   -1.2960   -1.3209   -0.4478 N   0  0  0  0  0  0  0  0  0  0  0  0
   -2.0257   -0.8411   -0.9642 H   0  0  0  0  0  0  0  0  0  0  0  0
    0.0291   -0.6799   -0.3247 C   0  0  1  0  0  0  0  0  0  0  0  0
    0.7679   -1.4148   -0.6647 H   0  0  0  0  0  0  0  0  0  0  0  0
    0.0947    0.5102   -1.3204 C   0  0  0  0  0  0  0  0  0  0  0  0
    0.9253    0.3145   -2.0069 H   0  0  0  0  0  0  0  0  0  0  0  0
   -0.8108    0.5430   -1.9333 H   0  0  0  0  0  0  0  0  0  0  0  0
    0.3275    1.8800   -0.7241 C   0  0  0  0  0  0  0  0  0  0  0  0
   -0.5141    2.9677   -0.8225 N   0  0  0  0  0  0  0  0  0  0  0  0
   -1.4177    2.9935   -1.2887 H   0  0  0  0  0  0  0  0  0  0  0  0
    0.0929    4.0504   -0.2145 C   0  0  0  0  0  0  0  0  0  0  0  0
   -0.3388    5.0438   -0.1310 H   0  0  0  0  0  0  0  0  0  0  0  0
    1.2700    3.7072    0.2442 N   0  0  0  0  0  0  0  0  0  0  0  0
    1.4401    2.3638   -0.0778 C   0  0  0  0  0  0  0  0  0  0  0  0
    2.3334    1.7856    0.1404 H   0  0  0  0  0  0  0  0  0  0  0  0
    0.4372   -0.3441    1.1292 C   0  0  0  0  0  0  0  0  0  0  0  0
    1.6077   -0.4574    1.4697 O   0  0  0  0  0  0  0  0  0  0  0  0
   -0.4656    0.2466    1.9962 N   0  0  0  0  0  0  0  0  0  0  0  0
   -1.4029    0.4108    1.6478 H   0  0  0  0  0  0  0  0  0  0  0  0
   -0.0909    0.7661    3.3050 C   0  0  0  0  0  0  0  0  0  0  0  0
    0.6308    1.5831    3.1986 H   0  0  0  0  0  0  0  0  0  0  0  0
   -0.9726    1.1474    3.8283 H   0  0  0  0  0  0  0  0  0  0  0  0
    0.3583   -0.0238    3.9161 H   0  0  0  0  0  0  0  0  0  0  0  0
  1  2  1  0  0  0  0
  2  3  1  0  0  0  0
  2  4  1  0  0  0  0
  2  5  1  0  0  0  0
  5  6  2  0  0  0  0
  5  7  1  0  0  0  0
  7  8  1  0  0  0  0
  7  9  1  0  0  0  0
  9 10  1  0  0  0  0
  9 11  1  0  0  0  0
  9 22  1  0  0  0  0
 11 12  1  0  0  0  0
 11 13  1  0  0  0  0
 11 14  1  0  0  0  0
 14 15  1  0  0  0  0
 14 20  2  0  0  0  0
 15 16  1  0  0  0  0
 15 17  1  0  0  0  0
 17 18  1  0  0  0  0
 17 19  2  0  0  0  0
 19 20  1  0  0  0  0
 20 21  1  0  0  0  0
 22 23  2  0  0  0  0
 22 24  1  0  0  0  0
 24 25  1  0  0  0  0
 24 26  1  0  0  0  0
 26 27  1  0  0  0  0
 26 28  1  0  0  0  0
 26 29  1  0  0  0  0
M  END
$$$$

  -OEChem-03222214043D

 29 29  0     1  0  0  0  0  0999 V2000
   -3.1261   -4.0485    0.4853 H   0  0  0  0  0  0  0  0  0  0  0  0
   -3.0398   -3.0901   -0.0346 C   0  0  0  0  0  0  0  0  0  0  0  0
   -3.7931   -2.4058    0.3628 H   0  0  0  0  0  0  0  0  0  0  0  0
   -3.2266   -3.2508   -1.0991 H   0  0  0  0  0  0  0  0  0  0  0  0
   -1.6520   -2.5115    0.1686 C   0  0  0  0  0  0  0  0  0  0  0  0
   -0.8432   -3.1057    0.8569 O   0  0  0  0  0  0  0  0  0  0  0  0
   -1.3142   -1.3154   -0.4345 N   0  0  0  0  0  0  0  0  0  0  0  0
   -2.0140   -0.8895   -1.0330 H   0  0  0  0  0  0  0  0  0  0  0  0
    0.0126   -0.6758   -0.3259 C   0  0  1  0  0  0  0  0  0  0  0  0
    0.7442   -1.4200   -0.6611 H   0  0  0  0  0  0  0  0  0  0  0  0
    0.0874    0.5015   -1.3336 C   0  0  0  0  0  0  0  0  0  0  0  0
    0.9199    0.2948   -2.0146 H   0  0  0  0  0  0  0  0  0  0  0  0
   -0.8158    0.5423   -1.9496 H   0  0  0  0  0  0  0  0  0  0  0  0
    0.3306    1.8629   -0.7278 C   0  0  0  0  0  0  0  0  0  0  0  0
   -0.5883    2.8765   -0.5588 N   0  0  0  0  0  0  0  0  0  0  0  0
   -1.5736    2.8501   -0.8087 H   0  0  0  0  0  0  0  0  0  0  0  0
    0.0629    3.9703   -0.0195 C   0  0  0  0  0  0  0  0  0  0  0  0
   -0.4064    4.9184    0.2272 H   0  0  0  0  0  0  0  0  0  0  0  0
    1.3339    3.7023    0.1464 N   0  0  0  0  0  0  0  0  0  0  0  0
    1.5197    2.3949   -0.2934 C   0  0  0  0  0  0  0  0  0  0  0  0
    2.4721    1.8727   -0.2988 H   0  0  0  0  0  0  0  0  0  0  0  0
    0.4436   -0.3186    1.1171 C   0  0  0  0  0  0  0  0  0  0  0  0
    1.6229   -0.4126    1.4332 O   0  0  0  0  0  0  0  0  0  0  0  0
   -0.4433    0.2877    1.9899 N   0  0  0  0  0  0  0  0  0  0  0  0
   -1.4004    0.3984    1.6765 H   0  0  0  0  0  0  0  0  0  0  0  0
   -0.0516    0.8120    3.2916 C   0  0  0  0  0  0  0  0  0  0  0  0
    0.6726    1.6251    3.1728 H   0  0  0  0  0  0  0  0  0  0  0  0
   -0.9256    1.2006    3.8226 H   0  0  0  0  0  0  0  0  0  0  0  0
    0.4005    0.0229    3.9019 H   0  0  0  0  0  0  0  0  0  0  0  0
  1  2  1  0  0  0  0
  2  3  1  0  0  0  0
  2  4  1  0  0  0  0
  2  5  1  0  0  0  0
  5  6  2  0  0  0  0
  5  7  1  0  0  0  0
  7  8  1  0  0  0  0
  7  9  1  0  0  0  0
  9 10  1  0  0  0  0
  9 11  1  0  0  0  0
  9 22  1  0  0  0  0
 11 12  1  0  0  0  0
 11 13  1  0  0  0  0
 11 14  1  0  0  0  0
 14 15  1  0  0  0  0
 14 20  2  0  0  0  0
 15 16  1  0  0  0  0
 15 17  1  0  0  0  0
 17 18  1  0  0  0  0
 17 19  2  0  0  0  0
 19 20  1  0  0  0  0
 20 21  1  0  0  0  0
 22 23  2  0  0  0  0
 22 24  1  0  0  0  0
 24 25  1  0  0  0  0
 24 26  1  0  0  0  0
 26 27  1  0  0  0  0
 26 28  1  0  0  0  0
 26 29  1  0  0  0  0
M  END
$$$$

  -OEChem-03222214043D

 29 29  0     1  0  0  0  0  0999 V2000
   -3.1113   -4.0532    0.4871 H   0  0  0  0  0  0  0  0  0  0  0  0
   -3.0302   -3.0996   -0.0426 C   0  0  0  0  0  0  0  0  0  0  0  0
   -3.8105   -2.4275    0.3220 H   0  0  0  0  0  0  0  0  0  0  0  0
   -3.1789   -3.2780   -1.1102 H   0  0  0  0  0  0  0  0  0  0  0  0
   -1.6632   -2.4871    0.1963 C   0  0  0  0  0  0  0  0  0  0  0  0
   -0.8703   -3.0460    0.9307 O   0  0  0  0  0  0  0  0  0  0  0  0
   -1.3283   -1.2968   -0.4197 N   0  0  0  0  0  0  0  0  0  0  0  0
   -2.0045   -0.9150   -1.0731 H   0  0  0  0  0  0  0  0  0  0  0  0
    0.0010   -0.6597   -0.3265 C   0  0  1  0  0  0  0  0  0  0  0  0
    0.7253   -1.4131   -0.6569 H   0  0  0  0  0  0  0  0  0  0  0  0
    0.0859    0.5036   -1.3478 C   0  0  0  0  0  0  0  0  0  0  0  0
    0.9155    0.2810   -2.0275 H   0  0  0  0  0  0  0  0  0  0  0  0
   -0.8185    0.5484   -1.9616 H   0  0  0  0  0  0  0  0  0  0  0  0
    0.3404    1.8654   -0.7496 C   0  0  0  0  0  0  0  0  0  0  0  0
   -0.5925    2.7862   -0.3223 N   0  0  0  0  0  0  0  0  0  0  0  0
   -1.6032    2.6770   -0.3348 H   0  0  0  0  0  0  0  0  0  0  0  0
    0.0785    3.9089    0.1259 C   0  0  0  0  0  0  0  0  0  0  0  0
   -0.3940    4.8011    0.5266 H   0  0  0  0  0  0  0  0  0  0  0  0
    1.3711    3.7470   -0.0089 N   0  0  0  0  0  0  0  0  0  0  0  0
    1.5521    2.4767   -0.5478 C   0  0  0  0  0  0  0  0  0  0  0  0
    2.5164    2.0348   -0.7809 H   0  0  0  0  0  0  0  0  0  0  0  0
    0.4491   -0.2898    1.1082 C   0  0  0  0  0  0  0  0  0  0  0  0
    1.6340   -0.3683    1.4068 O   0  0  0  0  0  0  0  0  0  0  0  0
   -0.4288    0.3263    1.9834 N   0  0  0  0  0  0  0  0  0  0  0  0
   -1.4090    0.3255    1.7274 H   0  0  0  0  0  0  0  0  0  0  0  0
   -0.0369    0.7959    3.3055 C   0  0  0  0  0  0  0  0  0  0  0  0
    0.7359    1.5675    3.2219 H   0  0  0  0  0  0  0  0  0  0  0  0
   -0.8982    1.2244    3.8264 H   0  0  0  0  0  0  0  0  0  0  0  0
    0.3548   -0.0327    3.9051 H   0  0  0  0  0  0  0  0  0  0  0  0
  1  2  1  0  0  0  0
  2  3  1  0  0  0  0
  2  4  1  0  0  0  0
  2  5  1  0  0  0  0
  5  6  2  0  0  0  0
  5  7  1  0  0  0  0
  7  8  1  0  0  0  0
  7  9  1  0  0  0  0
  9 10  1  0  0  0  0
  9 11  1  0  0  0  0
  9 22  1  0  0  0  0
 11 12  1  0  0  0  0
 11 13  1  0  0  0  0
 11 14  1  0  0  0  0
 14 15  1  0  0  0  0
 14 20  2  0  0  0  0
 15 16  1  0  0  0  0
 15 17  1  0  0  0  0
 17 18  1  0  0  0  0
 17 19  2  0  0  0  0
 19 20  1  0  0  0  0
 20 21  1  0  0  0  0
 22 23  2  0  0  0  0
 22 24  1  0  0  0  0
 24 25  1  0  0  0  0
 24 26  1  0  0  0  0
 26 27  1  0  0  0  0
 26 28  1  0  0  0  0
 26 29  1  0  0  0  0
M  END
$$$$

  -OEChem-03222214043D

 29 29  0     1  0  0  0  0  0999 V2000
   -3.0984   -4.0609    0.4714 H   0  0  0  0  0  0  0  0  0  0  0  0
   -3.0200   -3.1082   -0.0602 C   0  0  0  0  0  0  0  0  0  0  0  0
   -3.8258   -2.4513    0.2751 H   0  0  0  0  0  0  0  0  0  0  0  0
   -3.1305   -3.2951   -1.1310 H   0  0  0  0  0  0  0  0  0  0  0  0
   -1.6747   -2.4651    0.2196 C   0  0  0  0  0  0  0  0  0  0  0  0
   -0.9009   -2.9958    0.9943 O   0  0  0  0  0  0  0  0  0  0  0  0
   -1.3410   -1.2754   -0.3986 N   0  0  0  0  0  0  0  0  0  0  0  0
   -1.9953   -0.9275   -1.0924 H   0  0  0  0  0  0  0  0  0  0  0  0
   -0.0090   -0.6408   -0.3135 C   0  0  1  0  0  0  0  0  0  0  0  0
    0.7095   -1.4016   -0.6396 H   0  0  0  0  0  0  0  0  0  0  0  0
    0.0893    0.5106   -1.3472 C   0  0  0  0  0  0  0  0  0  0  0  0
    0.9111    0.2698   -2.0300 H   0  0  0  0  0  0  0  0  0  0  0  0
   -0.8196    0.5565   -1.9544 H   0  0  0  0  0  0  0  0  0  0  0  0
    0.3523    1.8825   -0.7758 C   0  0  0  0  0  0  0  0  0  0  0  0
   -0.5249    2.7127   -0.1116 N   0  0  0  0  0  0  0  0  0  0  0  0
   -1.4889    2.5041    0.1329 H   0  0  0  0  0  0  0  0  0  0  0  0
    0.1408    3.8796    0.2138 C   0  0  0  0  0  0  0  0  0  0  0  0
   -0.2945    4.7187    0.7489 H   0  0  0  0  0  0  0  0  0  0  0  0
    1.3749    3.8336   -0.2229 N   0  0  0  0  0  0  0  0  0  0  0  0
    1.5250    2.5918   -0.8318 C   0  0  0  0  0  0  0  0  0  0  0  0
    2.4418    2.2377   -1.2935 H   0  0  0  0  0  0  0  0  0  0  0  0
    0.4476   -0.2725    1.1192 C   0  0  0  0  0  0  0  0  0  0  0  0
    1.6349   -0.3463    1.4093 O   0  0  0  0  0  0  0  0  0  0  0  0
   -0.4260    0.3440    1.9994 N   0  0  0  0  0  0  0  0  0  0  0  0
   -1.4121    0.2486    1.7866 H   0  0  0  0  0  0  0  0  0  0  0  0
   -0.0331    0.7404    3.3457 C   0  0  0  0  0  0  0  0  0  0  0  0
    0.7813    1.4718    3.3060 H   0  0  0  0  0  0  0  0  0  0  0  0
   -0.8791    1.1951    3.8692 H   0  0  0  0  0  0  0  0  0  0  0  0
    0.3034   -0.1303    3.9187 H   0  0  0  0  0  0  0  0  0  0  0  0
  1  2  1  0  0  0  0
  2  3  1  0  0  0  0
  2  4  1  0  0  0  0
  2  5  1  0  0  0  0
  5  6  2  0  0  0  0
  5  7  1  0  0  0  0
  7  8  1  0  0  0  0
  7  9  1  0  0  0  0
  9 10  1  0  0  0  0
  9 11  1  0  0  0  0
  9 22  1  0  0  0  0
 11 12  1  0  0  0  0
 11 13  1  0  0  0  0
 11 14  1  0  0  0  0
 14 15  1  0  0  0  0
 14 20  2  0  0  0  0
 15 16  1  0  0  0  0
 15 17  1  0  0  0  0
 17 18  1  0  0  0  0
 17 19  2  0  0  0  0
 19 20  1  0  0  0  0
 20 21  1  0  0  0  0
 22 23  2  0  0  0  0
 22 24  1  0  0  0  0
 24 25  1  0  0  0  0
 24 26  1  0  0  0  0
 26 27  1  0  0  0  0
 26 28  1  0  0  0  0
 26 29  1  0  0  0  0
M  END
$$$$

  -OEChem-03222214043D

 29 29  0     1  0  0  0  0  0999 V2000
   -3.0892   -4.0637    0.4545 H   0  0  0  0  0  0  0  0  0  0  0  0
   -3.0121   -3.1078   -0.0717 C   0  0  0  0  0  0  0  0  0  0  0  0
   -3.8254   -2.4577    0.2588 H   0  0  0  0  0  0  0  0  0  0  0  0
   -3.1109   -3.2901   -1.1446 H   0  0  0  0  0  0  0  0  0  0  0  0
   -1.6739   -2.4572    0.2241 C   0  0  0  0  0  0  0  0  0  0  0  0
   -0.9054   -2.9844    1.0063 O   0  0  0  0  0  0  0  0  0  0  0  0
   -1.3416   -1.2623   -0.3848 N   0  0  0  0  0  0  0  0  0  0  0  0
   -1.9922   -0.9171   -1.0838 H   0  0  0  0  0  0  0  0  0  0  0  0
   -0.0090   -0.6280   -0.2997 C   0  0  1  0  0  0  0  0  0  0  0  0
    0.7077   -1.3908   -0.6250 H   0  0  0  0  0  0  0  0  0  0  0  0
    0.0999    0.5207   -1.3367 C   0  0  0  0  0  0  0  0  0  0  0  0
    0.9132    0.2669   -2.0252 H   0  0  0  0  0  0  0  0  0  0  0  0
   -0.8143    0.5661   -1.9357 H   0  0  0  0  0  0  0  0  0  0  0  0
    0.3671    1.9058   -0.7961 C   0  0  0  0  0  0  0  0  0  0  0  0
   -0.3830    2.6592    0.0813 N   0  0  0  0  0  0  0  0  0  0  0  0
   -1.2073    2.3489    0.5886 H   0  0  0  0  0  0  0  0  0  0  0  0
    0.2539    3.8703    0.2751 C   0  0  0  0  0  0  0  0  0  0  0  0
   -0.0952    4.6613    0.9325 H   0  0  0  0  0  0  0  0  0  0  0  0
    1.3425    3.9301   -0.4509 N   0  0  0  0  0  0  0  0  0  0  0  0
    1.4320    2.7103   -1.1126 C   0  0  0  0  0  0  0  0  0  0  0  0
    2.2333    2.4373   -1.7926 H   0  0  0  0  0  0  0  0  0  0  0  0
    0.4413   -0.2770    1.1391 C   0  0  0  0  0  0  0  0  0  0  0  0
    1.6285   -0.3370    1.4315 O   0  0  0  0  0  0  0  0  0  0  0  0
   -0.4422    0.3269    2.0199 N   0  0  0  0  0  0  0  0  0  0  0  0
   -1.4237    0.1614    1.8255 H   0  0  0  0  0  0  0  0  0  0  0  0
   -0.0577    0.6759    3.3822 C   0  0  0  0  0  0  0  0  0  0  0  0
    0.7691    1.3943    3.3743 H   0  0  0  0  0  0  0  0  0  0  0  0
   -0.9016    1.1291    3.9105 H   0  0  0  0  0  0  0  0  0  0  0  0
    0.2575   -0.2177    3.9315 H   0  0  0  0  0  0  0  0  0  0  0  0
  1  2  1  0  0  0  0
  2  3  1  0  0  0  0
  2  4  1  0  0  0  0
  2  5  1  0  0  0  0
  5  6  2  0  0  0  0
  5  7  1  0  0  0  0
  7  8  1  0  0  0  0
  7  9  1  0  0  0  0
  9 10  1  0  0  0  0
  9 11  1  0  0  0  0
  9 22  1  0  0  0  0
 11 12  1  0  0  0  0
 11 13  1  0  0  0  0
 11 14  1  0  0  0  0
 14 15  1  0  0  0  0
 14 20  2  0  0  0  0
 15 16  1  0  0  0  0
 15 17  1  0  0  0  0
 17 18  1  0  0  0  0
 17 19  2  0  0  0  0
 19 20  1  0  0  0  0
 20 21  1  0  0  0  0
 22 23  2  0  0  0  0
 22 24  1  0  0  0  0
 24 25  1  0  0  0  0
 24 26  1  0  0  0  0
 26 27  1  0  0  0  0
 26 28  1  0  0  0  0
 26 29  1  0  0  0  0
M  END
$$$$

  -OEChem-03222214043D

 29 29  0     1  0  0  0  0  0999 V2000
   -3.0953   -4.0473    0.4476 H   0  0  0  0  0  0  0  0  0  0  0  0
   -3.0121   -3.0867   -0.0690 C   0  0  0  0  0  0  0  0  0  0  0  0
   -3.8118   -2.4293    0.2801 H   0  0  0  0  0  0  0  0  0  0  0  0
   -3.1286   -3.2553   -1.1422 H   0  0  0  0  0  0  0  0  0  0  0  0
   -1.6609   -2.4582    0.2146 C   0  0  0  0  0  0  0  0  0  0  0  0
   -0.8882   -3.0034    0.9803 O   0  0  0  0  0  0  0  0  0  0  0  0
   -1.3229   -1.2589   -0.3823 N   0  0  0  0  0  0  0  0  0  0  0  0
   -1.9843   -0.8876   -1.0578 H   0  0  0  0  0  0  0  0  0  0  0  0
    0.0102   -0.6260   -0.2913 C   0  0  1  0  0  0  0  0  0  0  0  0
    0.7300   -1.3849   -0.6188 H   0  0  0  0  0  0  0  0  0  0  0  0
    0.1194    0.5297   -1.3234 C   0  0  0  0  0  0  0  0  0  0  0  0
    0.9228    0.2726   -2.0224 H   0  0  0  0  0  0  0  0  0  0  0  0
   -0.8018    0.5726   -1.9119 H   0  0  0  0  0  0  0  0  0  0  0  0
    0.3872    1.9269   -0.8080 C   0  0  0  0  0  0  0  0  0  0  0  0
   -0.1745    2.6116    0.2482 N   0  0  0  0  0  0  0  0  0  0  0  0
   -0.7694    2.2088    0.9696 H   0  0  0  0  0  0  0  0  0  0  0  0
    0.3934    3.8694    0.3127 C   0  0  0  0  0  0  0  0  0  0  0  0
    0.1643    4.6203    1.0633 H   0  0  0  0  0  0  0  0  0  0  0  0
    1.2539    4.0263   -0.6622 N   0  0  0  0  0  0  0  0  0  0  0  0
    1.2679    2.8232   -1.3585 C   0  0  0  0  0  0  0  0  0  0  0  0
    1.8881    2.6249   -2.2276 H   0  0  0  0  0  0  0  0  0  0  0  0
    0.4405   -0.2955    1.1579 C   0  0  0  0  0  0  0  0  0  0  0  0
    1.6235   -0.3430    1.4666 O   0  0  0  0  0  0  0  0  0  0  0  0
   -0.4603    0.2951    2.0322 N   0  0  0  0  0  0  0  0  0  0  0  0
   -1.4360    0.1056    1.8250 H   0  0  0  0  0  0  0  0  0  0  0  0
   -0.1010    0.6001    3.4126 C   0  0  0  0  0  0  0  0  0  0  0  0
    0.7290    1.3140    3.4444 H   0  0  0  0  0  0  0  0  0  0  0  0
   -0.9535    1.0400    3.9388 H   0  0  0  0  0  0  0  0  0  0  0  0
    0.2001   -0.3118    3.9394 H   0  0  0  0  0  0  0  0  0  0  0  0
  1  2  1  0  0  0  0
  2  3  1  0  0  0  0
  2  4  1  0  0  0  0
  2  5  1  0  0  0  0
  5  6  2  0  0  0  0
  5  7  1  0  0  0  0
  7  8  1  0  0  0  0
  7  9  1  0  0  0  0
  9 10  1  0  0  0  0
  9 11  1  0  0  0  0
  9 22  1  0  0  0  0
 11 12  1  0  0  0  0
 11 13  1  0  0  0  0
 11 14  1  0  0  0  0
 14 15  1  0  0  0  0
 14 20  2  0  0  0  0
 15 16  1  0  0  0  0
 15 17  1  0  0  0  0
 17 18  1  0  0  0  0
 17 19  2  0  0  0  0
 19 20  1  0  0  0  0
 20 21  1  0  0  0  0
 22 23  2  0  0  0  0
 22 24  1  0  0  0  0
 24 25  1  0  0  0  0
 24 26  1  0  0  0  0
 26 27  1  0  0  0  0
 26 28  1  0  0  0  0
 26 29  1  0  0  0  0
M  END
$$$$

  -OEChem-03222214043D

 29 29  0     1  0  0  0  0  0999 V2000
   -3.1101   -4.0310    0.4377 H   0  0  0  0  0  0  0  0  0  0  0  0
   -3.0182   -3.0711   -0.0786 C   0  0  0  0  0  0  0  0  0  0  0  0
   -3.8113   -2.4062    0.2717 H   0  0  0  0  0  0  0  0  0  0  0  0
   -3.1378   -3.2378   -1.1519 H   0  0  0  0  0  0  0  0  0  0  0  0
   -1.6603   -2.4563    0.2031 C   0  0  0  0  0  0  0  0  0  0  0  0
   -0.8851   -3.0182    0.9544 O   0  0  0  0  0  0  0  0  0  0  0  0
   -1.3180   -1.2507   -0.3786 N   0  0  0  0  0  0  0  0  0  0  0  0
   -1.9846   -0.8602   -1.0380 H   0  0  0  0  0  0  0  0  0  0  0  0
    0.0172   -0.6232   -0.2807 C   0  0  1  0  0  0  0  0  0  0  0  0
    0.7344   -1.3822   -0.6138 H   0  0  0  0  0  0  0  0  0  0  0  0
    0.1292    0.5378   -1.3093 C   0  0  0  0  0  0  0  0  0  0  0  0
    0.9308    0.2769   -2.0088 H   0  0  0  0  0  0  0  0  0  0  0  0
   -0.7932    0.5789   -1.8965 H   0  0  0  0  0  0  0  0  0  0  0  0
    0.3985    1.9451   -0.8164 C   0  0  0  0  0  0  0  0  0  0  0  0
    0.0680    2.5777    0.3633 N   0  0  0  0  0  0  0  0  0  0  0  0
   -0.3159    2.1262    1.1932 H   0  0  0  0  0  0  0  0  0  0  0  0
    0.5485    3.8722    0.3262 C   0  0  0  0  0  0  0  0  0  0  0  0
    0.4566    4.5963    1.1307 H   0  0  0  0  0  0  0  0  0  0  0  0
    1.1363    4.1007   -0.8217 N   0  0  0  0  0  0  0  0  0  0  0  0
    1.0612    2.9093   -1.5335 C   0  0  0  0  0  0  0  0  0  0  0  0
    1.4699    2.7649   -2.5293 H   0  0  0  0  0  0  0  0  0  0  0  0
    0.4448   -0.3144    1.1735 C   0  0  0  0  0  0  0  0  0  0  0  0
    1.6268   -0.3595    1.4854 O   0  0  0  0  0  0  0  0  0  0  0  0
   -0.4564    0.2667    2.0540 N   0  0  0  0  0  0  0  0  0  0  0  0
   -1.4337    0.1064    1.8274 H   0  0  0  0  0  0  0  0  0  0  0  0
   -0.1118    0.5294    3.4470 C   0  0  0  0  0  0  0  0  0  0  0  0
    0.7382    1.2173    3.5108 H   0  0  0  0  0  0  0  0  0  0  0  0
   -0.9603    0.9821    3.9688 H   0  0  0  0  0  0  0  0  0  0  0  0
    0.1530   -0.4031    3.9571 H   0  0  0  0  0  0  0  0  0  0  0  0
  1  2  1  0  0  0  0
  2  3  1  0  0  0  0
  2  4  1  0  0  0  0
  2  5  1  0  0  0  0
  5  6  2  0  0  0  0
  5  7  1  0  0  0  0
  7  8  1  0  0  0  0
  7  9  1  0  0  0  0
  9 10  1  0  0  0  0
  9 11  1  0  0  0  0
  9 22  1  0  0  0  0
 11 12  1  0  0  0  0
 11 13  1  0  0  0  0
 11 14  1  0  0  0  0
 14 15  1  0  0  0  0
 14 20  2  0  0  0  0
 15 16  1  0  0  0  0
 15 17  1  0  0  0  0
 17 18  1  0  0  0  0
 17 19  2  0  0  0  0
 19 20  1  0  0  0  0
 20 21  1  0  0  0  0
 22 23  2  0  0  0  0
 22 24  1  0  0  0  0
 24 25  1  0  0  0  0
 24 26  1  0  0  0  0
 26 27  1  0  0  0  0
 26 28  1  0  0  0  0
 26 29  1  0  0  0  0
M  END
$$$$

  -OEChem-03222214043D

 29 29  0     1  0  0  0  0  0999 V2000
   -3.1454   -3.9970    0.4357 H   0  0  0  0  0  0  0  0  0  0  0  0
   -3.0408   -3.0361   -0.0765 C   0  0  0  0  0  0  0  0  0  0  0  0
   -3.8141   -2.3567    0.2896 H   0  0  0  0  0  0  0  0  0  0  0  0
   -3.1799   -3.1938   -1.1487 H   0  0  0  0  0  0  0  0  0  0  0  0
   -1.6663   -2.4515    0.1884 C   0  0  0  0  0  0  0  0  0  0  0  0
   -0.8865   -3.0399    0.9144 O   0  0  0  0  0  0  0  0  0  0  0  0
   -1.3116   -1.2450   -0.3835 N   0  0  0  0  0  0  0  0  0  0  0  0
   -1.9868   -0.8243   -1.0149 H   0  0  0  0  0  0  0  0  0  0  0  0
    0.0288   -0.6305   -0.2787 C   0  0  1  0  0  0  0  0  0  0  0  0
    0.7407   -1.3923   -0.6170 H   0  0  0  0  0  0  0  0  0  0  0  0
    0.1447    0.5367   -1.3020 C   0  0  0  0  0  0  0  0  0  0  0  0
    0.9506    0.2746   -1.9961 H   0  0  0  0  0  0  0  0  0  0  0  0
   -0.7728    0.5778   -1.8970 H   0  0  0  0  0  0  0  0  0  0  0  0
    0.4216    1.9479   -0.8199 C   0  0  0  0  0  0  0  0  0  0  0  0
    0.3511    2.5312    0.4278 N   0  0  0  0  0  0  0  0  0  0  0  0
    0.1863    2.0396    1.3071 H   0  0  0  0  0  0  0  0  0  0  0  0
    0.7122    3.8598    0.3252 C   0  0  0  0  0  0  0  0  0  0  0  0
    0.7672    4.5586    1.1550 H   0  0  0  0  0  0  0  0  0  0  0  0
    0.9809    4.1558   -0.9223 N   0  0  0  0  0  0  0  0  0  0  0  0
    0.8150    2.9764   -1.6388 C   0  0  0  0  0  0  0  0  0  0  0  0
    0.9736    2.8843   -2.7092 H   0  0  0  0  0  0  0  0  0  0  0  0
    0.4542   -0.3373    1.1788 C   0  0  0  0  0  0  0  0  0  0  0  0
    1.6347   -0.3856    1.4955 O   0  0  0  0  0  0  0  0  0  0  0  0
   -0.4422    0.2453    2.0621 N   0  0  0  0  0  0  0  0  0  0  0  0
   -1.4215    0.1434    1.8113 H   0  0  0  0  0  0  0  0  0  0  0  0
   -0.1123    0.4789    3.4639 C   0  0  0  0  0  0  0  0  0  0  0  0
    0.7531    1.1445    3.5517 H   0  0  0  0  0  0  0  0  0  0  0  0
   -0.9577    0.9447    3.9794 H   0  0  0  0  0  0  0  0  0  0  0  0
    0.1207   -0.4678    3.9633 H   0  0  0  0  0  0  0  0  0  0  0  0
  1  2  1  0  0  0  0
  2  3  1  0  0  0  0
  2  4  1  0  0  0  0
  2  5  1  0  0  0  0
  5  6  2  0  0  0  0
  5  7  1  0  0  0  0
  7  8  1  0  0  0  0
  7  9  1  0  0  0  0
  9 10  1  0  0  0  0
  9 11  1  0  0  0  0
  9 22  1  0  0  0  0
 11 12  1  0  0  0  0
 11 13  1  0  0  0  0
 11 14  1  0  0  0  0
 14 15  1  0  0  0  0
 14 20  2  0  0  0  0
 15 16  1  0  0  0  0
 15 17  1  0  0  0  0
 17 18  1  0  0  0  0
 17 19  2  0  0  0  0
 19 20  1  0  0  0  0
 20 21  1  0  0  0  0
 22 23  2  0  0  0  0
 22 24  1  0  0  0  0
 24 25  1  0  0  0  0
 24 26  1  0  0  0  0
 26 27  1  0  0  0  0
 26 28  1  0  0  0  0
 26 29  1  0  0  0  0
M  END
$$$$

  -OEChem-03222214043D

 29 29  0     1  0  0  0  0  0999 V2000
   -3.1824   -3.9551    0.4628 H   0  0  0  0  0  0  0  0  0  0  0  0
   -3.0661   -2.9975   -0.0528 C   0  0  0  0  0  0  0  0  0  0  0  0
   -3.8141   -2.2990    0.3297 H   0  0  0  0  0  0  0  0  0  0  0  0
   -3.2324   -3.1525   -1.1216 H   0  0  0  0  0  0  0  0  0  0  0  0
   -1.6720   -2.4466    0.1807 C   0  0  0  0  0  0  0  0  0  0  0  0
   -0.8878   -3.0574    0.8834 O   0  0  0  0  0  0  0  0  0  0  0  0
   -1.3020   -1.2466   -0.3952 N   0  0  0  0  0  0  0  0  0  0  0  0
   -1.9858   -0.7978   -0.9973 H   0  0  0  0  0  0  0  0  0  0  0  0
    0.0458   -0.6486   -0.2926 C   0  0  1  0  0  0  0  0  0  0  0  0
    0.7522   -1.4151   -0.6314 H   0  0  0  0  0  0  0  0  0  0  0  0
    0.1644    0.5234   -1.3112 C   0  0  0  0  0  0  0  0  0  0  0  0
    0.9772    0.2586   -1.9957 H   0  0  0  0  0  0  0  0  0  0  0  0
   -0.7455    0.5674   -1.9178 H   0  0  0  0  0  0  0  0  0  0  0  0
    0.4579    1.9322   -0.8293 C   0  0  0  0  0  0  0  0  0  0  0  0
    0.6650    2.4573    0.4292 N   0  0  0  0  0  0  0  0  0  0  0  0
    0.7571    1.9169    1.2916 H   0  0  0  0  0  0  0  0  0  0  0  0
    0.8705    3.8180    0.3242 C   0  0  0  0  0  0  0  0  0  0  0  0
    1.0796    4.4852    1.1555 H   0  0  0  0  0  0  0  0  0  0  0  0
    0.7765    4.1878   -0.9292 N   0  0  0  0  0  0  0  0  0  0  0  0
    0.5266    3.0276   -1.6528 C   0  0  0  0  0  0  0  0  0  0  0  0
    0.3963    2.9960   -2.7304 H   0  0  0  0  0  0  0  0  0  0  0  0
    0.4636   -0.3602    1.1678 C   0  0  0  0  0  0  0  0  0  0  0  0
    1.6444   -0.3868    1.4870 O   0  0  0  0  0  0  0  0  0  0  0  0
   -0.4308    0.2334    2.0443 N   0  0  0  0  0  0  0  0  0  0  0  0
   -1.4085    0.1832    1.7738 H   0  0  0  0  0  0  0  0  0  0  0  0
   -0.1119    0.4841    3.4454 C   0  0  0  0  0  0  0  0  0  0  0  0
    0.7407    1.1658    3.5319 H   0  0  0  0  0  0  0  0  0  0  0  0
   -0.9683    0.9387    3.9524 H   0  0  0  0  0  0  0  0  0  0  0  0
    0.1351   -0.4540    3.9540 H   0  0  0  0  0  0  0  0  0  0  0  0
  1  2  1  0  0  0  0
  2  3  1  0  0  0  0
  2  4  1  0  0  0  0
  2  5  1  0  0  0  0
  5  6  2  0  0  0  0
  5  7  1  0  0  0  0
  7  8  1  0  0  0  0
  7  9  1  0  0  0  0
  9 10  1  0  0  0  0
  9 11  1  0  0  0  0
  9 22  1  0  0  0  0
 11 12  1  0  0  0  0
 11 13  1  0  0  0  0
 11 14  1  0  0  0  0
 14 15  1  0  0  0  0
 14 20  2  0  0  0  0
 15 16  1  0  0  0  0
 15 17  1  0  0  0  0
 17 18  1  0  0  0  0
 17 19  2  0  0  0  0
 19 20  1  0  0  0  0
 20 21  1  0  0  0  0
 22 23  2  0  0  0  0
 22 24  1  0  0  0  0
 24 25  1  0  0  0  0
 24 26  1  0  0  0  0
 26 27  1  0  0  0  0
 26 28  1  0  0  0  0
 26 29  1  0  0  0  0
M  END
$$$$

  -OEChem-03222214043D

 29 29  0     1  0  0  0  0  0999 V2000
   -3.2033   -3.9242    0.5137 H   0  0  0  0  0  0  0  0  0  0  0  0
   -3.0789   -2.9739   -0.0136 C   0  0  0  0  0  0  0  0  0  0  0  0
   -3.7981   -2.2545    0.3850 H   0  0  0  0  0  0  0  0  0  0  0  0
   -3.2817   -3.1329   -1.0754 H   0  0  0  0  0  0  0  0  0  0  0  0
   -1.6657   -2.4548    0.1731 C   0  0  0  0  0  0  0  0  0  0  0  0
   -0.8717   -3.0833    0.8488 O   0  0  0  0  0  0  0  0  0  0  0  0
   -1.2891   -1.2630   -0.4155 N   0  0  0  0  0  0  0  0  0  0  0  0
   -1.9880   -0.7886   -0.9796 H   0  0  0  0  0  0  0  0  0  0  0  0
    0.0619   -0.6709   -0.3205 C   0  0  1  0  0  0  0  0  0  0  0  0
    0.7681   -1.4382   -0.6579 H   0  0  0  0  0  0  0  0  0  0  0  0
    0.1754    0.5046   -1.3365 C   0  0  0  0  0  0  0  0  0  0  0  0
    0.9911    0.2420   -2.0187 H   0  0  0  0  0  0  0  0  0  0  0  0
   -0.7324    0.5502   -1.9461 H   0  0  0  0  0  0  0  0  0  0  0  0
    0.4785    1.9080   -0.8449 C   0  0  0  0  0  0  0  0  0  0  0  0
    0.9579    2.3693    0.3634 N   0  0  0  0  0  0  0  0  0  0  0  0
    1.2937    1.7827    1.1322 H   0  0  0  0  0  0  0  0  0  0  0  0
    1.0152    3.7477    0.3313 C   0  0  0  0  0  0  0  0  0  0  0  0
    1.3719    4.3785    1.1405 H   0  0  0  0  0  0  0  0  0  0  0  0
    0.5744    4.1849   -0.8232 N   0  0  0  0  0  0  0  0  0  0  0  0
    0.2407    3.0543   -1.5599 C   0  0  0  0  0  0  0  0  0  0  0  0
   -0.1645    3.0783   -2.5670 H   0  0  0  0  0  0  0  0  0  0  0  0
    0.4697   -0.3739    1.1416 C   0  0  0  0  0  0  0  0  0  0  0  0
    1.6521   -0.3709    1.4610 O   0  0  0  0  0  0  0  0  0  0  0  0
   -0.4301    0.2296    2.0046 N   0  0  0  0  0  0  0  0  0  0  0  0
   -1.4041    0.2134    1.7192 H   0  0  0  0  0  0  0  0  0  0  0  0
   -0.1119    0.5616    3.3882 C   0  0  0  0  0  0  0  0  0  0  0  0
    0.6906    1.3050    3.4315 H   0  0  0  0  0  0  0  0  0  0  0  0
   -0.9921    0.9754    3.8896 H   0  0  0  0  0  0  0  0  0  0  0  0
    0.2074   -0.3340    3.9318 H   0  0  0  0  0  0  0  0  0  0  0  0
  1  2  1  0  0  0  0
  2  3  1  0  0  0  0
  2  4  1  0  0  0  0
  2  5  1  0  0  0  0
  5  6  2  0  0  0  0
  5  7  1  0  0  0  0
  7  8  1  0  0  0  0
  7  9  1  0  0  0  0
  9 10  1  0  0  0  0
  9 11  1  0  0  0  0
  9 22  1  0  0  0  0
 11 12  1  0  0  0  0
 11 13  1  0  0  0  0
 11 14  1  0  0  0  0
 14 15  1  0  0  0  0
 14 20  2  0  0  0  0
 15 16  1  0  0  0  0
 15 17  1  0  0  0  0
 17 18  1  0  0  0  0
 17 19  2  0  0  0  0
 19 20  1  0  0  0  0
 20 21  1  0  0  0  0
 22 23  2  0  0  0  0
 22 24  1  0  0  0  0
 24 25  1  0  0  0  0
 24 26  1  0  0  0  0
 26 27  1  0  0  0  0
 26 28  1  0  0  0  0
 26 29  1  0  0  0  0
M  END
$$$$

  -OEChem-03222214043D

 29 29  0     1  0  0  0  0  0999 V2000
   -3.1910   -3.9312    0.5415 H   0  0  0  0  0  0  0  0  0  0  0  0
   -3.0758   -2.9837    0.0075 C   0  0  0  0  0  0  0  0  0  0  0  0
   -3.7929   -2.2645    0.4100 H   0  0  0  0  0  0  0  0  0  0  0  0
   -3.2890   -3.1493   -1.0513 H   0  0  0  0  0  0  0  0  0  0  0  0
   -1.6622   -2.4598    0.1764 C   0  0  0  0  0  0  0  0  0  0  0  0
   -0.8597   -3.0832    0.8468 O   0  0  0  0  0  0  0  0  0  0  0  0
   -1.2914   -1.2746   -0.4289 N   0  0  0  0  0  0  0  0  0  0  0  0
   -1.9949   -0.8047   -0.9906 H   0  0  0  0  0  0  0  0  0  0  0  0
    0.0578   -0.6785   -0.3413 C   0  0  1  0  0  0  0  0  0  0  0  0
    0.7659   -1.4460   -0.6740 H   0  0  0  0  0  0  0  0  0  0  0  0
    0.1617    0.4896   -1.3654 C   0  0  0  0  0  0  0  0  0  0  0  0
    0.9785    0.2316   -2.0475 H   0  0  0  0  0  0  0  0  0  0  0  0
   -0.7470    0.5302   -1.9739 H   0  0  0  0  0  0  0  0  0  0  0  0
    0.4606    1.8874   -0.8603 C   0  0  0  0  0  0  0  0  0  0  0  0
    1.1855    2.3017    0.2374 N   0  0  0  0  0  0  0  0  0  0  0  0
    1.6787    1.6864    0.8919 H   0  0  0  0  0  0  0  0  0  0  0  0
    1.1426    3.6788    0.3125 C   0  0  0  0  0  0  0  0  0  0  0  0
    1.6299    4.2794    1.0753 H   0  0  0  0  0  0  0  0  0  0  0  0
    0.4215    4.1562   -0.6735 N   0  0  0  0  0  0  0  0  0  0  0  0
   -0.0055    3.0551   -1.4076 C   0  0  0  0  0  0  0  0  0  0  0  0
   -0.6341    3.1143   -2.2909 H   0  0  0  0  0  0  0  0  0  0  0  0
    0.4720   -0.3586    1.1147 C   0  0  0  0  0  0  0  0  0  0  0  0
    1.6574   -0.3618    1.4280 O   0  0  0  0  0  0  0  0  0  0  0  0
   -0.4236    0.2566    1.9729 N   0  0  0  0  0  0  0  0  0  0  0  0
   -1.3944    0.2790    1.6784 H   0  0  0  0  0  0  0  0  0  0  0  0
   -0.0884    0.6645    3.3316 C   0  0  0  0  0  0  0  0  0  0  0  0
    0.6792    1.4450    3.3202 H   0  0  0  0  0  0  0  0  0  0  0  0
   -0.9748    1.0596    3.8367 H   0  0  0  0  0  0  0  0  0  0  0  0
    0.2854   -0.1899    3.9061 H   0  0  0  0  0  0  0  0  0  0  0  0
  1  2  1  0  0  0  0
  2  3  1  0  0  0  0
  2  4  1  0  0  0  0
  2  5  1  0  0  0  0
  5  6  2  0  0  0  0
  5  7  1  0  0  0  0
  7  8  1  0  0  0  0
  7  9  1  0  0  0  0
  9 10  1  0  0  0  0
  9 11  1  0  0  0  0
  9 22  1  0  0  0  0
 11 12  1  0  0  0  0
 11 13  1  0  0  0  0
 11 14  1  0  0  0  0
 14 15  1  0  0  0  0
 14 20  2  0  0  0  0
 15 16  1  0  0  0  0
 15 17  1  0  0  0  0
 17 18  1  0  0  0  0
 17 19  2  0  0  0  0
 19 20  1  0  0  0  0
 20 21  1  0  0  0  0
 22 23  2  0  0  0  0
 22 24  1  0  0  0  0
 24 25  1  0  0  0  0
 24 26  1  0  0  0  0
 26 27  1  0  0  0  0
 26 28  1  0  0  0  0
 26 29  1  0  0  0  0
M  END
$$$$

  -OEChem-03222214043D

 29 29  0     1  0  0  0  0  0999 V2000
   -3.1621   -3.9554    0.5714 H   0  0  0  0  0  0  0  0  0  0  0  0
   -3.0602   -3.0126    0.0264 C   0  0  0  0  0  0  0  0  0  0  0  0
   -3.7768   -2.2937    0.4306 H   0  0  0  0  0  0  0  0  0  0  0  0
   -3.2857   -3.1906   -1.0278 H   0  0  0  0  0  0  0  0  0  0  0  0
   -1.6488   -2.4763    0.1722 C   0  0  0  0  0  0  0  0  0  0  0  0
   -0.8324   -3.0881    0.8368 O   0  0  0  0  0  0  0  0  0  0  0  0
   -1.2958   -1.2928   -0.4467 N   0  0  0  0  0  0  0  0  0  0  0  0
   -2.0128   -0.8276   -0.9949 H   0  0  0  0  0  0  0  0  0  0  0  0
    0.0451   -0.6790   -0.3644 C   0  0  1  0  0  0  0  0  0  0  0  0
    0.7605   -1.4415   -0.6933 H   0  0  0  0  0  0  0  0  0  0  0  0
    0.1380    0.4840   -1.3931 C   0  0  0  0  0  0  0  0  0  0  0  0
    0.9553    0.2405   -2.0800 H   0  0  0  0  0  0  0  0  0  0  0  0
   -0.7745    0.5210   -1.9964 H   0  0  0  0  0  0  0  0  0  0  0  0
    0.4209    1.8717   -0.8582 C   0  0  0  0  0  0  0  0  0  0  0  0
    1.3532    2.2619    0.0797 N   0  0  0  0  0  0  0  0  0  0  0  0
    1.9585    1.6315    0.6149 H   0  0  0  0  0  0  0  0  0  0  0  0
    1.2463    3.6239    0.2748 C   0  0  0  0  0  0  0  0  0  0  0  0
    1.8469    4.2044    0.9694 H   0  0  0  0  0  0  0  0  0  0  0  0
    0.3049    4.1133   -0.4972 N   0  0  0  0  0  0  0  0  0  0  0  0
   -0.2116    3.0360   -1.2088 C   0  0  0  0  0  0  0  0  0  0  0  0
   -1.0138    3.1085   -1.9369 H   0  0  0  0  0  0  0  0  0  0  0  0
    0.4698   -0.3319    1.0827 C   0  0  0  0  0  0  0  0  0  0  0  0
    1.6587   -0.3432    1.3867 O   0  0  0  0  0  0  0  0  0  0  0  0
   -0.4231    0.2869    1.9407 N   0  0  0  0  0  0  0  0  0  0  0  0
   -1.3894    0.3436    1.6372 H   0  0  0  0  0  0  0  0  0  0  0  0
   -0.0666    0.7739    3.2669 C   0  0  0  0  0  0  0  0  0  0  0  0
    0.6836    1.5681    3.1947 H   0  0  0  0  0  0  0  0  0  0  0  0
   -0.9499    1.1776    3.7710 H   0  0  0  0  0  0  0  0  0  0  0  0
    0.3380   -0.0408    3.8767 H   0  0  0  0  0  0  0  0  0  0  0  0
  1  2  1  0  0  0  0
  2  3  1  0  0  0  0
  2  4  1  0  0  0  0
  2  5  1  0  0  0  0
  5  6  2  0  0  0  0
  5  7  1  0  0  0  0
  7  8  1  0  0  0  0
  7  9  1  0  0  0  0
  9 10  1  0  0  0  0
  9 11  1  0  0  0  0
  9 22  1  0  0  0  0
 11 12  1  0  0  0  0
 11 13  1  0  0  0  0
 11 14  1  0  0  0  0
 14 15  1  0  0  0  0
 14 20  2  0  0  0  0
 15 16  1  0  0  0  0
 15 17  1  0  0  0  0
 17 18  1  0  0  0  0
 17 19  2  0  0  0  0
 19 20  1  0  0  0  0
 20 21  1  0  0  0  0
 22 23  2  0  0  0  0
 22 24  1  0  0  0  0
 24 25  1  0  0  0  0
 24 26  1  0  0  0  0
 26 27  1  0  0  0  0
 26 28  1  0  0  0  0
 26 29  1  0  0  0  0
M  END
$$$$

  -OEChem-03222214043D

 29 29  0     1  0  0  0  0  0999 V2000
   -3.1333   -3.9867    0.5762 H   0  0  0  0  0  0  0  0  0  0  0  0
   -3.0464   -3.0439    0.0285 C   0  0  0  0  0  0  0  0  0  0  0  0
   -3.7714   -2.3341    0.4344 H   0  0  0  0  0  0  0  0  0  0  0  0
   -3.2741   -3.2277   -1.0242 H   0  0  0  0  0  0  0  0  0  0  0  0
   -1.6414   -2.4887    0.1674 C   0  0  0  0  0  0  0  0  0  0  0  0
   -0.8149   -3.0877    0.8311 O   0  0  0  0  0  0  0  0  0  0  0  0
   -1.3051   -1.3045   -0.4593 N   0  0  0  0  0  0  0  0  0  0  0  0
   -2.0303   -0.8488   -1.0044 H   0  0  0  0  0  0  0  0  0  0  0  0
    0.0265   -0.6717   -0.3774 C   0  0  1  0  0  0  0  0  0  0  0  0
    0.7482   -1.4304   -0.7009 H   0  0  0  0  0  0  0  0  0  0  0  0
    0.1167    0.4814   -1.4134 C   0  0  0  0  0  0  0  0  0  0  0  0
    0.9356    0.2495   -2.1026 H   0  0  0  0  0  0  0  0  0  0  0  0
   -0.7981    0.5169   -2.0131 H   0  0  0  0  0  0  0  0  0  0  0  0
    0.3802    1.8566   -0.8468 C   0  0  0  0  0  0  0  0  0  0  0  0
    1.4680    2.2683   -0.1076 N   0  0  0  0  0  0  0  0  0  0  0  0
    2.1829    1.6535    0.2898 H   0  0  0  0  0  0  0  0  0  0  0  0
    1.3080    3.6045    0.2011 C   0  0  0  0  0  0  0  0  0  0  0  0
    1.9947    4.1922    0.8034 H   0  0  0  0  0  0  0  0  0  0  0  0
    0.1970    4.0592   -0.3296 N   0  0  0  0  0  0  0  0  0  0  0  0
   -0.3843    2.9839   -0.9915 C   0  0  0  0  0  0  0  0  0  0  0  0
   -1.3194    3.0318   -1.5414 H   0  0  0  0  0  0  0  0  0  0  0  0
    0.4659   -0.2989    1.0594 C   0  0  0  0  0  0  0  0  0  0  0  0
    1.6584   -0.3166    1.3497 O   0  0  0  0  0  0  0  0  0  0  0  0
   -0.4198    0.3216    1.9231 N   0  0  0  0  0  0  0  0  0  0  0  0
   -1.3846    0.3996    1.6199 H   0  0  0  0  0  0  0  0  0  0  0  0
   -0.0377    0.8601    3.2216 C   0  0  0  0  0  0  0  0  0  0  0  0
    0.6959    1.6639    3.1016 H   0  0  0  0  0  0  0  0  0  0  0  0
   -0.9141    1.2658    3.7356 H   0  0  0  0  0  0  0  0  0  0  0  0
    0.3974    0.0742    3.8481 H   0  0  0  0  0  0  0  0  0  0  0  0
  1  2  1  0  0  0  0
  2  3  1  0  0  0  0
  2  4  1  0  0  0  0
  2  5  1  0  0  0  0
  5  6  2  0  0  0  0
  5  7  1  0  0  0  0
  7  8  1  0  0  0  0
  7  9  1  0  0  0  0
  9 10  1  0  0  0  0
  9 11  1  0  0  0  0
  9 22  1  0  0  0  0
 11 12  1  0  0  0  0
 11 13  1  0  0  0  0
 11 14  1  0  0  0  0
 14 15  1  0  0  0  0
 14 20  2  0  0  0  0
 15 16  1  0  0  0  0
 15 17  1  0  0  0  0
 17 18  1  0  0  0  0
 17 19  2  0  0  0  0
 19 20  1  0  0  0  0
 20 21  1  0  0  0  0
 22 23  2  0  0  0  0
 22 24  1  0  0  0  0
 24 25  1  0  0  0  0
 24 26  1  0  0  0  0
 26 27  1  0  0  0  0
 26 28  1  0  0  0  0
 26 29  1  0  0  0  0
M  END
$$$$

  -OEChem-03222214043D

 29 29  0     1  0  0  0  0  0999 V2000
   -3.1111   -4.0172    0.5703 H   0  0  0  0  0  0  0  0  0  0  0  0
   -3.0367   -3.0732    0.0230 C   0  0  0  0  0  0  0  0  0  0  0  0
   -3.7721   -2.3739    0.4276 H   0  0  0  0  0  0  0  0  0  0  0  0
   -3.2595   -3.2599   -1.0302 H   0  0  0  0  0  0  0  0  0  0  0  0
   -1.6398   -2.4987    0.1644 C   0  0  0  0  0  0  0  0  0  0  0  0
   -0.8069   -3.0865    0.8301 O   0  0  0  0  0  0  0  0  0  0  0  0
   -1.3170   -1.3126   -0.4658 N   0  0  0  0  0  0  0  0  0  0  0  0
   -2.0455   -0.8686   -1.0160 H   0  0  0  0  0  0  0  0  0  0  0  0
    0.0078   -0.6665   -0.3837 C   0  0  1  0  0  0  0  0  0  0  0  0
    0.7334   -1.4228   -0.7044 H   0  0  0  0  0  0  0  0  0  0  0  0
    0.1000    0.4815   -1.4223 C   0  0  0  0  0  0  0  0  0  0  0  0
    0.9187    0.2592   -2.1145 H   0  0  0  0  0  0  0  0  0  0  0  0
   -0.8167    0.5190   -2.0188 H   0  0  0  0  0  0  0  0  0  0  0  0
    0.3507    1.8448   -0.8277 C   0  0  0  0  0  0  0  0  0  0  0  0
    1.5378    2.3224   -0.3187 N   0  0  0  0  0  0  0  0  0  0  0  0
    2.3661    1.7613   -0.1147 H   0  0  0  0  0  0  0  0  0  0  0  0
    1.3386    3.6234    0.1003 C   0  0  0  0  0  0  0  0  0  0  0  0
    2.0888    4.2453    0.5803 H   0  0  0  0  0  0  0  0  0  0  0  0
    0.1070    3.9978   -0.1569 N   0  0  0  0  0  0  0  0  0  0  0  0
   -0.5148    2.9031   -0.7455 C   0  0  0  0  0  0  0  0  0  0  0  0
   -1.5451    2.8897   -1.0877 H   0  0  0  0  0  0  0  0  0  0  0  0
    0.4583   -0.2785    1.0461 C   0  0  0  0  0  0  0  0  0  0  0  0
    1.6527   -0.3013    1.3265 O   0  0  0  0  0  0  0  0  0  0  0  0
   -0.4224    0.3413    1.9157 N   0  0  0  0  0  0  0  0  0  0  0  0
   -1.3855    0.4352    1.6124 H   0  0  0  0  0  0  0  0  0  0  0  0
   -0.0183    0.9260    3.1872 C   0  0  0  0  0  0  0  0  0  0  0  0
    0.6908    1.7439    3.0226 H   0  0  0  0  0  0  0  0  0  0  0  0
   -0.8899    1.3242    3.7152 H   0  0  0  0  0  0  0  0  0  0  0  0
    0.4548    0.1695    3.8224 H   0  0  0  0  0  0  0  0  0  0  0  0
  1  2  1  0  0  0  0
  2  3  1  0  0  0  0
  2  4  1  0  0  0  0
  2  5  1  0  0  0  0
  5  6  2  0  0  0  0
  5  7  1  0  0  0  0
  7  8  1  0  0  0  0
  7  9  1  0  0  0  0
  9 10  1  0  0  0  0
  9 11  1  0  0  0  0
  9 22  1  0  0  0  0
 11 12  1  0  0  0  0
 11 13  1  0  0  0  0
 11 14  1  0  0  0  0
 14 15  1  0  0  0  0
 14 20  2  0  0  0  0
 15 16  1  0  0  0  0
 15 17  1  0  0  0  0
 17 18  1  0  0  0  0
 17 19  2  0  0  0  0
 19 20  1  0  0  0  0
 20 21  1  0  0  0  0
 22 23  2  0  0  0  0
 22 24  1  0  0  0  0
 24 25  1  0  0  0  0
 24 26  1  0  0  0  0
 26 27  1  0  0  0  0
 26 28  1  0  0  0  0
 26 29  1  0  0  0  0
M  END
$$$$

  -OEChem-03222214043D

 29 29  0     1  0  0  0  0  0999 V2000
   -3.1056   -4.0296    0.5669 H   0  0  0  0  0  0  0  0  0  0  0  0
   -3.0331   -3.0857    0.0185 C   0  0  0  0  0  0  0  0  0  0  0  0
   -3.7712   -2.3883    0.4211 H   0  0  0  0  0  0  0  0  0  0  0  0
   -3.2537   -3.2745   -1.0347 H   0  0  0  0  0  0  0  0  0  0  0  0
   -1.6385   -2.5060    0.1614 C   0  0  0  0  0  0  0  0  0  0  0  0
   -0.8023   -3.0943    0.8222 O   0  0  0  0  0  0  0  0  0  0  0  0
   -1.3206   -1.3173   -0.4662 N   0  0  0  0  0  0  0  0  0  0  0  0
   -2.0514   -0.8747   -1.0145 H   0  0  0  0  0  0  0  0  0  0  0  0
    0.0011   -0.6648   -0.3810 C   0  0  1  0  0  0  0  0  0  0  0  0
    0.7292   -1.4192   -0.7007 H   0  0  0  0  0  0  0  0  0  0  0  0
    0.0941    0.4825   -1.4187 C   0  0  0  0  0  0  0  0  0  0  0  0
    0.9102    0.2632   -2.1149 H   0  0  0  0  0  0  0  0  0  0  0  0
   -0.8250    0.5217   -2.0117 H   0  0  0  0  0  0  0  0  0  0  0  0
    0.3377    1.8424   -0.8152 C   0  0  0  0  0  0  0  0  0  0  0  0
    1.5553    2.4308   -0.5584 N   0  0  0  0  0  0  0  0  0  0  0  0
    2.4633    1.9689   -0.5962 H   0  0  0  0  0  0  0  0  0  0  0  0
    1.3283    3.6937   -0.0457 C   0  0  0  0  0  0  0  0  0  0  0  0
    2.1021    4.3815    0.2836 H   0  0  0  0  0  0  0  0  0  0  0  0
    0.0400    3.9425   -0.0096 N   0  0  0  0  0  0  0  0  0  0  0  0
   -0.5865    2.8025   -0.4978 C   0  0  0  0  0  0  0  0  0  0  0  0
   -1.6604    2.6903   -0.6111 H   0  0  0  0  0  0  0  0  0  0  0  0
    0.4543   -0.2742    1.0477 C   0  0  0  0  0  0  0  0  0  0  0  0
    1.6475   -0.3054    1.3285 O   0  0  0  0  0  0  0  0  0  0  0  0
   -0.4258    0.3425    1.9205 N   0  0  0  0  0  0  0  0  0  0  0  0
   -1.3889    0.4378    1.6184 H   0  0  0  0  0  0  0  0  0  0  0  0
   -0.0158    0.9436    3.1826 C   0  0  0  0  0  0  0  0  0  0  0  0
    0.6876    1.7638    3.0039 H   0  0  0  0  0  0  0  0  0  0  0  0
   -0.8863    1.3431    3.7115 H   0  0  0  0  0  0  0  0  0  0  0  0
    0.4660    0.1977    3.8234 H   0  0  0  0  0  0  0  0  0  0  0  0
  1  2  1  0  0  0  0
  2  3  1  0  0  0  0
  2  4  1  0  0  0  0
  2  5  1  0  0  0  0
  5  6  2  0  0  0  0
  5  7  1  0  0  0  0
  7  8  1  0  0  0  0
  7  9  1  0  0  0  0
  9 10  1  0  0  0  0
  9 11  1  0  0  0  0
  9 22  1  0  0  0  0
 11 12  1  0  0  0  0
 11 13  1  0  0  0  0
 11 14  1  0  0  0  0
 14 15  1  0  0  0  0
 14 20  2  0  0  0  0
 15 16  1  0  0  0  0
 15 17  1  0  0  0  0
 17 18  1  0  0  0  0
 17 19  2  0  0  0  0
 19 20  1  0  0  0  0
 20 21  1  0  0  0  0
 22 23  2  0  0  0  0
 22 24  1  0  0  0  0
 24 25  1  0  0  0  0
 24 26  1  0  0  0  0
 26 27  1  0  0  0  0
 26 28  1  0  0  0  0
 26 29  1  0  0  0  0
M  END
$$$$

  -OEChem-03222214043D

 29 29  0     1  0  0  0  0  0999 V2000
   -3.1047   -4.0420    0.5367 H   0  0  0  0  0  0  0  0  0  0  0  0
   -3.0328   -3.0913    0.0006 C   0  0  0  0  0  0  0  0  0  0  0  0
   -3.7820   -2.4047    0.4017 H   0  0  0  0  0  0  0  0  0  0  0  0
   -3.2382   -3.2691   -1.0577 H   0  0  0  0  0  0  0  0  0  0  0  0
   -1.6446   -2.5026    0.1683 C   0  0  0  0  0  0  0  0  0  0  0  0
   -0.8165   -3.0859    0.8433 O   0  0  0  0  0  0  0  0  0  0  0  0
   -1.3245   -1.3099   -0.4507 N   0  0  0  0  0  0  0  0  0  0  0  0
   -2.0471   -0.8765   -1.0169 H   0  0  0  0  0  0  0  0  0  0  0  0
   -0.0034   -0.6568   -0.3612 C   0  0  1  0  0  0  0  0  0  0  0  0
    0.7233   -1.4129   -0.6801 H   0  0  0  0  0  0  0  0  0  0  0  0
    0.0948    0.4857   -1.4038 C   0  0  0  0  0  0  0  0  0  0  0  0
    0.9147    0.2592   -2.0931 H   0  0  0  0  0  0  0  0  0  0  0  0
   -0.8200    0.5204   -2.0036 H   0  0  0  0  0  0  0  0  0  0  0  0
    0.3344    1.8546   -0.8183 C   0  0  0  0  0  0  0  0  0  0  0  0
    1.5100    2.5704   -0.8199 N   0  0  0  0  0  0  0  0  0  0  0  0
    2.4260    2.2205   -1.0947 H   0  0  0  0  0  0  0  0  0  0  0  0
    1.2710    3.8021   -0.2400 C   0  0  0  0  0  0  0  0  0  0  0  0
    2.0213    4.5700   -0.0747 H   0  0  0  0  0  0  0  0  0  0  0  0
    0.0041    3.9125    0.0830 N   0  0  0  0  0  0  0  0  0  0  0  0
   -0.5910    2.7114   -0.2818 C   0  0  0  0  0  0  0  0  0  0  0  0
   -1.6464    2.4869   -0.1632 H   0  0  0  0  0  0  0  0  0  0  0  0
    0.4538   -0.2730    1.0675 C   0  0  0  0  0  0  0  0  0  0  0  0
    1.6465   -0.3117    1.3468 O   0  0  0  0  0  0  0  0  0  0  0  0
   -0.4233    0.3385    1.9467 N   0  0  0  0  0  0  0  0  0  0  0  0
   -1.3968    0.3954    1.6696 H   0  0  0  0  0  0  0  0  0  0  0  0
   -0.0124    0.9117    3.2213 C   0  0  0  0  0  0  0  0  0  0  0  0
    0.7045    1.7238    3.0606 H   0  0  0  0  0  0  0  0  0  0  0  0
   -0.8795    1.3163    3.7515 H   0  0  0  0  0  0  0  0  0  0  0  0
    0.4538    0.1473    3.8519 H   0  0  0  0  0  0  0  0  0  0  0  0
  1  2  1  0  0  0  0
  2  3  1  0  0  0  0
  2  4  1  0  0  0  0
  2  5  1  0  0  0  0
  5  6  2  0  0  0  0
  5  7  1  0  0  0  0
  7  8  1  0  0  0  0
  7  9  1  0  0  0  0
  9 10  1  0  0  0  0
  9 11  1  0  0  0  0
  9 22  1  0  0  0  0
 11 12  1  0  0  0  0
 11 13  1  0  0  0  0
 11 14  1  0  0  0  0
 14 15  1  0  0  0  0
 14 20  2  0  0  0  0
 15 16  1  0  0  0  0
 15 17  1  0  0  0  0
 17 18  1  0  0  0  0
 17 19  2  0  0  0  0
 19 20  1  0  0  0  0
 20 21  1  0  0  0  0
 22 23  2  0  0  0  0
 22 24  1  0  0  0  0
 24 25  1  0  0  0  0
 24 26  1  0  0  0  0
 26 27  1  0  0  0  0
 26 28  1  0  0  0  0
 26 29  1  0  0  0  0
M  END
$$$$

  -OEChem-03222214043D

 29 29  0     1  0  0  0  0  0999 V2000
   -3.0927   -4.0466    0.5237 H   0  0  0  0  0  0  0  0  0  0  0  0
   -3.0241   -3.0914   -0.0049 C   0  0  0  0  0  0  0  0  0  0  0  0
   -3.7724   -2.4089    0.4046 H   0  0  0  0  0  0  0  0  0  0  0  0
   -3.2329   -3.2606   -1.0639 H   0  0  0  0  0  0  0  0  0  0  0  0
   -1.6363   -2.5023    0.1632 C   0  0  0  0  0  0  0  0  0  0  0  0
   -0.8041   -3.0919    0.8277 O   0  0  0  0  0  0  0  0  0  0  0  0
   -1.3235   -1.2987   -0.4382 N   0  0  0  0  0  0  0  0  0  0  0  0
   -2.0505   -0.8582   -0.9933 H   0  0  0  0  0  0  0  0  0  0  0  0
   -0.0064   -0.6388   -0.3393 C   0  0  1  0  0  0  0  0  0  0  0  0
    0.7209   -1.3945   -0.6577 H   0  0  0  0  0  0  0  0  0  0  0  0
    0.1034    0.4999   -1.3857 C   0  0  0  0  0  0  0  0  0  0  0  0
    0.9368    0.2638   -2.0553 H   0  0  0  0  0  0  0  0  0  0  0  0
   -0.7987    0.5237   -2.0047 H   0  0  0  0  0  0  0  0  0  0  0  0
    0.3333    1.8851   -0.8315 C   0  0  0  0  0  0  0  0  0  0  0  0
    1.4041    2.7136   -1.0831 N   0  0  0  0  0  0  0  0  0  0  0  0
    2.2552    2.4625   -1.5822 H   0  0  0  0  0  0  0  0  0  0  0  0
    1.1804    3.9234   -0.4528 C   0  0  0  0  0  0  0  0  0  0  0  0
    1.8700    4.7626   -0.4505 H   0  0  0  0  0  0  0  0  0  0  0  0
    0.0105    3.9151    0.1397 N   0  0  0  0  0  0  0  0  0  0  0  0
   -0.5298    2.6574   -0.0971 C   0  0  0  0  0  0  0  0  0  0  0  0
   -1.5106    2.3373    0.2405 H   0  0  0  0  0  0  0  0  0  0  0  0
    0.4481   -0.2733    1.0945 C   0  0  0  0  0  0  0  0  0  0  0  0
    1.6390   -0.3194    1.3768 O   0  0  0  0  0  0  0  0  0  0  0  0
   -0.4308    0.3192    1.9848 N   0  0  0  0  0  0  0  0  0  0  0  0
   -1.4113    0.3363    1.7283 H   0  0  0  0  0  0  0  0  0  0  0  0
   -0.0287    0.8309    3.2885 C   0  0  0  0  0  0  0  0  0  0  0  0
    0.7162    1.6255    3.1735 H   0  0  0  0  0  0  0  0  0  0  0  0
   -0.8939    1.2433    3.8163 H   0  0  0  0  0  0  0  0  0  0  0  0
    0.4005    0.0290    3.8985 H   0  0  0  0  0  0  0  0  0  0  0  0
  1  2  1  0  0  0  0
  2  3  1  0  0  0  0
  2  4  1  0  0  0  0
  2  5  1  0  0  0  0
  5  6  2  0  0  0  0
  5  7  1  0  0  0  0
  7  8  1  0  0  0  0
  7  9  1  0  0  0  0
  9 10  1  0  0  0  0
  9 11  1  0  0  0  0
  9 22  1  0  0  0  0
 11 12  1  0  0  0  0
 11 13  1  0  0  0  0
 11 14  1  0  0  0  0
 14 15  1  0  0  0  0
 14 20  2  0  0  0  0
 15 16  1  0  0  0  0
 15 17  1  0  0  0  0
 17 18  1  0  0  0  0
 17 19  2  0  0  0  0
 19 20  1  0  0  0  0
 20 21  1  0  0  0  0
 22 23  2  0  0  0  0
 22 24  1  0  0  0  0
 24 25  1  0  0  0  0
 24 26  1  0  0  0  0
 26 27  1  0  0  0  0
 26 28  1  0  0  0  0
 26 29  1  0  0  0  0
M  END
$$$$

  -OEChem-03222214043D

 29 29  0     1  0  0  0  0  0999 V2000
   -3.0855   -4.0609    0.4658 H   0  0  0  0  0  0  0  0  0  0  0  0
   -3.0178   -3.0927   -0.0384 C   0  0  0  0  0  0  0  0  0  0  0  0
   -3.7691   -2.4226    0.3860 H   0  0  0  0  0  0  0  0  0  0  0  0
   -3.2241   -3.2358   -1.1017 H   0  0  0  0  0  0  0  0  0  0  0  0
   -1.6322   -2.5037    0.1468 C   0  0  0  0  0  0  0  0  0  0  0  0
   -0.7983   -3.1065    0.7971 O   0  0  0  0  0  0  0  0  0  0  0  0
   -1.3260   -1.2812   -0.4183 N   0  0  0  0  0  0  0  0  0  0  0  0
   -2.0583   -0.8250   -0.9537 H   0  0  0  0  0  0  0  0  0  0  0  0
   -0.0153   -0.6128   -0.2989 C   0  0  1  0  0  0  0  0  0  0  0  0
    0.7110   -1.3693   -0.6185 H   0  0  0  0  0  0  0  0  0  0  0  0
    0.1136    0.5190   -1.3515 C   0  0  0  0  0  0  0  0  0  0  0  0
    0.9715    0.2725   -1.9857 H   0  0  0  0  0  0  0  0  0  0  0  0
   -0.7646    0.5220   -2.0041 H   0  0  0  0  0  0  0  0  0  0  0  0
    0.3262    1.9254   -0.8404 C   0  0  0  0  0  0  0  0  0  0  0  0
    1.2381    2.8373   -1.3257 N   0  0  0  0  0  0  0  0  0  0  0  0
    1.9726    2.6501   -2.0049 H   0  0  0  0  0  0  0  0  0  0  0  0
    1.0481    4.0422   -0.6759 C   0  0  0  0  0  0  0  0  0  0  0  0
    1.6425    4.9377   -0.8337 H   0  0  0  0  0  0  0  0  0  0  0  0
    0.0397    3.9515    0.1562 N   0  0  0  0  0  0  0  0  0  0  0  0
   -0.4238    2.6457    0.0553 C   0  0  0  0  0  0  0  0  0  0  0  0
   -1.2891    2.2649    0.5879 H   0  0  0  0  0  0  0  0  0  0  0  0
    0.4435   -0.2796    1.1407 C   0  0  0  0  0  0  0  0  0  0  0  0
    1.6368   -0.3191    1.4123 O   0  0  0  0  0  0  0  0  0  0  0  0
   -0.4317    0.2818    2.0542 N   0  0  0  0  0  0  0  0  0  0  0  0
   -1.4186    0.2607    1.8223 H   0  0  0  0  0  0  0  0  0  0  0  0
   -0.0249    0.7273    3.3810 C   0  0  0  0  0  0  0  0  0  0  0  0
    0.7258    1.5210    3.3035 H   0  0  0  0  0  0  0  0  0  0  0  0
   -0.8861    1.1198    3.9299 H   0  0  0  0  0  0  0  0  0  0  0  0
    0.3996   -0.1056    3.9513 H   0  0  0  0  0  0  0  0  0  0  0  0
  1  2  1  0  0  0  0
  2  3  1  0  0  0  0
  2  4  1  0  0  0  0
  2  5  1  0  0  0  0
  5  6  2  0  0  0  0
  5  7  1  0  0  0  0
  7  8  1  0  0  0  0
  7  9  1  0  0  0  0
  9 10  1  0  0  0  0
  9 11  1  0  0  0  0
  9 22  1  0  0  0  0
 11 12  1  0  0  0  0
 11 13  1  0  0  0  0
 11 14  1  0  0  0  0
 14 15  1  0  0  0  0
 14 20  2  0  0  0  0
 15 16  1  0  0  0  0
 15 17  1  0  0  0  0
 17 18  1  0  0  0  0
 17 19  2  0  0  0  0
 19 20  1  0  0  0  0
 20 21  1  0  0  0  0
 22 23  2  0  0  0  0
 22 24  1  0  0  0  0
 24 25  1  0  0  0  0
 24 26  1  0  0  0  0
 26 27  1  0  0  0  0
 26 28  1  0  0  0  0
 26 29  1  0  0  0  0
M  END
$$$$

  -OEChem-03222214043D

 29 29  0     1  0  0  0  0  0999 V2000
   -3.0672   -4.0826    0.3916 H   0  0  0  0  0  0  0  0  0  0  0  0
   -3.0092   -3.0989   -0.0831 C   0  0  0  0  0  0  0  0  0  0  0  0
   -3.7711   -2.4513    0.3571 H   0  0  0  0  0  0  0  0  0  0  0  0
   -3.2080   -3.2128   -1.1514 H   0  0  0  0  0  0  0  0  0  0  0  0
   -1.6315   -2.4997    0.1274 C   0  0  0  0  0  0  0  0  0  0  0  0
   -0.7927   -3.1146    0.7598 O   0  0  0  0  0  0  0  0  0  0  0  0
   -1.3379   -1.2543   -0.3931 N   0  0  0  0  0  0  0  0  0  0  0  0
   -2.0767   -0.7842   -0.9074 H   0  0  0  0  0  0  0  0  0  0  0  0
   -0.0325   -0.5789   -0.2561 C   0  0  1  0  0  0  0  0  0  0  0  0
    0.6915   -1.3339   -0.5850 H   0  0  0  0  0  0  0  0  0  0  0  0
    0.1156    0.5548   -1.3066 C   0  0  0  0  0  0  0  0  0  0  0  0
    0.9918    0.2996   -1.9120 H   0  0  0  0  0  0  0  0  0  0  0  0
   -0.7436    0.5415   -1.9838 H   0  0  0  0  0  0  0  0  0  0  0  0
    0.3195    1.9813   -0.8417 C   0  0  0  0  0  0  0  0  0  0  0  0
    1.0242    2.9360   -1.5446 N   0  0  0  0  0  0  0  0  0  0  0  0
    1.5769    2.7772   -2.3844 H   0  0  0  0  0  0  0  0  0  0  0  0
    0.9161    4.1469   -0.8887 C   0  0  0  0  0  0  0  0  0  0  0  0
    1.3925    5.0721   -1.2006 H   0  0  0  0  0  0  0  0  0  0  0  0
    0.1463    4.0200    0.1627 N   0  0  0  0  0  0  0  0  0  0  0  0
   -0.2391    2.6853    0.1976 C   0  0  0  0  0  0  0  0  0  0  0  0
   -0.9393    2.2867    0.9212 H   0  0  0  0  0  0  0  0  0  0  0  0
    0.4324   -0.2951    1.1913 C   0  0  0  0  0  0  0  0  0  0  0  0
    1.6280   -0.3275    1.4521 O   0  0  0  0  0  0  0  0  0  0  0  0
   -0.4399    0.2231    2.1323 N   0  0  0  0  0  0  0  0  0  0  0  0
   -1.4294    0.1837    1.9131 H   0  0  0  0  0  0  0  0  0  0  0  0
   -0.0294    0.5937    3.4810 C   0  0  0  0  0  0  0  0  0  0  0  0
    0.7258    1.3863    3.4460 H   0  0  0  0  0  0  0  0  0  0  0  0
   -0.8882    0.9604    4.0512 H   0  0  0  0  0  0  0  0  0  0  0  0
    0.3911   -0.2716    4.0041 H   0  0  0  0  0  0  0  0  0  0  0  0
  1  2  1  0  0  0  0
  2  3  1  0  0  0  0
  2  4  1  0  0  0  0
  2  5  1  0  0  0  0
  5  6  2  0  0  0  0
  5  7  1  0  0  0  0
  7  8  1  0  0  0  0
  7  9  1  0  0  0  0
  9 10  1  0  0  0  0
  9 11  1  0  0  0  0
  9 22  1  0  0  0  0
 11 12  1  0  0  0  0
 11 13  1  0  0  0  0
 11 14  1  0  0  0  0
 14 15  1  0  0  0  0
 14 20  2  0  0  0  0
 15 16  1  0  0  0  0
 15 17  1  0  0  0  0
 17 18  1  0  0  0  0
 17 19  2  0  0  0  0
 19 20  1  0  0  0  0
 20 21  1  0  0  0  0
 22 23  2  0  0  0  0
 22 24  1  0  0  0  0
 24 25  1  0  0  0  0
 24 26  1  0  0  0  0
 26 27  1  0  0  0  0
 26 28  1  0  0  0  0
 26 29  1  0  0  0  0
M  END
$$$$

  -OEChem-03222214043D

 29 29  0     1  0  0  0  0  0999 V2000
   -3.0551   -4.0795    0.3677 H   0  0  0  0  0  0  0  0  0  0  0  0
   -3.0016   -3.0870   -0.0888 C   0  0  0  0  0  0  0  0  0  0  0  0
   -3.7553   -2.4464    0.3750 H   0  0  0  0  0  0  0  0  0  0  0  0
   -3.2163   -3.1794   -1.1560 H   0  0  0  0  0  0  0  0  0  0  0  0
   -1.6195   -2.4952    0.1130 C   0  0  0  0  0  0  0  0  0  0  0  0
   -0.7679   -3.1326    0.7046 O   0  0  0  0  0  0  0  0  0  0  0  0
   -1.3341   -1.2347   -0.3751 N   0  0  0  0  0  0  0  0  0  0  0  0
   -2.0870   -0.7419   -0.8459 H   0  0  0  0  0  0  0  0  0  0  0  0
   -0.0296   -0.5574   -0.2300 C   0  0  1  0  0  0  0  0  0  0  0  0
    0.6983   -1.2999   -0.5785 H   0  0  0  0  0  0  0  0  0  0  0  0
    0.1028    0.5986   -1.2611 C   0  0  0  0  0  0  0  0  0  0  0  0
    0.9747    0.3482   -1.8748 H   0  0  0  0  0  0  0  0  0  0  0  0
   -0.7624    0.5762   -1.9304 H   0  0  0  0  0  0  0  0  0  0  0  0
    0.3052    2.0413   -0.8352 C   0  0  0  0  0  0  0  0  0  0  0  0
    0.7235    3.0105   -1.7247 N   0  0  0  0  0  0  0  0  0  0  0  0
    0.9852    2.8591   -2.6964 H   0  0  0  0  0  0  0  0  0  0  0  0
    0.7773    4.2294   -1.0787 C   0  0  0  0  0  0  0  0  0  0  0  0
    1.0832    5.1672   -1.5337 H   0  0  0  0  0  0  0  0  0  0  0  0
    0.3974    4.0904    0.1650 N   0  0  0  0  0  0  0  0  0  0  0  0
    0.1077    2.7408    0.3335 C   0  0  0  0  0  0  0  0  0  0  0  0
   -0.2597    2.3405    1.2668 H   0  0  0  0  0  0  0  0  0  0  0  0
    0.4201   -0.3242    1.2297 C   0  0  0  0  0  0  0  0  0  0  0  0
    1.6122   -0.3584    1.5040 O   0  0  0  0  0  0  0  0  0  0  0  0
   -0.4687    0.1556    2.1764 N   0  0  0  0  0  0  0  0  0  0  0  0
   -1.4543    0.1213    1.9391 H   0  0  0  0  0  0  0  0  0  0  0  0
   -0.0843    0.4495    3.5518 C   0  0  0  0  0  0  0  0  0  0  0  0
    0.7140    1.1991    3.5748 H   0  0  0  0  0  0  0  0  0  0  0  0
   -0.9402    0.8429    4.1085 H   0  0  0  0  0  0  0  0  0  0  0  0
    0.2699   -0.4582    4.0520 H   0  0  0  0  0  0  0  0  0  0  0  0
  1  2  1  0  0  0  0
  2  3  1  0  0  0  0
  2  4  1  0  0  0  0
  2  5  1  0  0  0  0
  5  6  2  0  0  0  0
  5  7  1  0  0  0  0
  7  8  1  0  0  0  0
  7  9  1  0  0  0  0
  9 10  1  0  0  0  0
  9 11  1  0  0  0  0
  9 22  1  0  0  0  0
 11 12  1  0  0  0  0
 11 13  1  0  0  0  0
 11 14  1  0  0  0  0
 14 15  1  0  0  0  0
 14 20  2  0  0  0  0
 15 16  1  0  0  0  0
 15 17  1  0  0  0  0
 17 18  1  0  0  0  0
 17 19  2  0  0  0  0
 19 20  1  0  0  0  0
 20 21  1  0  0  0  0
 22 23  2  0  0  0  0
 22 24  1  0  0  0  0
 24 25  1  0  0  0  0
 24 26  1  0  0  0  0
 26 27  1  0  0  0  0
 26 28  1  0  0  0  0
 26 29  1  0  0  0  0
M  END
$$$$

  -OEChem-03222214043D

 29 29  0     1  0  0  0  0  0999 V2000
   -3.1541   -3.9540    0.4492 H   0  0  0  0  0  0  0  0  0  0  0  0
   -3.0396   -2.9878   -0.0507 C   0  0  0  0  0  0  0  0  0  0  0  0
   -3.7601   -2.2851    0.3742 H   0  0  0  0  0  0  0  0  0  0  0  0
   -3.2484   -3.1171   -1.1152 H   0  0  0  0  0  0  0  0  0  0  0  0
   -1.6280   -2.4666    0.1428 C   0  0  0  0  0  0  0  0  0  0  0  0
   -0.8257   -3.1192    0.7839 O   0  0  0  0  0  0  0  0  0  0  0  0
   -1.2597   -1.2588   -0.4191 N   0  0  0  0  0  0  0  0  0  0  0  0
   -1.9661   -0.7723   -0.9617 H   0  0  0  0  0  0  0  0  0  0  0  0
    0.0778   -0.6427   -0.2770 C   0  0  1  0  0  0  0  0  0  0  0  0
    0.8224   -1.3729   -0.6143 H   0  0  0  0  0  0  0  0  0  0  0  0
    0.1504    0.5624   -1.2622 C   0  0  0  0  0  0  0  0  0  0  0  0
    0.7281    0.2220   -2.1277 H   0  0  0  0  0  0  0  0  0  0  0  0
   -0.8614    0.7681   -1.6241 H   0  0  0  0  0  0  0  0  0  0  0  0
    0.7166    1.9162   -0.8587 C   0  0  0  0  0  0  0  0  0  0  0  0
    0.7655    2.9640   -1.7572 N   0  0  0  0  0  0  0  0  0  0  0  0
    0.4584    2.9368   -2.7267 H   0  0  0  0  0  0  0  0  0  0  0  0
    1.3314    4.0649   -1.1467 C   0  0  0  0  0  0  0  0  0  0  0  0
    1.4927    5.0302   -1.6183 H   0  0  0  0  0  0  0  0  0  0  0  0
    1.6445    3.7751    0.0886 N   0  0  0  0  0  0  0  0  0  0  0  0
    1.2883    2.4438    0.2810 C   0  0  0  0  0  0  0  0  0  0  0  0
    1.4580    1.9289    1.2180 H   0  0  0  0  0  0  0  0  0  0  0  0
    0.4333   -0.3615    1.1987 C   0  0  0  0  0  0  0  0  0  0  0  0
    1.5763   -0.5431    1.5969 O   0  0  0  0  0  0  0  0  0  0  0  0
   -0.4966    0.2144    2.0479 N   0  0  0  0  0  0  0  0  0  0  0  0
   -1.4434    0.3114    1.6985 H   0  0  0  0  0  0  0  0  0  0  0  0
   -0.2261    0.5024    3.4511 C   0  0  0  0  0  0  0  0  0  0  0  0
    0.5838    1.2336    3.5431 H   0  0  0  0  0  0  0  0  0  0  0  0
   -1.1187    0.9139    3.9318 H   0  0  0  0  0  0  0  0  0  0  0  0
    0.0623   -0.4116    3.9813 H   0  0  0  0  0  0  0  0  0  0  0  0
  1  2  1  0  0  0  0
  2  3  1  0  0  0  0
  2  4  1  0  0  0  0
  2  5  1  0  0  0  0
  5  6  2  0  0  0  0
  5  7  1  0  0  0  0
  7  8  1  0  0  0  0
  7  9  1  0  0  0  0
  9 10  1  0  0  0  0
  9 11  1  0  0  0  0
  9 22  1  0  0  0  0
 11 12  1  0  0  0  0
 11 13  1  0  0  0  0
 11 14  1  0  0  0  0
 14 15  1  0  0  0  0
 14 20  2  0  0  0  0
 15 16  1  0  0  0  0
 15 17  1  0  0  0  0
 17 18  1  0  0  0  0
 17 19  2  0  0  0  0
 19 20  1  0  0  0  0
 20 21  1  0  0  0  0
 22 23  2  0  0  0  0
 22 24  1  0  0  0  0
 24 25  1  0  0  0  0
 24 26  1  0  0  0  0
 26 27  1  0  0  0  0
 26 28  1  0  0  0  0
 26 29  1  0  0  0  0
M  END
$$$$

  -OEChem-03222214043D

 29 29  0     1  0  0  0  0  0999 V2000
   -3.1716   -3.9399    0.4837 H   0  0  0  0  0  0  0  0  0  0  0  0
   -3.0499   -2.9797   -0.0259 C   0  0  0  0  0  0  0  0  0  0  0  0
   -3.7588   -2.2648    0.3982 H   0  0  0  0  0  0  0  0  0  0  0  0
   -3.2682   -3.1165   -1.0877 H   0  0  0  0  0  0  0  0  0  0  0  0
   -1.6311   -2.4728    0.1520 C   0  0  0  0  0  0  0  0  0  0  0  0
   -0.8317   -3.1295    0.7923 O   0  0  0  0  0  0  0  0  0  0  0  0
   -1.2530   -1.2766   -0.4279 N   0  0  0  0  0  0  0  0  0  0  0  0
   -1.9593   -0.7875   -0.9679 H   0  0  0  0  0  0  0  0  0  0  0  0
    0.0892   -0.6686   -0.2914 C   0  0  1  0  0  0  0  0  0  0  0  0
    0.8345   -1.3982   -0.6285 H   0  0  0  0  0  0  0  0  0  0  0  0
    0.1475    0.5422   -1.2708 C   0  0  0  0  0  0  0  0  0  0  0  0
    0.7040    0.2152   -2.1551 H   0  0  0  0  0  0  0  0  0  0  0  0
   -0.8721    0.7550   -1.6056 H   0  0  0  0  0  0  0  0  0  0  0  0
    0.7212    1.8861   -0.8494 C   0  0  0  0  0  0  0  0  0  0  0  0
    0.5055    3.0350   -1.5850 N   0  0  0  0  0  0  0  0  0  0  0  0
   -0.0361    3.1053   -2.4434 H   0  0  0  0  0  0  0  0  0  0  0  0
    1.1694    4.0890   -0.9896 C   0  0  0  0  0  0  0  0  0  0  0  0
    1.1694    5.1141   -1.3489 H   0  0  0  0  0  0  0  0  0  0  0  0
    1.8013    3.6710    0.0754 N   0  0  0  0  0  0  0  0  0  0  0  0
    1.5522    2.3050    0.1684 C   0  0  0  0  0  0  0  0  0  0  0  0
    1.9876    1.6823    0.9398 H   0  0  0  0  0  0  0  0  0  0  0  0
    0.4393   -0.3686    1.1829 C   0  0  0  0  0  0  0  0  0  0  0  0
    1.5635   -0.6067    1.6043 O   0  0  0  0  0  0  0  0  0  0  0  0
   -0.4868    0.2276    2.0211 N   0  0  0  0  0  0  0  0  0  0  0  0
   -1.4156    0.3910    1.6493 H   0  0  0  0  0  0  0  0  0  0  0  0
   -0.2100    0.5527    3.4142 C   0  0  0  0  0  0  0  0  0  0  0  0
    0.5895    1.2982    3.4801 H   0  0  0  0  0  0  0  0  0  0  0  0
   -1.1046    0.9611    3.8936 H   0  0  0  0  0  0  0  0  0  0  0  0
    0.0971   -0.3441    3.9629 H   0  0  0  0  0  0  0  0  0  0  0  0
  1  2  1  0  0  0  0
  2  3  1  0  0  0  0
  2  4  1  0  0  0  0
  2  5  1  0  0  0  0
  5  6  2  0  0  0  0
  5  7  1  0  0  0  0
  7  8  1  0  0  0  0
  7  9  1  0  0  0  0
  9 10  1  0  0  0  0
  9 11  1  0  0  0  0
  9 22  1  0  0  0  0
 11 12  1  0  0  0  0
 11 13  1  0  0  0  0
 11 14  1  0  0  0  0
 14 15  1  0  0  0  0
 14 20  2  0  0  0  0
 15 16  1  0  0  0  0
 15 17  1  0  0  0  0
 17 18  1  0  0  0  0
 17 19  2  0  0  0  0
 19 20  1  0  0  0  0
 20 21  1  0  0  0  0
 22 23  2  0  0  0  0
 22 24  1  0  0  0  0
 24 25  1  0  0  0  0
 24 26  1  0  0  0  0
 26 27  1  0  0  0  0
 26 28  1  0  0  0  0
 26 29  1  0  0  0  0
M  END
$$$$

  -OEChem-03222214043D

 29 29  0     1  0  0  0  0  0999 V2000
   -3.1593   -3.9521    0.5278 H   0  0  0  0  0  0  0  0  0  0  0  0
   -3.0407   -3.0011    0.0006 C   0  0  0  0  0  0  0  0  0  0  0  0
   -3.7556   -2.2825    0.4081 H   0  0  0  0  0  0  0  0  0  0  0  0
   -3.2535   -3.1591   -1.0594 H   0  0  0  0  0  0  0  0  0  0  0  0
   -1.6258   -2.4821    0.1750 C   0  0  0  0  0  0  0  0  0  0  0  0
   -0.8265   -3.1187    0.8354 O   0  0  0  0  0  0  0  0  0  0  0  0
   -1.2521   -1.2983   -0.4324 N   0  0  0  0  0  0  0  0  0  0  0  0
   -1.9536   -0.8365   -1.0017 H   0  0  0  0  0  0  0  0  0  0  0  0
    0.0879   -0.6827   -0.3131 C   0  0  1  0  0  0  0  0  0  0  0  0
    0.8396   -1.4075   -0.6461 H   0  0  0  0  0  0  0  0  0  0  0  0
    0.1241    0.5257   -1.2951 C   0  0  0  0  0  0  0  0  0  0  0  0
    0.6722    0.2133   -2.1901 H   0  0  0  0  0  0  0  0  0  0  0  0
   -0.8997    0.7404   -1.6158 H   0  0  0  0  0  0  0  0  0  0  0  0
    0.7033    1.8517   -0.8392 C   0  0  0  0  0  0  0  0  0  0  0  0
    0.2886    3.0795   -1.3145 N   0  0  0  0  0  0  0  0  0  0  0  0
   -0.4579    3.2452   -1.9855 H   0  0  0  0  0  0  0  0  0  0  0  0
    1.0738    4.0676   -0.7534 C   0  0  0  0  0  0  0  0  0  0  0  0
    0.9669    5.1330   -0.9373 H   0  0  0  0  0  0  0  0  0  0  0  0
    1.9719    3.5319    0.0318 N   0  0  0  0  0  0  0  0  0  0  0  0
    1.7717    2.1557   -0.0250 C   0  0  0  0  0  0  0  0  0  0  0  0
    2.4052    1.4350    0.4801 H   0  0  0  0  0  0  0  0  0  0  0  0
    0.4378   -0.3487    1.1568 C   0  0  0  0  0  0  0  0  0  0  0  0
    1.5600   -0.5791    1.5873 O   0  0  0  0  0  0  0  0  0  0  0  0
   -0.4906    0.2626    1.9817 N   0  0  0  0  0  0  0  0  0  0  0  0
   -1.4132    0.4341    1.5988 H   0  0  0  0  0  0  0  0  0  0  0  0
   -0.2078    0.6436    3.3595 C   0  0  0  0  0  0  0  0  0  0  0  0
    0.5895    1.3937    3.3918 H   0  0  0  0  0  0  0  0  0  0  0  0
   -1.1015    1.0682    3.8261 H   0  0  0  0  0  0  0  0  0  0  0  0
    0.1048   -0.2297    3.9420 H   0  0  0  0  0  0  0  0  0  0  0  0
  1  2  1  0  0  0  0
  2  3  1  0  0  0  0
  2  4  1  0  0  0  0
  2  5  1  0  0  0  0
  5  6  2  0  0  0  0
  5  7  1  0  0  0  0
  7  8  1  0  0  0  0
  7  9  1  0  0  0  0
  9 10  1  0  0  0  0
  9 11  1  0  0  0  0
  9 22  1  0  0  0  0
 11 12  1  0  0  0  0
 11 13  1  0  0  0  0
 11 14  1  0  0  0  0
 14 15  1  0  0  0  0
 14 20  2  0  0  0  0
 15 16  1  0  0  0  0
 15 17  1  0  0  0  0
 17 18  1  0  0  0  0
 17 19  2  0  0  0  0
 19 20  1  0  0  0  0
 20 21  1  0  0  0  0
 22 23  2  0  0  0  0
 22 24  1  0  0  0  0
 24 25  1  0  0  0  0
 24 26  1  0  0  0  0
 26 27  1  0  0  0  0
 26 28  1  0  0  0  0
 26 29  1  0  0  0  0
M  END
$$$$

  -OEChem-03222214043D

 29 29  0     1  0  0  0  0  0999 V2000
   -3.1381   -3.9841    0.5381 H   0  0  0  0  0  0  0  0  0  0  0  0
   -3.0316   -3.0375    0.0006 C   0  0  0  0  0  0  0  0  0  0  0  0
   -3.7702   -2.3303    0.3851 H   0  0  0  0  0  0  0  0  0  0  0  0
   -3.2208   -3.2137   -1.0609 H   0  0  0  0  0  0  0  0  0  0  0  0
   -1.6325   -2.4840    0.1950 C   0  0  0  0  0  0  0  0  0  0  0  0
   -0.8375   -3.0850    0.8928 O   0  0  0  0  0  0  0  0  0  0  0  0
   -1.2692   -1.3072   -0.4317 N   0  0  0  0  0  0  0  0  0  0  0  0
   -1.9572   -0.8878   -1.0483 H   0  0  0  0  0  0  0  0  0  0  0  0
    0.0677   -0.6829   -0.3281 C   0  0  1  0  0  0  0  0  0  0  0  0
    0.8182   -1.4109   -0.6563 H   0  0  0  0  0  0  0  0  0  0  0  0
    0.1028    0.5144   -1.3204 C   0  0  0  0  0  0  0  0  0  0  0  0
    0.6638    0.2022   -2.2074 H   0  0  0  0  0  0  0  0  0  0  0  0
   -0.9160    0.7317   -1.6547 H   0  0  0  0  0  0  0  0  0  0  0  0
    0.6904    1.8216   -0.8329 C   0  0  0  0  0  0  0  0  0  0  0  0
    0.1447    3.0736   -1.0274 N   0  0  0  0  0  0  0  0  0  0  0  0
   -0.7374    3.2839   -1.4882 H   0  0  0  0  0  0  0  0  0  0  0  0
    1.0114    4.0193   -0.5137 C   0  0  0  0  0  0  0  0  0  0  0  0
    0.8401    5.0919   -0.5161 H   0  0  0  0  0  0  0  0  0  0  0  0
    2.0763    3.4354   -0.0267 N   0  0  0  0  0  0  0  0  0  0  0  0
    1.9007    2.0694   -0.2281 C   0  0  0  0  0  0  0  0  0  0  0  0
    2.6331    1.3118    0.0341 H   0  0  0  0  0  0  0  0  0  0  0  0
    0.4381   -0.3198    1.1310 C   0  0  0  0  0  0  0  0  0  0  0  0
    1.5793   -0.5022    1.5350 O   0  0  0  0  0  0  0  0  0  0  0  0
   -0.4819    0.3022    1.9574 N   0  0  0  0  0  0  0  0  0  0  0  0
   -1.4210    0.4265    1.5974 H   0  0  0  0  0  0  0  0  0  0  0  0
   -0.1756    0.7263    3.3173 C   0  0  0  0  0  0  0  0  0  0  0  0
    0.6154    1.4838    3.3118 H   0  0  0  0  0  0  0  0  0  0  0  0
   -1.0638    1.1565    3.7892 H   0  0  0  0  0  0  0  0  0  0  0  0
    0.1568   -0.1267    3.9185 H   0  0  0  0  0  0  0  0  0  0  0  0
  1  2  1  0  0  0  0
  2  3  1  0  0  0  0
  2  4  1  0  0  0  0
  2  5  1  0  0  0  0
  5  6  2  0  0  0  0
  5  7  1  0  0  0  0
  7  8  1  0  0  0  0
  7  9  1  0  0  0  0
  9 10  1  0  0  0  0
  9 11  1  0  0  0  0
  9 22  1  0  0  0  0
 11 12  1  0  0  0  0
 11 13  1  0  0  0  0
 11 14  1  0  0  0  0
 14 15  1  0  0  0  0
 14 20  2  0  0  0  0
 15 16  1  0  0  0  0
 15 17  1  0  0  0  0
 17 18  1  0  0  0  0
 17 19  2  0  0  0  0
 19 20  1  0  0  0  0
 20 21  1  0  0  0  0
 22 23  2  0  0  0  0
 22 24  1  0  0  0  0
 24 25  1  0  0  0  0
 24 26  1  0  0  0  0
 26 27  1  0  0  0  0
 26 28  1  0  0  0  0
 26 29  1  0  0  0  0
M  END
$$$$

  -OEChem-03222214043D

 29 29  0     1  0  0  0  0  0999 V2000
   -3.1224   -4.0090    0.5328 H   0  0  0  0  0  0  0  0  0  0  0  0
   -3.0257   -3.0635   -0.0090 C   0  0  0  0  0  0  0  0  0  0  0  0
   -3.7877   -2.3705    0.3552 H   0  0  0  0  0  0  0  0  0  0  0  0
   -3.1892   -3.2513   -1.0728 H   0  0  0  0  0  0  0  0  0  0  0  0
   -1.6430   -2.4781    0.2095 C   0  0  0  0  0  0  0  0  0  0  0  0
   -0.8541   -3.0500    0.9382 O   0  0  0  0  0  0  0  0  0  0  0  0
   -1.2873   -1.3055   -0.4293 N   0  0  0  0  0  0  0  0  0  0  0  0
   -1.9646   -0.9170   -1.0774 H   0  0  0  0  0  0  0  0  0  0  0  0
    0.0476   -0.6763   -0.3368 C   0  0  1  0  0  0  0  0  0  0  0  0
    0.7937   -1.4114   -0.6595 H   0  0  0  0  0  0  0  0  0  0  0  0
    0.0916    0.5064   -1.3426 C   0  0  0  0  0  0  0  0  0  0  0  0
    0.6694    0.1858   -2.2157 H   0  0  0  0  0  0  0  0  0  0  0  0
   -0.9192    0.7276   -1.6981 H   0  0  0  0  0  0  0  0  0  0  0  0
    0.6864    1.8000   -0.8356 C   0  0  0  0  0  0  0  0  0  0  0  0
    0.0566    3.0238   -0.7540 N   0  0  0  0  0  0  0  0  0  0  0  0
   -0.9115    3.2242   -0.9926 H   0  0  0  0  0  0  0  0  0  0  0  0
    0.9696    3.9576   -0.3012 C   0  0  0  0  0  0  0  0  0  0  0  0
    0.7568    5.0093   -0.1322 H   0  0  0  0  0  0  0  0  0  0  0  0
    2.1355    3.3932   -0.1111 N   0  0  0  0  0  0  0  0  0  0  0  0
    1.9785    2.0498   -0.4405 C   0  0  0  0  0  0  0  0  0  0  0  0
    2.7709    1.3079   -0.4040 H   0  0  0  0  0  0  0  0  0  0  0  0
    0.4416   -0.2920    1.1107 C   0  0  0  0  0  0  0  0  0  0  0  0
    1.5977   -0.4399    1.4858 O   0  0  0  0  0  0  0  0  0  0  0  0
   -0.4659    0.3396    1.9435 N   0  0  0  0  0  0  0  0  0  0  0  0
   -1.4228    0.4085    1.6176 H   0  0  0  0  0  0  0  0  0  0  0  0
   -0.1377    0.7745    3.2948 C   0  0  0  0  0  0  0  0  0  0  0  0
    0.6591    1.5255    3.2704 H   0  0  0  0  0  0  0  0  0  0  0  0
   -1.0156    1.2166    3.7748 H   0  0  0  0  0  0  0  0  0  0  0  0
    0.1969   -0.0748    3.8998 H   0  0  0  0  0  0  0  0  0  0  0  0
  1  2  1  0  0  0  0
  2  3  1  0  0  0  0
  2  4  1  0  0  0  0
  2  5  1  0  0  0  0
  5  6  2  0  0  0  0
  5  7  1  0  0  0  0
  7  8  1  0  0  0  0
  7  9  1  0  0  0  0
  9 10  1  0  0  0  0
  9 11  1  0  0  0  0
  9 22  1  0  0  0  0
 11 12  1  0  0  0  0
 11 13  1  0  0  0  0
 11 14  1  0  0  0  0
 14 15  1  0  0  0  0
 14 20  2  0  0  0  0
 15 16  1  0  0  0  0
 15 17  1  0  0  0  0
 17 18  1  0  0  0  0
 17 19  2  0  0  0  0
 19 20  1  0  0  0  0
 20 21  1  0  0  0  0
 22 23  2  0  0  0  0
 22 24  1  0  0  0  0
 24 25  1  0  0  0  0
 24 26  1  0  0  0  0
 26 27  1  0  0  0  0
 26 28  1  0  0  0  0
 26 29  1  0  0  0  0
M  END
$$$$

  -OEChem-03222214043D

 29 29  0     1  0  0  0  0  0999 V2000
   -3.1085   -4.0191    0.5365 H   0  0  0  0  0  0  0  0  0  0  0  0
   -3.0184   -3.0780   -0.0140 C   0  0  0  0  0  0  0  0  0  0  0  0
   -3.7989   -2.3947    0.3288 H   0  0  0  0  0  0  0  0  0  0  0  0
   -3.1596   -3.2802   -1.0784 H   0  0  0  0  0  0  0  0  0  0  0  0
   -1.6503   -2.4660    0.2227 C   0  0  0  0  0  0  0  0  0  0  0  0
   -0.8695   -3.0108    0.9802 O   0  0  0  0  0  0  0  0  0  0  0  0
   -1.3010   -1.2965   -0.4257 N   0  0  0  0  0  0  0  0  0  0  0  0
   -1.9628   -0.9424   -1.1089 H   0  0  0  0  0  0  0  0  0  0  0  0
    0.0337   -0.6656   -0.3423 C   0  0  1  0  0  0  0  0  0  0  0  0
    0.7757   -1.4066   -0.6606 H   0  0  0  0  0  0  0  0  0  0  0  0
    0.0877    0.5060   -1.3584 C   0  0  0  0  0  0  0  0  0  0  0  0
    0.6739    0.1751   -2.2222 H   0  0  0  0  0  0  0  0  0  0  0  0
   -0.9170    0.7331   -1.7270 H   0  0  0  0  0  0  0  0  0  0  0  0
    0.6897    1.7904   -0.8425 C   0  0  0  0  0  0  0  0  0  0  0  0
    0.0278    2.9462   -0.4882 N   0  0  0  0  0  0  0  0  0  0  0  0
   -0.9781    3.0940   -0.4892 H   0  0  0  0  0  0  0  0  0  0  0  0
    0.9678    3.8916   -0.1221 C   0  0  0  0  0  0  0  0  0  0  0  0
    0.7423    4.9011    0.2095 H   0  0  0  0  0  0  0  0  0  0  0  0
    2.1752    3.3987   -0.2412 N   0  0  0  0  0  0  0  0  0  0  0  0
    2.0200    2.0880   -0.6824 C   0  0  0  0  0  0  0  0  0  0  0  0
    2.8375    1.4018   -0.8828 H   0  0  0  0  0  0  0  0  0  0  0  0
    0.4429   -0.2690    1.0980 C   0  0  0  0  0  0  0  0  0  0  0  0
    1.6077   -0.3939    1.4540 O   0  0  0  0  0  0  0  0  0  0  0  0
   -0.4571    0.3692    1.9345 N   0  0  0  0  0  0  0  0  0  0  0  0
   -1.4287    0.3651    1.6470 H   0  0  0  0  0  0  0  0  0  0  0  0
   -0.1190    0.7861    3.2891 C   0  0  0  0  0  0  0  0  0  0  0  0
    0.7013    1.5117    3.2710 H   0  0  0  0  0  0  0  0  0  0  0  0
   -0.9833    1.2544    3.7693 H   0  0  0  0  0  0  0  0  0  0  0  0
    0.1870   -0.0770    3.8897 H   0  0  0  0  0  0  0  0  0  0  0  0
  1  2  1  0  0  0  0
  2  3  1  0  0  0  0
  2  4  1  0  0  0  0
  2  5  1  0  0  0  0
  5  6  2  0  0  0  0
  5  7  1  0  0  0  0
  7  8  1  0  0  0  0
  7  9  1  0  0  0  0
  9 10  1  0  0  0  0
  9 11  1  0  0  0  0
  9 22  1  0  0  0  0
 11 12  1  0  0  0  0
 11 13  1  0  0  0  0
 11 14  1  0  0  0  0
 14 15  1  0  0  0  0
 14 20  2  0  0  0  0
 15 16  1  0  0  0  0
 15 17  1  0  0  0  0
 17 18  1  0  0  0  0
 17 19  2  0  0  0  0
 19 20  1  0  0  0  0
 20 21  1  0  0  0  0
 22 23  2  0  0  0  0
 22 24  1  0  0  0  0
 24 25  1  0  0  0  0
 24 26  1  0  0  0  0
 26 27  1  0  0  0  0
 26 28  1  0  0  0  0
 26 29  1  0  0  0  0
M  END
$$$$

  -OEChem-03222214043D

 29 29  0     1  0  0  0  0  0999 V2000
   -3.1031   -4.0174    0.5301 H   0  0  0  0  0  0  0  0  0  0  0  0
   -3.0123   -3.0775   -0.0222 C   0  0  0  0  0  0  0  0  0  0  0  0
   -3.8090   -2.4023    0.2987 H   0  0  0  0  0  0  0  0  0  0  0  0
   -3.1253   -3.2862   -1.0887 H   0  0  0  0  0  0  0  0  0  0  0  0
   -1.6590   -2.4459    0.2434 C   0  0  0  0  0  0  0  0  0  0  0  0
   -0.8958   -2.9656    1.0354 O   0  0  0  0  0  0  0  0  0  0  0  0
   -1.3062   -1.2826   -0.4136 N   0  0  0  0  0  0  0  0  0  0  0  0
   -1.9479   -0.9597   -1.1308 H   0  0  0  0  0  0  0  0  0  0  0  0
    0.0317   -0.6575   -0.3386 C   0  0  1  0  0  0  0  0  0  0  0  0
    0.7690   -1.4057   -0.6515 H   0  0  0  0  0  0  0  0  0  0  0  0
    0.0918    0.5042   -1.3650 C   0  0  0  0  0  0  0  0  0  0  0  0
    0.6744    0.1603   -2.2263 H   0  0  0  0  0  0  0  0  0  0  0  0
   -0.9115    0.7377   -1.7340 H   0  0  0  0  0  0  0  0  0  0  0  0
    0.7030    1.7862   -0.8561 C   0  0  0  0  0  0  0  0  0  0  0  0
    0.0664    2.8443   -0.2440 N   0  0  0  0  0  0  0  0  0  0  0  0
   -0.9155    2.8934    0.0150 H   0  0  0  0  0  0  0  0  0  0  0  0
    1.0050    3.8254    0.0157 C   0  0  0  0  0  0  0  0  0  0  0  0
    0.7984    4.7732    0.5043 H   0  0  0  0  0  0  0  0  0  0  0  0
    2.1826    3.4521   -0.4201 N   0  0  0  0  0  0  0  0  0  0  0  0
    2.0129    2.1799   -0.9572 C   0  0  0  0  0  0  0  0  0  0  0  0
    2.8053    1.5877   -1.4052 H   0  0  0  0  0  0  0  0  0  0  0  0
    0.4461   -0.2541    1.0986 C   0  0  0  0  0  0  0  0  0  0  0  0
    1.6132   -0.3698    1.4499 O   0  0  0  0  0  0  0  0  0  0  0  0
   -0.4527    0.3923    1.9311 N   0  0  0  0  0  0  0  0  0  0  0  0
   -1.4294    0.3229    1.6688 H   0  0  0  0  0  0  0  0  0  0  0  0
   -0.1190    0.7662    3.2998 C   0  0  0  0  0  0  0  0  0  0  0  0
    0.7239    1.4655    3.3102 H   0  0  0  0  0  0  0  0  0  0  0  0
   -0.9744    1.2502    3.7804 H   0  0  0  0  0  0  0  0  0  0  0  0
    0.1520   -0.1203    3.8830 H   0  0  0  0  0  0  0  0  0  0  0  0
  1  2  1  0  0  0  0
  2  3  1  0  0  0  0
  2  4  1  0  0  0  0
  2  5  1  0  0  0  0
  5  6  2  0  0  0  0
  5  7  1  0  0  0  0
  7  8  1  0  0  0  0
  7  9  1  0  0  0  0
  9 10  1  0  0  0  0
  9 11  1  0  0  0  0
  9 22  1  0  0  0  0
 11 12  1  0  0  0  0
 11 13  1  0  0  0  0
 11 14  1  0  0  0  0
 14 15  1  0  0  0  0
 14 20  2  0  0  0  0
 15 16  1  0  0  0  0
 15 17  1  0  0  0  0
 17 18  1  0  0  0  0
 17 19  2  0  0  0  0
 19 20  1  0  0  0  0
 20 21  1  0  0  0  0
 22 23  2  0  0  0  0
 22 24  1  0  0  0  0
 24 25  1  0  0  0  0
 24 26  1  0  0  0  0
 26 27  1  0  0  0  0
 26 28  1  0  0  0  0
 26 29  1  0  0  0  0
M  END
$$$$

  -OEChem-03222214043D

 29 29  0     1  0  0  0  0  0999 V2000
   -3.1072   -4.0082    0.5359 H   0  0  0  0  0  0  0  0  0  0  0  0
   -3.0113   -3.0727   -0.0231 C   0  0  0  0  0  0  0  0  0  0  0  0
   -3.8090   -2.3942    0.2880 H   0  0  0  0  0  0  0  0  0  0  0  0
   -3.1182   -3.2894   -1.0886 H   0  0  0  0  0  0  0  0  0  0  0  0
   -1.6584   -2.4415    0.2464 C   0  0  0  0  0  0  0  0  0  0  0  0
   -0.9001   -2.9595    1.0443 O   0  0  0  0  0  0  0  0  0  0  0  0
   -1.3015   -1.2779   -0.4086 N   0  0  0  0  0  0  0  0  0  0  0  0
   -1.9413   -0.9528   -1.1270 H   0  0  0  0  0  0  0  0  0  0  0  0
    0.0391   -0.6570   -0.3344 C   0  0  1  0  0  0  0  0  0  0  0  0
    0.7750   -1.4068   -0.6464 H   0  0  0  0  0  0  0  0  0  0  0  0
    0.1073    0.5055   -1.3603 C   0  0  0  0  0  0  0  0  0  0  0  0
    0.6771    0.1549   -2.2273 H   0  0  0  0  0  0  0  0  0  0  0  0
   -0.8983    0.7456   -1.7183 H   0  0  0  0  0  0  0  0  0  0  0  0
    0.7238    1.7929   -0.8670 C   0  0  0  0  0  0  0  0  0  0  0  0
    0.1812    2.7398   -0.0248 N   0  0  0  0  0  0  0  0  0  0  0  0
   -0.6901    2.6576    0.4929 H   0  0  0  0  0  0  0  0  0  0  0  0
    1.0902    3.7715    0.1158 C   0  0  0  0  0  0  0  0  0  0  0  0
    0.9459    4.6503    0.7378 H   0  0  0  0  0  0  0  0  0  0  0  0
    2.1533    3.5407   -0.6142 N   0  0  0  0  0  0  0  0  0  0  0  0
    1.9436    2.3083   -1.2233 C   0  0  0  0  0  0  0  0  0  0  0  0
    2.6454    1.8277   -1.8983 H   0  0  0  0  0  0  0  0  0  0  0  0
    0.4456   -0.2620    1.1070 C   0  0  0  0  0  0  0  0  0  0  0  0
    1.6116   -0.3666    1.4645 O   0  0  0  0  0  0  0  0  0  0  0  0
   -0.4628    0.3815    1.9329 N   0  0  0  0  0  0  0  0  0  0  0  0
   -1.4378    0.2674    1.6781 H   0  0  0  0  0  0  0  0  0  0  0  0
   -0.1420    0.7354    3.3101 C   0  0  0  0  0  0  0  0  0  0  0  0
    0.7120    1.4204    3.3404 H   0  0  0  0  0  0  0  0  0  0  0  0
   -0.9960    1.2289    3.7832 H   0  0  0  0  0  0  0  0  0  0  0  0
    0.1057   -0.1615    3.8877 H   0  0  0  0  0  0  0  0  0  0  0  0
  1  2  1  0  0  0  0
  2  3  1  0  0  0  0
  2  4  1  0  0  0  0
  2  5  1  0  0  0  0
  5  6  2  0  0  0  0
  5  7  1  0  0  0  0
  7  8  1  0  0  0  0
  7  9  1  0  0  0  0
  9 10  1  0  0  0  0
  9 11  1  0  0  0  0
  9 22  1  0  0  0  0
 11 12  1  0  0  0  0
 11 13  1  0  0  0  0
 11 14  1  0  0  0  0
 14 15  1  0  0  0  0
 14 20  2  0  0  0  0
 15 16  1  0  0  0  0
 15 17  1  0  0  0  0
 17 18  1  0  0  0  0
 17 19  2  0  0  0  0
 19 20  1  0  0  0  0
 20 21  1  0  0  0  0
 22 23  2  0  0  0  0
 22 24  1  0  0  0  0
 24 25  1  0  0  0  0
 24 26  1  0  0  0  0
 26 27  1  0  0  0  0
 26 28  1  0  0  0  0
 26 29  1  0  0  0  0
M  END
$$$$

  -OEChem-03222214043D

 29 29  0     1  0  0  0  0  0999 V2000
   -3.1108   -4.0013    0.5212 H   0  0  0  0  0  0  0  0  0  0  0  0
   -3.0097   -3.0630   -0.0319 C   0  0  0  0  0  0  0  0  0  0  0  0
   -3.8100   -2.3859    0.2756 H   0  0  0  0  0  0  0  0  0  0  0  0
   -3.1080   -3.2742   -1.0994 H   0  0  0  0  0  0  0  0  0  0  0  0
   -1.6586   -2.4341    0.2516 C   0  0  0  0  0  0  0  0  0  0  0  0
   -0.9077   -2.9545    1.0550 O   0  0  0  0  0  0  0  0  0  0  0  0
   -1.2947   -1.2697   -0.3982 N   0  0  0  0  0  0  0  0  0  0  0  0
   -1.9305   -0.9413   -1.1188 H   0  0  0  0  0  0  0  0  0  0  0  0
    0.0488   -0.6546   -0.3223 C   0  0  1  0  0  0  0  0  0  0  0  0
    0.7830   -1.4064   -0.6329 H   0  0  0  0  0  0  0  0  0  0  0  0
    0.1223    0.5078   -1.3501 C   0  0  0  0  0  0  0  0  0  0  0  0
    0.6753    0.1491   -2.2246 H   0  0  0  0  0  0  0  0  0  0  0  0
   -0.8883    0.7504   -1.6923 H   0  0  0  0  0  0  0  0  0  0  0  0
    0.7404    1.8072   -0.8851 C   0  0  0  0  0  0  0  0  0  0  0  0
    0.3557    2.6449    0.1402 N   0  0  0  0  0  0  0  0  0  0  0  0
   -0.3312    2.4307    0.8607 H   0  0  0  0  0  0  0  0  0  0  0  0
    1.2117    3.7293    0.1663 C   0  0  0  0  0  0  0  0  0  0  0  0
    1.1704    4.5400    0.8881 H   0  0  0  0  0  0  0  0  0  0  0  0
    2.0848    3.6398   -0.8065 N   0  0  0  0  0  0  0  0  0  0  0  0
    1.8102    2.4442   -1.4604 C   0  0  0  0  0  0  0  0  0  0  0  0
    2.3632    2.0720   -2.3177 H   0  0  0  0  0  0  0  0  0  0  0  0
    0.4450   -0.2718    1.1248 C   0  0  0  0  0  0  0  0  0  0  0  0
    1.6092   -0.3647    1.4897 O   0  0  0  0  0  0  0  0  0  0  0  0
   -0.4717    0.3682    1.9457 N   0  0  0  0  0  0  0  0  0  0  0  0
   -1.4436    0.2352    1.6851 H   0  0  0  0  0  0  0  0  0  0  0  0
   -0.1709    0.6814    3.3377 C   0  0  0  0  0  0  0  0  0  0  0  0
    0.6932    1.3511    3.4027 H   0  0  0  0  0  0  0  0  0  0  0  0
   -1.0259    1.1759    3.8082 H   0  0  0  0  0  0  0  0  0  0  0  0
    0.0521   -0.2342    3.8958 H   0  0  0  0  0  0  0  0  0  0  0  0
  1  2  1  0  0  0  0
  2  3  1  0  0  0  0
  2  4  1  0  0  0  0
  2  5  1  0  0  0  0
  5  6  2  0  0  0  0
  5  7  1  0  0  0  0
  7  8  1  0  0  0  0
  7  9  1  0  0  0  0
  9 10  1  0  0  0  0
  9 11  1  0  0  0  0
  9 22  1  0  0  0  0
 11 12  1  0  0  0  0
 11 13  1  0  0  0  0
 11 14  1  0  0  0  0
 14 15  1  0  0  0  0
 14 20  2  0  0  0  0
 15 16  1  0  0  0  0
 15 17  1  0  0  0  0
 17 18  1  0  0  0  0
 17 19  2  0  0  0  0
 19 20  1  0  0  0  0
 20 21  1  0  0  0  0
 22 23  2  0  0  0  0
 22 24  1  0  0  0  0
 24 25  1  0  0  0  0
 24 26  1  0  0  0  0
 26 27  1  0  0  0  0
 26 28  1  0  0  0  0
 26 29  1  0  0  0  0
M  END
$$$$

  -OEChem-03222214043D

 29 29  0     1  0  0  0  0  0999 V2000
   -3.1274   -3.9869    0.5121 H   0  0  0  0  0  0  0  0  0  0  0  0
   -3.0150   -3.0515   -0.0438 C   0  0  0  0  0  0  0  0  0  0  0  0
   -3.8103   -2.3659    0.2582 H   0  0  0  0  0  0  0  0  0  0  0  0
   -3.1108   -3.2652   -1.1110 H   0  0  0  0  0  0  0  0  0  0  0  0
   -1.6591   -2.4345    0.2433 C   0  0  0  0  0  0  0  0  0  0  0  0
   -0.9112   -2.9658    1.0425 O   0  0  0  0  0  0  0  0  0  0  0  0
   -1.2885   -1.2663   -0.3955 N   0  0  0  0  0  0  0  0  0  0  0  0
   -1.9234   -0.9263   -1.1115 H   0  0  0  0  0  0  0  0  0  0  0  0
    0.0571   -0.6565   -0.3109 C   0  0  1  0  0  0  0  0  0  0  0  0
    0.7905   -1.4089   -0.6231 H   0  0  0  0  0  0  0  0  0  0  0  0
    0.1350    0.5097   -1.3375 C   0  0  0  0  0  0  0  0  0  0  0  0
    0.6773    0.1476   -2.2173 H   0  0  0  0  0  0  0  0  0  0  0  0
   -0.8788    0.7516   -1.6704 H   0  0  0  0  0  0  0  0  0  0  0  0
    0.7494    1.8226   -0.8971 C   0  0  0  0  0  0  0  0  0  0  0  0
    0.5686    2.5558    0.2573 N   0  0  0  0  0  0  0  0  0  0  0  0
    0.0743    2.2399    1.0916 H   0  0  0  0  0  0  0  0  0  0  0  0
    1.3531    3.6907    0.1906 C   0  0  0  0  0  0  0  0  0  0  0  0
    1.4349    4.4405    0.9721 H   0  0  0  0  0  0  0  0  0  0  0  0
    1.9886    3.7319   -0.9545 N   0  0  0  0  0  0  0  0  0  0  0  0
    1.6321    2.5721   -1.6328 C   0  0  0  0  0  0  0  0  0  0  0  0
    2.0006    2.3007   -2.6177 H   0  0  0  0  0  0  0  0  0  0  0  0
    0.4456   -0.2893    1.1415 C   0  0  0  0  0  0  0  0  0  0  0  0
    1.6086   -0.3760    1.5112 O   0  0  0  0  0  0  0  0  0  0  0  0
   -0.4728    0.3458    1.9646 N   0  0  0  0  0  0  0  0  0  0  0  0
   -1.4439    0.2322    1.6897 H   0  0  0  0  0  0  0  0  0  0  0  0
   -0.1850    0.6297    3.3660 C   0  0  0  0  0  0  0  0  0  0  0  0
    0.6939    1.2772    3.4556 H   0  0  0  0  0  0  0  0  0  0  0  0
   -1.0346    1.1373    3.8324 H   0  0  0  0  0  0  0  0  0  0  0  0
    0.0068   -0.3004    3.9116 H   0  0  0  0  0  0  0  0  0  0  0  0
  1  2  1  0  0  0  0
  2  3  1  0  0  0  0
  2  4  1  0  0  0  0
  2  5  1  0  0  0  0
  5  6  2  0  0  0  0
  5  7  1  0  0  0  0
  7  8  1  0  0  0  0
  7  9  1  0  0  0  0
  9 10  1  0  0  0  0
  9 11  1  0  0  0  0
  9 22  1  0  0  0  0
 11 12  1  0  0  0  0
 11 13  1  0  0  0  0
 11 14  1  0  0  0  0
 14 15  1  0  0  0  0
 14 20  2  0  0  0  0
 15 16  1  0  0  0  0
 15 17  1  0  0  0  0
 17 18  1  0  0  0  0
 17 19  2  0  0  0  0
 19 20  1  0  0  0  0
 20 21  1  0  0  0  0
 22 23  2  0  0  0  0
 22 24  1  0  0  0  0
 24 25  1  0  0  0  0
 24 26  1  0  0  0  0
 26 27  1  0  0  0  0
 26 28  1  0  0  0  0
 26 29  1  0  0  0  0
M  END
$$$$

  -OEChem-03222214043D

 29 29  0     1  0  0  0  0  0999 V2000
   -3.1522   -3.9698    0.4946 H   0  0  0  0  0  0  0  0  0  0  0  0
   -3.0295   -3.0318   -0.0548 C   0  0  0  0  0  0  0  0  0  0  0  0
   -3.8134   -2.3373    0.2563 H   0  0  0  0  0  0  0  0  0  0  0  0
   -3.1337   -3.2357   -1.1232 H   0  0  0  0  0  0  0  0  0  0  0  0
   -1.6633   -2.4367    0.2296 C   0  0  0  0  0  0  0  0  0  0  0  0
   -0.9126   -2.9917    1.0100 O   0  0  0  0  0  0  0  0  0  0  0  0
   -1.2831   -1.2645   -0.3957 N   0  0  0  0  0  0  0  0  0  0  0  0
   -1.9248   -0.8975   -1.0920 H   0  0  0  0  0  0  0  0  0  0  0  0
    0.0660   -0.6640   -0.3021 C   0  0  1  0  0  0  0  0  0  0  0  0
    0.7962   -1.4171   -0.6188 H   0  0  0  0  0  0  0  0  0  0  0  0
    0.1497    0.5096   -1.3225 C   0  0  0  0  0  0  0  0  0  0  0  0
    0.6873    0.1470   -2.2051 H   0  0  0  0  0  0  0  0  0  0  0  0
   -0.8655    0.7523   -1.6516 H   0  0  0  0  0  0  0  0  0  0  0  0
    0.7648    1.8302   -0.8990 C   0  0  0  0  0  0  0  0  0  0  0  0
    0.8247    2.4639    0.3254 N   0  0  0  0  0  0  0  0  0  0  0  0
    0.5439    2.0592    1.2196 H   0  0  0  0  0  0  0  0  0  0  0  0
    1.5125    3.6525    0.1821 C   0  0  0  0  0  0  0  0  0  0  0  0
    1.7336    4.3479    0.9869 H   0  0  0  0  0  0  0  0  0  0  0  0
    1.8633    3.8197   -1.0692 N   0  0  0  0  0  0  0  0  0  0  0  0
    1.4164    2.6910   -1.7459 C   0  0  0  0  0  0  0  0  0  0  0  0
    1.5628    2.5171   -2.8077 H   0  0  0  0  0  0  0  0  0  0  0  0
    0.4481   -0.3162    1.1562 C   0  0  0  0  0  0  0  0  0  0  0  0
    1.6112   -0.3906    1.5283 O   0  0  0  0  0  0  0  0  0  0  0  0
   -0.4701    0.3147    1.9816 N   0  0  0  0  0  0  0  0  0  0  0  0
   -1.4394    0.2383    1.6880 H   0  0  0  0  0  0  0  0  0  0  0  0
   -0.1967    0.5861    3.3884 C   0  0  0  0  0  0  0  0  0  0  0  0
    0.6850    1.2271    3.4943 H   0  0  0  0  0  0  0  0  0  0  0  0
   -1.0489    1.0957    3.8482 H   0  0  0  0  0  0  0  0  0  0  0  0
   -0.0176   -0.3494    3.9291 H   0  0  0  0  0  0  0  0  0  0  0  0
  1  2  1  0  0  0  0
  2  3  1  0  0  0  0
  2  4  1  0  0  0  0
  2  5  1  0  0  0  0
  5  6  2  0  0  0  0
  5  7  1  0  0  0  0
  7  8  1  0  0  0  0
  7  9  1  0  0  0  0
  9 10  1  0  0  0  0
  9 11  1  0  0  0  0
  9 22  1  0  0  0  0
 11 12  1  0  0  0  0
 11 13  1  0  0  0  0
 11 14  1  0  0  0  0
 14 15  1  0  0  0  0
 14 20  2  0  0  0  0
 15 16  1  0  0  0  0
 15 17  1  0  0  0  0
 17 18  1  0  0  0  0
 17 19  2  0  0  0  0
 19 20  1  0  0  0  0
 20 21  1  0  0  0  0
 22 23  2  0  0  0  0
 22 24  1  0  0  0  0
 24 25  1  0  0  0  0
 24 26  1  0  0  0  0
 26 27  1  0  0  0  0
 26 28  1  0  0  0  0
 26 29  1  0  0  0  0
M  END
$$$$

  -OEChem-03222214043D

 29 29  0     1  0  0  0  0  0999 V2000
   -3.1860   -3.9385    0.5052 H   0  0  0  0  0  0  0  0  0  0  0  0
   -3.0537   -2.9993   -0.0398 C   0  0  0  0  0  0  0  0  0  0  0  0
   -3.8118   -2.2882    0.2971 H   0  0  0  0  0  0  0  0  0  0  0  0
   -3.1903   -3.1913   -1.1067 H   0  0  0  0  0  0  0  0  0  0  0  0
   -1.6662   -2.4405    0.2142 C   0  0  0  0  0  0  0  0  0  0  0  0
   -0.9076   -3.0231    0.9667 O   0  0  0  0  0  0  0  0  0  0  0  0
   -1.2730   -1.2701   -0.4071 N   0  0  0  0  0  0  0  0  0  0  0  0
   -1.9240   -0.8720   -1.0774 H   0  0  0  0  0  0  0  0  0  0  0  0
    0.0823   -0.6840   -0.3103 C   0  0  1  0  0  0  0  0  0  0  0  0
    0.8096   -1.4387   -0.6303 H   0  0  0  0  0  0  0  0  0  0  0  0
    0.1712    0.5013   -1.3185 C   0  0  0  0  0  0  0  0  0  0  0  0
    0.7073    0.1413   -2.2029 H   0  0  0  0  0  0  0  0  0  0  0  0
   -0.8421    0.7511   -1.6478 H   0  0  0  0  0  0  0  0  0  0  0  0
    0.7978    1.8189   -0.8980 C   0  0  0  0  0  0  0  0  0  0  0  0
    1.1185    2.3417    0.3381 N   0  0  0  0  0  0  0  0  0  0  0  0
    1.0978    1.8292    1.2224 H   0  0  0  0  0  0  0  0  0  0  0  0
    1.6715    3.5948    0.1685 C   0  0  0  0  0  0  0  0  0  0  0  0
    2.0402    4.2283    0.9701 H   0  0  0  0  0  0  0  0  0  0  0  0
    1.6910    3.9070   -1.1041 N   0  0  0  0  0  0  0  0  0  0  0  0
    1.1606    2.8109   -1.7740 C   0  0  0  0  0  0  0  0  0  0  0  0
    1.0455    2.7510   -2.8523 H   0  0  0  0  0  0  0  0  0  0  0  0
    0.4494   -0.3512    1.1555 C   0  0  0  0  0  0  0  0  0  0  0  0
    1.6124   -0.4026    1.5339 O   0  0  0  0  0  0  0  0  0  0  0  0
   -0.4716    0.2811    1.9749 N   0  0  0  0  0  0  0  0  0  0  0  0
   -1.4367    0.2464    1.6616 H   0  0  0  0  0  0  0  0  0  0  0  0
   -0.2085    0.5793    3.3781 C   0  0  0  0  0  0  0  0  0  0  0  0
    0.6400    1.2644    3.4756 H   0  0  0  0  0  0  0  0  0  0  0  0
   -1.0843    1.0500    3.8348 H   0  0  0  0  0  0  0  0  0  0  0  0
    0.0174   -0.3410    3.9275 H   0  0  0  0  0  0  0  0  0  0  0  0
  1  2  1  0  0  0  0
  2  3  1  0  0  0  0
  2  4  1  0  0  0  0
  2  5  1  0  0  0  0
  5  6  2  0  0  0  0
  5  7  1  0  0  0  0
  7  8  1  0  0  0  0
  7  9  1  0  0  0  0
  9 10  1  0  0  0  0
  9 11  1  0  0  0  0
  9 22  1  0  0  0  0
 11 12  1  0  0  0  0
 11 13  1  0  0  0  0
 11 14  1  0  0  0  0
 14 15  1  0  0  0  0
 14 20  2  0  0  0  0
 15 16  1  0  0  0  0
 15 17  1  0  0  0  0
 17 18  1  0  0  0  0
 17 19  2  0  0  0  0
 19 20  1  0  0  0  0
 20 21  1  0  0  0  0
 22 23  2  0  0  0  0
 22 24  1  0  0  0  0
 24 25  1  0  0  0  0
 24 26  1  0  0  0  0
 26 27  1  0  0  0  0
 26 28  1  0  0  0  0
 26 29  1  0  0  0  0
M  END
$$$$

  -OEChem-03222214043D

 29 29  0     1  0  0  0  0  0999 V2000
   -3.2094   -3.9168    0.5300 H   0  0  0  0  0  0  0  0  0  0  0  0
   -3.0719   -2.9807   -0.0189 C   0  0  0  0  0  0  0  0  0  0  0  0
   -3.8100   -2.2561    0.3328 H   0  0  0  0  0  0  0  0  0  0  0  0
   -3.2341   -3.1714   -1.0825 H   0  0  0  0  0  0  0  0  0  0  0  0
   -1.6700   -2.4463    0.2059 C   0  0  0  0  0  0  0  0  0  0  0  0
   -0.9033   -3.0476    0.9354 O   0  0  0  0  0  0  0  0  0  0  0  0
   -1.2708   -1.2798   -0.4191 N   0  0  0  0  0  0  0  0  0  0  0  0
   -1.9341   -0.8577   -1.0619 H   0  0  0  0  0  0  0  0  0  0  0  0
    0.0892   -0.7039   -0.3282 C   0  0  1  0  0  0  0  0  0  0  0  0
    0.8113   -1.4624   -0.6515 H   0  0  0  0  0  0  0  0  0  0  0  0
    0.1803    0.4869   -1.3309 C   0  0  0  0  0  0  0  0  0  0  0  0
    0.7240    0.1265   -2.2105 H   0  0  0  0  0  0  0  0  0  0  0  0
   -0.8295    0.7393   -1.6691 H   0  0  0  0  0  0  0  0  0  0  0  0
    0.8202    1.7981   -0.9080 C   0  0  0  0  0  0  0  0  0  0  0  0
    1.3952    2.2058    0.2783 N   0  0  0  0  0  0  0  0  0  0  0  0
    1.5959    1.5996    1.0793 H   0  0  0  0  0  0  0  0  0  0  0  0
    1.8085    3.5164    0.1557 C   0  0  0  0  0  0  0  0  0  0  0  0
    2.3145    4.0873    0.9289 H   0  0  0  0  0  0  0  0  0  0  0  0
    1.5036    3.9702   -1.0355 N   0  0  0  0  0  0  0  0  0  0  0  0
    0.8944    2.9140   -1.7032 C   0  0  0  0  0  0  0  0  0  0  0  0
    0.5206    2.9696   -2.7214 H   0  0  0  0  0  0  0  0  0  0  0  0
    0.4546   -0.3747    1.1396 C   0  0  0  0  0  0  0  0  0  0  0  0
    1.6196   -0.4260    1.5169 O   0  0  0  0  0  0  0  0  0  0  0  0
   -0.4640    0.2631    1.9562 N   0  0  0  0  0  0  0  0  0  0  0  0
   -1.4246    0.2746    1.6295 H   0  0  0  0  0  0  0  0  0  0  0  0
   -0.1899    0.6255    3.3413 C   0  0  0  0  0  0  0  0  0  0  0  0
    0.6244    1.3556    3.3941 H   0  0  0  0  0  0  0  0  0  0  0  0
   -1.0793    1.0689    3.7991 H   0  0  0  0  0  0  0  0  0  0  0  0
    0.0925   -0.2609    3.9194 H   0  0  0  0  0  0  0  0  0  0  0  0
  1  2  1  0  0  0  0
  2  3  1  0  0  0  0
  2  4  1  0  0  0  0
  2  5  1  0  0  0  0
  5  6  2  0  0  0  0
  5  7  1  0  0  0  0
  7  8  1  0  0  0  0
  7  9  1  0  0  0  0
  9 10  1  0  0  0  0
  9 11  1  0  0  0  0
  9 22  1  0  0  0  0
 11 12  1  0  0  0  0
 11 13  1  0  0  0  0
 11 14  1  0  0  0  0
 14 15  1  0  0  0  0
 14 20  2  0  0  0  0
 15 16  1  0  0  0  0
 15 17  1  0  0  0  0
 17 18  1  0  0  0  0
 17 19  2  0  0  0  0
 19 20  1  0  0  0  0
 20 21  1  0  0  0  0
 22 23  2  0  0  0  0
 22 24  1  0  0  0  0
 24 25  1  0  0  0  0
 24 26  1  0  0  0  0
 26 27  1  0  0  0  0
 26 28  1  0  0  0  0
 26 29  1  0  0  0  0
M  END
$$$$

  -OEChem-03222214043D

 29 29  0     1  0  0  0  0  0999 V2000
   -3.2152   -3.9090    0.5480 H   0  0  0  0  0  0  0  0  0  0  0  0
   -3.0802   -2.9702    0.0030 C   0  0  0  0  0  0  0  0  0  0  0  0
   -3.8010   -2.2397    0.3775 H   0  0  0  0  0  0  0  0  0  0  0  0
   -3.2690   -3.1505   -1.0579 H   0  0  0  0  0  0  0  0  0  0  0  0
   -1.6677   -2.4531    0.1984 C   0  0  0  0  0  0  0  0  0  0  0  0
   -0.8910   -3.0654    0.9080 O   0  0  0  0  0  0  0  0  0  0  0  0
   -1.2695   -1.2904   -0.4333 N   0  0  0  0  0  0  0  0  0  0  0  0
   -1.9452   -0.8523   -1.0518 H   0  0  0  0  0  0  0  0  0  0  0  0
    0.0894   -0.7133   -0.3455 C   0  0  1  0  0  0  0  0  0  0  0  0
    0.8103   -1.4737   -0.6664 H   0  0  0  0  0  0  0  0  0  0  0  0
    0.1764    0.4696   -1.3566 C   0  0  0  0  0  0  0  0  0  0  0  0
    0.7366    0.1057   -2.2242 H   0  0  0  0  0  0  0  0  0  0  0  0
   -0.8293    0.7119   -1.7140 H   0  0  0  0  0  0  0  0  0  0  0  0
    0.8145    1.7791   -0.9296 C   0  0  0  0  0  0  0  0  0  0  0  0
    1.6144    2.0912    0.1503 N   0  0  0  0  0  0  0  0  0  0  0  0
    1.9565    1.4250    0.8509 H   0  0  0  0  0  0  0  0  0  0  0  0
    1.9119    3.4380    0.1204 C   0  0  0  0  0  0  0  0  0  0  0  0
    2.5317    3.9578    0.8454 H   0  0  0  0  0  0  0  0  0  0  0  0
    1.3325    3.9985   -0.9138 N   0  0  0  0  0  0  0  0  0  0  0  0
    0.6510    2.9805   -1.5712 C   0  0  0  0  0  0  0  0  0  0  0  0
    0.0601    3.1221   -2.4713 H   0  0  0  0  0  0  0  0  0  0  0  0
    0.4642   -0.3715    1.1172 C   0  0  0  0  0  0  0  0  0  0  0  0
    1.6305   -0.4481    1.4900 O   0  0  0  0  0  0  0  0  0  0  0  0
   -0.4460    0.2738    1.9364 N   0  0  0  0  0  0  0  0  0  0  0  0
   -1.4027    0.3281    1.6032 H   0  0  0  0  0  0  0  0  0  0  0  0
   -0.1478    0.6905    3.3007 C   0  0  0  0  0  0  0  0  0  0  0  0
    0.6357    1.4551    3.3050 H   0  0  0  0  0  0  0  0  0  0  0  0
   -1.0421    1.1095    3.7718 H   0  0  0  0  0  0  0  0  0  0  0  0
    0.1889   -0.1643    3.8969 H   0  0  0  0  0  0  0  0  0  0  0  0
  1  2  1  0  0  0  0
  2  3  1  0  0  0  0
  2  4  1  0  0  0  0
  2  5  1  0  0  0  0
  5  6  2  0  0  0  0
  5  7  1  0  0  0  0
  7  8  1  0  0  0  0
  7  9  1  0  0  0  0
  9 10  1  0  0  0  0
  9 11  1  0  0  0  0
  9 22  1  0  0  0  0
 11 12  1  0  0  0  0
 11 13  1  0  0  0  0
 11 14  1  0  0  0  0
 14 15  1  0  0  0  0
 14 20  2  0  0  0  0
 15 16  1  0  0  0  0
 15 17  1  0  0  0  0
 17 18  1  0  0  0  0
 17 19  2  0  0  0  0
 19 20  1  0  0  0  0
 20 21  1  0  0  0  0
 22 23  2  0  0  0  0
 22 24  1  0  0  0  0
 24 25  1  0  0  0  0
 24 26  1  0  0  0  0
 26 27  1  0  0  0  0
 26 28  1  0  0  0  0
 26 29  1  0  0  0  0
M  END
$$$$

  -OEChem-03222214043D

 29 29  0     1  0  0  0  0  0999 V2000
   -3.1939   -3.9235    0.5714 H   0  0  0  0  0  0  0  0  0  0  0  0
   -3.0725   -2.9870    0.0197 C   0  0  0  0  0  0  0  0  0  0  0  0
   -3.7946   -2.2600    0.3985 H   0  0  0  0  0  0  0  0  0  0  0  0
   -3.2729   -3.1747   -1.0379 H   0  0  0  0  0  0  0  0  0  0  0  0
   -1.6613   -2.4587    0.1966 C   0  0  0  0  0  0  0  0  0  0  0  0
   -0.8724   -3.0627    0.8999 O   0  0  0  0  0  0  0  0  0  0  0  0
   -1.2770   -1.2970   -0.4454 N   0  0  0  0  0  0  0  0  0  0  0  0
   -1.9623   -0.8632   -1.0563 H   0  0  0  0  0  0  0  0  0  0  0  0
    0.0760   -0.7071   -0.3639 C   0  0  1  0  0  0  0  0  0  0  0  0
    0.7985   -1.4673   -0.6818 H   0  0  0  0  0  0  0  0  0  0  0  0
    0.1545    0.4635   -1.3877 C   0  0  0  0  0  0  0  0  0  0  0  0
    0.7264    0.1009   -2.2480 H   0  0  0  0  0  0  0  0  0  0  0  0
   -0.8503    0.6956   -1.7544 H   0  0  0  0  0  0  0  0  0  0  0  0
    0.7839    1.7706   -0.9476 C   0  0  0  0  0  0  0  0  0  0  0  0
    1.7800    2.0081   -0.0238 N   0  0  0  0  0  0  0  0  0  0  0  0
    2.2251    1.2990    0.5683 H   0  0  0  0  0  0  0  0  0  0  0  0
    1.9986    3.3677    0.0617 C   0  0  0  0  0  0  0  0  0  0  0  0
    2.7195    3.8447    0.7195 H   0  0  0  0  0  0  0  0  0  0  0  0
    1.1999    4.0010   -0.7639 N   0  0  0  0  0  0  0  0  0  0  0  0
    0.4428    3.0210   -1.3956 C   0  0  0  0  0  0  0  0  0  0  0  0
   -0.3230    3.2226   -2.1385 H   0  0  0  0  0  0  0  0  0  0  0  0
    0.4700   -0.3429    1.0887 C   0  0  0  0  0  0  0  0  0  0  0  0
    1.6401   -0.4378    1.4480 O   0  0  0  0  0  0  0  0  0  0  0  0
   -0.4290    0.3070    1.9163 N   0  0  0  0  0  0  0  0  0  0  0  0
   -1.3846    0.3880    1.5860 H   0  0  0  0  0  0  0  0  0  0  0  0
   -0.1024    0.7608    3.2619 C   0  0  0  0  0  0  0  0  0  0  0  0
    0.6777    1.5285    3.2283 H   0  0  0  0  0  0  0  0  0  0  0  0
   -0.9877    1.1884    3.7417 H   0  0  0  0  0  0  0  0  0  0  0  0
    0.2512   -0.0766    3.8728 H   0  0  0  0  0  0  0  0  0  0  0  0
  1  2  1  0  0  0  0
  2  3  1  0  0  0  0
  2  4  1  0  0  0  0
  2  5  1  0  0  0  0
  5  6  2  0  0  0  0
  5  7  1  0  0  0  0
  7  8  1  0  0  0  0
  7  9  1  0  0  0  0
  9 10  1  0  0  0  0
  9 11  1  0  0  0  0
  9 22  1  0  0  0  0
 11 12  1  0  0  0  0
 11 13  1  0  0  0  0
 11 14  1  0  0  0  0
 14 15  1  0  0  0  0
 14 20  2  0  0  0  0
 15 16  1  0  0  0  0
 15 17  1  0  0  0  0
 17 18  1  0  0  0  0
 17 19  2  0  0  0  0
 19 20  1  0  0  0  0
 20 21  1  0  0  0  0
 22 23  2  0  0  0  0
 22 24  1  0  0  0  0
 24 25  1  0  0  0  0
 24 26  1  0  0  0  0
 26 27  1  0  0  0  0
 26 28  1  0  0  0  0
 26 29  1  0  0  0  0
M  END
$$$$

  -OEChem-03222214043D

 29 29  0     1  0  0  0  0  0999 V2000
   -3.1586   -3.9494    0.5921 H   0  0  0  0  0  0  0  0  0  0  0  0
   -3.0533   -3.0147    0.0341 C   0  0  0  0  0  0  0  0  0  0  0  0
   -3.7798   -2.2937    0.4166 H   0  0  0  0  0  0  0  0  0  0  0  0
   -3.2624   -3.2102   -1.0204 H   0  0  0  0  0  0  0  0  0  0  0  0
   -1.6466   -2.4692    0.1927 C   0  0  0  0  0  0  0  0  0  0  0  0
   -0.8419   -3.0608    0.8886 O   0  0  0  0  0  0  0  0  0  0  0  0
   -1.2849   -1.3048   -0.4570 N   0  0  0  0  0  0  0  0  0  0  0  0
   -1.9834   -0.8791   -1.0583 H   0  0  0  0  0  0  0  0  0  0  0  0
    0.0580   -0.6931   -0.3832 C   0  0  1  0  0  0  0  0  0  0  0  0
    0.7860   -1.4483   -0.7002 H   0  0  0  0  0  0  0  0  0  0  0  0
    0.1246    0.4674   -1.4162 C   0  0  0  0  0  0  0  0  0  0  0  0
    0.7040    0.1139   -2.2752 H   0  0  0  0  0  0  0  0  0  0  0  0
   -0.8818    0.6907   -1.7839 H   0  0  0  0  0  0  0  0  0  0  0  0
    0.7403    1.7684   -0.9506 C   0  0  0  0  0  0  0  0  0  0  0  0
    1.8974    1.9627   -0.2268 N   0  0  0  0  0  0  0  0  0  0  0  0
    2.4399    1.2257    0.2334 H   0  0  0  0  0  0  0  0  0  0  0  0
    2.0660    3.3167   -0.0172 C   0  0  0  0  0  0  0  0  0  0  0  0
    2.8778    3.7640    0.5492 H   0  0  0  0  0  0  0  0  0  0  0  0
    1.0944    3.9849   -0.5926 N   0  0  0  0  0  0  0  0  0  0  0  0
    0.2663    3.0343   -1.1780 C   0  0  0  0  0  0  0  0  0  0  0  0
   -0.6372    3.2659   -1.7336 H   0  0  0  0  0  0  0  0  0  0  0  0
    0.4719   -0.3071    1.0584 C   0  0  0  0  0  0  0  0  0  0  0  0
    1.6476   -0.4026    1.3998 O   0  0  0  0  0  0  0  0  0  0  0  0
   -0.4206    0.3393    1.8952 N   0  0  0  0  0  0  0  0  0  0  0  0
   -1.3780    0.4269    1.5724 H   0  0  0  0  0  0  0  0  0  0  0  0
   -0.0699    0.8298    3.2213 C   0  0  0  0  0  0  0  0  0  0  0  0
    0.7080    1.5973    3.1522 H   0  0  0  0  0  0  0  0  0  0  0  0
   -0.9466    1.2694    3.7060 H   0  0  0  0  0  0  0  0  0  0  0  0
    0.2968    0.0096    3.8476 H   0  0  0  0  0  0  0  0  0  0  0  0
  1  2  1  0  0  0  0
  2  3  1  0  0  0  0
  2  4  1  0  0  0  0
  2  5  1  0  0  0  0
  5  6  2  0  0  0  0
  5  7  1  0  0  0  0
  7  8  1  0  0  0  0
  7  9  1  0  0  0  0
  9 10  1  0  0  0  0
  9 11  1  0  0  0  0
  9 22  1  0  0  0  0
 11 12  1  0  0  0  0
 11 13  1  0  0  0  0
 11 14  1  0  0  0  0
 14 15  1  0  0  0  0
 14 20  2  0  0  0  0
 15 16  1  0  0  0  0
 15 17  1  0  0  0  0
 17 18  1  0  0  0  0
 17 19  2  0  0  0  0
 19 20  1  0  0  0  0
 20 21  1  0  0  0  0
 22 23  2  0  0  0  0
 22 24  1  0  0  0  0
 24 25  1  0  0  0  0
 24 26  1  0  0  0  0
 26 27  1  0  0  0  0
 26 28  1  0  0  0  0
 26 29  1  0  0  0  0
M  END
$$$$

  -OEChem-03222214043D

 29 29  0     1  0  0  0  0  0999 V2000
   -3.1261   -3.9825    0.5920 H   0  0  0  0  0  0  0  0  0  0  0  0
   -3.0367   -3.0475    0.0314 C   0  0  0  0  0  0  0  0  0  0  0  0
   -3.7753   -2.3381    0.4119 H   0  0  0  0  0  0  0  0  0  0  0  0
   -3.2421   -3.2495   -1.0225 H   0  0  0  0  0  0  0  0  0  0  0  0
   -1.6395   -2.4776    0.1891 C   0  0  0  0  0  0  0  0  0  0  0  0
   -0.8249   -3.0540    0.8864 O   0  0  0  0  0  0  0  0  0  0  0  0
   -1.2968   -1.3097   -0.4644 N   0  0  0  0  0  0  0  0  0  0  0  0
   -2.0023   -0.8961   -1.0658 H   0  0  0  0  0  0  0  0  0  0  0  0
    0.0368   -0.6785   -0.3946 C   0  0  1  0  0  0  0  0  0  0  0  0
    0.7702   -1.4289   -0.7108 H   0  0  0  0  0  0  0  0  0  0  0  0
    0.0963    0.4732   -1.4342 C   0  0  0  0  0  0  0  0  0  0  0  0
    0.6791    0.1296   -2.2949 H   0  0  0  0  0  0  0  0  0  0  0  0
   -0.9119    0.6923   -1.7993 H   0  0  0  0  0  0  0  0  0  0  0  0
    0.6996    1.7659   -0.9397 C   0  0  0  0  0  0  0  0  0  0  0  0
    1.9711    1.9666   -0.4487 N   0  0  0  0  0  0  0  0  0  0  0  0
    2.6218    1.2293   -0.1708 H   0  0  0  0  0  0  0  0  0  0  0  0
    2.1057    3.3009   -0.1182 C   0  0  0  0  0  0  0  0  0  0  0  0
    2.9899    3.7464    0.3286 H   0  0  0  0  0  0  0  0  0  0  0  0
    1.0049    3.9527   -0.4121 N   0  0  0  0  0  0  0  0  0  0  0  0
    0.1246    3.0095   -0.9286 C   0  0  0  0  0  0  0  0  0  0  0  0
   -0.8818    3.2297   -1.2716 H   0  0  0  0  0  0  0  0  0  0  0  0
    0.4690   -0.2744    1.0370 C   0  0  0  0  0  0  0  0  0  0  0  0
    1.6502   -0.3630    1.3594 O   0  0  0  0  0  0  0  0  0  0  0  0
   -0.4162    0.3683    1.8845 N   0  0  0  0  0  0  0  0  0  0  0  0
   -1.3783    0.4510    1.5754 H   0  0  0  0  0  0  0  0  0  0  0  0
   -0.0404    0.8928    3.1907 C   0  0  0  0  0  0  0  0  0  0  0  0
    0.7264    1.6674    3.0850 H   0  0  0  0  0  0  0  0  0  0  0  0
   -0.9104    1.3333    3.6867 H   0  0  0  0  0  0  0  0  0  0  0  0
    0.3515    0.0919    3.8265 H   0  0  0  0  0  0  0  0  0  0  0  0
  1  2  1  0  0  0  0
  2  3  1  0  0  0  0
  2  4  1  0  0  0  0
  2  5  1  0  0  0  0
  5  6  2  0  0  0  0
  5  7  1  0  0  0  0
  7  8  1  0  0  0  0
  7  9  1  0  0  0  0
  9 10  1  0  0  0  0
  9 11  1  0  0  0  0
  9 22  1  0  0  0  0
 11 12  1  0  0  0  0
 11 13  1  0  0  0  0
 11 14  1  0  0  0  0
 14 15  1  0  0  0  0
 14 20  2  0  0  0  0
 15 16  1  0  0  0  0
 15 17  1  0  0  0  0
 17 18  1  0  0  0  0
 17 19  2  0  0  0  0
 19 20  1  0  0  0  0
 20 21  1  0  0  0  0
 22 23  2  0  0  0  0
 22 24  1  0  0  0  0
 24 25  1  0  0  0  0
 24 26  1  0  0  0  0
 26 27  1  0  0  0  0
 26 28  1  0  0  0  0
 26 29  1  0  0  0  0
M  END
$$$$

  -OEChem-03222214043D

 29 29  0     1  0  0  0  0  0999 V2000
   -3.1041   -4.0049    0.5918 H   0  0  0  0  0  0  0  0  0  0  0  0
   -3.0249   -3.0703    0.0288 C   0  0  0  0  0  0  0  0  0  0  0  0
   -3.7720   -2.3682    0.4063 H   0  0  0  0  0  0  0  0  0  0  0  0
   -3.2264   -3.2775   -1.0250 H   0  0  0  0  0  0  0  0  0  0  0  0
   -1.6348   -2.4841    0.1867 C   0  0  0  0  0  0  0  0  0  0  0  0
   -0.8132   -3.0518    0.8826 O   0  0  0  0  0  0  0  0  0  0  0  0
   -1.3056   -1.3130   -0.4675 N   0  0  0  0  0  0  0  0  0  0  0  0
   -2.0169   -0.9047   -1.0658 H   0  0  0  0  0  0  0  0  0  0  0  0
    0.0224   -0.6709   -0.3999 C   0  0  1  0  0  0  0  0  0  0  0  0
    0.7593   -1.4175   -0.7170 H   0  0  0  0  0  0  0  0  0  0  0  0
    0.0780    0.4797   -1.4386 C   0  0  0  0  0  0  0  0  0  0  0  0
    0.6553    0.1460   -2.3067 H   0  0  0  0  0  0  0  0  0  0  0  0
   -0.9330    0.7011   -1.7943 H   0  0  0  0  0  0  0  0  0  0  0  0
    0.6758    1.7638   -0.9217 C   0  0  0  0  0  0  0  0  0  0  0  0
    2.0060    2.0295   -0.6863 N   0  0  0  0  0  0  0  0  0  0  0  0
    2.7564    1.3396   -0.6601 H   0  0  0  0  0  0  0  0  0  0  0  0
    2.1156    3.3330   -0.2415 C   0  0  0  0  0  0  0  0  0  0  0  0
    3.0421    3.8110    0.0632 H   0  0  0  0  0  0  0  0  0  0  0  0
    0.9369    3.9104   -0.2342 N   0  0  0  0  0  0  0  0  0  0  0  0
    0.0331    2.9454   -0.6615 C   0  0  0  0  0  0  0  0  0  0  0  0
   -1.0349    3.1075   -0.7720 H   0  0  0  0  0  0  0  0  0  0  0  0
    0.4634   -0.2602    1.0272 C   0  0  0  0  0  0  0  0  0  0  0  0
    1.6466   -0.3428    1.3405 O   0  0  0  0  0  0  0  0  0  0  0  0
   -0.4201    0.3781    1.8801 N   0  0  0  0  0  0  0  0  0  0  0  0
   -1.3841    0.4587    1.5768 H   0  0  0  0  0  0  0  0  0  0  0  0
   -0.0297    0.9312    3.1701 C   0  0  0  0  0  0  0  0  0  0  0  0
    0.7262    1.7126    3.0374 H   0  0  0  0  0  0  0  0  0  0  0  0
   -0.8971    1.3708    3.6714 H   0  0  0  0  0  0  0  0  0  0  0  0
    0.3821    0.1469    3.8141 H   0  0  0  0  0  0  0  0  0  0  0  0
  1  2  1  0  0  0  0
  2  3  1  0  0  0  0
  2  4  1  0  0  0  0
  2  5  1  0  0  0  0
  5  6  2  0  0  0  0
  5  7  1  0  0  0  0
  7  8  1  0  0  0  0
  7  9  1  0  0  0  0
  9 10  1  0  0  0  0
  9 11  1  0  0  0  0
  9 22  1  0  0  0  0
 11 12  1  0  0  0  0
 11 13  1  0  0  0  0
 11 14  1  0  0  0  0
 14 15  1  0  0  0  0
 14 20  2  0  0  0  0
 15 16  1  0  0  0  0
 15 17  1  0  0  0  0
 17 18  1  0  0  0  0
 17 19  2  0  0  0  0
 19 20  1  0  0  0  0
 20 21  1  0  0  0  0
 22 23  2  0  0  0  0
 22 24  1  0  0  0  0
 24 25  1  0  0  0  0
 24 26  1  0  0  0  0
 26 27  1  0  0  0  0
 26 28  1  0  0  0  0
 26 29  1  0  0  0  0
M  END
$$$$

  -OEChem-03222214043D

 29 29  0     1  0  0  0  0  0999 V2000
   -3.0960   -4.0110    0.5919 H   0  0  0  0  0  0  0  0  0  0  0  0
   -3.0193   -3.0758    0.0296 C   0  0  0  0  0  0  0  0  0  0  0  0
   -3.7697   -2.3770    0.4065 H   0  0  0  0  0  0  0  0  0  0  0  0
   -3.2180   -3.2831   -1.0245 H   0  0  0  0  0  0  0  0  0  0  0  0
   -1.6316   -2.4846    0.1907 C   0  0  0  0  0  0  0  0  0  0  0  0
   -0.8096   -3.0502    0.8878 O   0  0  0  0  0  0  0  0  0  0  0  0
   -1.3053   -1.3121   -0.4626 N   0  0  0  0  0  0  0  0  0  0  0  0
   -2.0150   -0.9103   -1.0670 H   0  0  0  0  0  0  0  0  0  0  0  0
    0.0215   -0.6663   -0.3957 C   0  0  1  0  0  0  0  0  0  0  0  0
    0.7611   -1.4099   -0.7137 H   0  0  0  0  0  0  0  0  0  0  0  0
    0.0749    0.4860   -1.4322 C   0  0  0  0  0  0  0  0  0  0  0  0
    0.6436    0.1552   -2.3071 H   0  0  0  0  0  0  0  0  0  0  0  0
   -0.9392    0.7103   -1.7775 H   0  0  0  0  0  0  0  0  0  0  0  0
    0.6710    1.7702   -0.9138 C   0  0  0  0  0  0  0  0  0  0  0  0
    1.9942    2.1479   -0.9417 N   0  0  0  0  0  0  0  0  0  0  0  0
    2.7840    1.5510   -1.1812 H   0  0  0  0  0  0  0  0  0  0  0  0
    2.0944    3.4196   -0.4098 C   0  0  0  0  0  0  0  0  0  0  0  0
    3.0233    3.9654   -0.2710 H   0  0  0  0  0  0  0  0  0  0  0  0
    0.9044    3.8753   -0.0965 N   0  0  0  0  0  0  0  0  0  0  0  0
    0.0095    2.8599   -0.4102 C   0  0  0  0  0  0  0  0  0  0  0  0
   -1.0660    2.9245   -0.2775 H   0  0  0  0  0  0  0  0  0  0  0  0
    0.4603   -0.2567    1.0324 C   0  0  0  0  0  0  0  0  0  0  0  0
    1.6419   -0.3364    1.3485 O   0  0  0  0  0  0  0  0  0  0  0  0
   -0.4279    0.3773    1.8840 N   0  0  0  0  0  0  0  0  0  0  0  0
   -1.3971    0.4292    1.5915 H   0  0  0  0  0  0  0  0  0  0  0  0
   -0.0446    0.9216    3.1799 C   0  0  0  0  0  0  0  0  0  0  0  0
    0.7166    1.6995    3.0572 H   0  0  0  0  0  0  0  0  0  0  0  0
   -0.9133    1.3639    3.6765 H   0  0  0  0  0  0  0  0  0  0  0  0
    0.3574    0.1318    3.8232 H   0  0  0  0  0  0  0  0  0  0  0  0
  1  2  1  0  0  0  0
  2  3  1  0  0  0  0
  2  4  1  0  0  0  0
  2  5  1  0  0  0  0
  5  6  2  0  0  0  0
  5  7  1  0  0  0  0
  7  8  1  0  0  0  0
  7  9  1  0  0  0  0
  9 10  1  0  0  0  0
  9 11  1  0  0  0  0
  9 22  1  0  0  0  0
 11 12  1  0  0  0  0
 11 13  1  0  0  0  0
 11 14  1  0  0  0  0
 14 15  1  0  0  0  0
 14 20  2  0  0  0  0
 15 16  1  0  0  0  0
 15 17  1  0  0  0  0
 17 18  1  0  0  0  0
 17 19  2  0  0  0  0
 19 20  1  0  0  0  0
 20 21  1  0  0  0  0
 22 23  2  0  0  0  0
 22 24  1  0  0  0  0
 24 25  1  0  0  0  0
 24 26  1  0  0  0  0
 26 27  1  0  0  0  0
 26 28  1  0  0  0  0
 26 29  1  0  0  0  0
M  END
$$$$

  -OEChem-03222214043D

 29 29  0     1  0  0  0  0  0999 V2000
   -3.0959   -4.0092    0.5841 H   0  0  0  0  0  0  0  0  0  0  0  0
   -3.0178   -3.0700    0.0287 C   0  0  0  0  0  0  0  0  0  0  0  0
   -3.7639   -2.3712    0.4141 H   0  0  0  0  0  0  0  0  0  0  0  0
   -3.2222   -3.2685   -1.0260 H   0  0  0  0  0  0  0  0  0  0  0  0
   -1.6269   -2.4855    0.1882 C   0  0  0  0  0  0  0  0  0  0  0  0
   -0.8051   -3.0591    0.8786 O   0  0  0  0  0  0  0  0  0  0  0  0
   -1.2997   -1.3071   -0.4542 N   0  0  0  0  0  0  0  0  0  0  0  0
   -2.0119   -0.8957   -1.0491 H   0  0  0  0  0  0  0  0  0  0  0  0
    0.0257   -0.6589   -0.3788 C   0  0  1  0  0  0  0  0  0  0  0  0
    0.7664   -1.4027   -0.6938 H   0  0  0  0  0  0  0  0  0  0  0  0
    0.0884    0.4914   -1.4176 C   0  0  0  0  0  0  0  0  0  0  0  0
    0.6611    0.1531   -2.2869 H   0  0  0  0  0  0  0  0  0  0  0  0
   -0.9232    0.7128   -1.7718 H   0  0  0  0  0  0  0  0  0  0  0  0
    0.6774    1.7867   -0.9155 C   0  0  0  0  0  0  0  0  0  0  0  0
    1.9271    2.2961   -1.1886 N   0  0  0  0  0  0  0  0  0  0  0  0
    2.6868    1.8080   -1.6588 H   0  0  0  0  0  0  0  0  0  0  0  0
    2.0278    3.5441   -0.6026 C   0  0  0  0  0  0  0  0  0  0  0  0
    2.9128    4.1736   -0.6250 H   0  0  0  0  0  0  0  0  0  0  0  0
    0.8976    3.8634   -0.0186 N   0  0  0  0  0  0  0  0  0  0  0  0
    0.0478    2.7814   -0.2117 C   0  0  0  0  0  0  0  0  0  0  0  0
   -0.9798    2.7380    0.1358 H   0  0  0  0  0  0  0  0  0  0  0  0
    0.4568   -0.2610    1.0545 C   0  0  0  0  0  0  0  0  0  0  0  0
    1.6359   -0.3412    1.3771 O   0  0  0  0  0  0  0  0  0  0  0  0
   -0.4370    0.3627    1.9083 N   0  0  0  0  0  0  0  0  0  0  0  0
   -1.4110    0.3803    1.6281 H   0  0  0  0  0  0  0  0  0  0  0  0
   -0.0663    0.8679    3.2238 C   0  0  0  0  0  0  0  0  0  0  0  0
    0.7130    1.6322    3.1330 H   0  0  0  0  0  0  0  0  0  0  0  0
   -0.9343    1.3175    3.7155 H   0  0  0  0  0  0  0  0  0  0  0  0
    0.3077    0.0548    3.8548 H   0  0  0  0  0  0  0  0  0  0  0  0
  1  2  1  0  0  0  0
  2  3  1  0  0  0  0
  2  4  1  0  0  0  0
  2  5  1  0  0  0  0
  5  6  2  0  0  0  0
  5  7  1  0  0  0  0
  7  8  1  0  0  0  0
  7  9  1  0  0  0  0
  9 10  1  0  0  0  0
  9 11  1  0  0  0  0
  9 22  1  0  0  0  0
 11 12  1  0  0  0  0
 11 13  1  0  0  0  0
 11 14  1  0  0  0  0
 14 15  1  0  0  0  0
 14 20  2  0  0  0  0
 15 16  1  0  0  0  0
 15 17  1  0  0  0  0
 17 18  1  0  0  0  0
 17 19  2  0  0  0  0
 19 20  1  0  0  0  0
 20 21  1  0  0  0  0
 22 23  2  0  0  0  0
 22 24  1  0  0  0  0
 24 25  1  0  0  0  0
 24 26  1  0  0  0  0
 26 27  1  0  0  0  0
 26 28  1  0  0  0  0
 26 29  1  0  0  0  0
M  END
$$$$

  -OEChem-03222214043D

 29 29  0     1  0  0  0  0  0999 V2000
   -3.0957   -4.0088    0.5616 H   0  0  0  0  0  0  0  0  0  0  0  0
   -3.0159   -3.0624    0.0190 C   0  0  0  0  0  0  0  0  0  0  0  0
   -3.7550   -2.3645    0.4197 H   0  0  0  0  0  0  0  0  0  0  0  0
   -3.2288   -3.2446   -1.0371 H   0  0  0  0  0  0  0  0  0  0  0  0
   -1.6205   -2.4883    0.1770 C   0  0  0  0  0  0  0  0  0  0  0  0
   -0.7966   -3.0776    0.8515 O   0  0  0  0  0  0  0  0  0  0  0  0
   -1.2934   -1.2982   -0.4437 N   0  0  0  0  0  0  0  0  0  0  0  0
   -2.0110   -0.8675   -1.0183 H   0  0  0  0  0  0  0  0  0  0  0  0
    0.0296   -0.6469   -0.3526 C   0  0  1  0  0  0  0  0  0  0  0  0
    0.7717   -1.3907   -0.6647 H   0  0  0  0  0  0  0  0  0  0  0  0
    0.1098    0.5010   -1.3946 C   0  0  0  0  0  0  0  0  0  0  0  0
    0.6981    0.1500   -2.2482 H   0  0  0  0  0  0  0  0  0  0  0  0
   -0.8948    0.7144   -1.7719 H   0  0  0  0  0  0  0  0  0  0  0  0
    0.6871    1.8131   -0.9180 C   0  0  0  0  0  0  0  0  0  0  0  0
    1.8043    2.4481   -1.4148 N   0  0  0  0  0  0  0  0  0  0  0  0
    2.4712    2.0611   -2.0793 H   0  0  0  0  0  0  0  0  0  0  0  0
    1.9270    3.6762   -0.7923 C   0  0  0  0  0  0  0  0  0  0  0  0
    2.7330    4.3844   -0.9622 H   0  0  0  0  0  0  0  0  0  0  0  0
    0.9236    3.8688    0.0288 N   0  0  0  0  0  0  0  0  0  0  0  0
    0.1413    2.7228   -0.0470 C   0  0  0  0  0  0  0  0  0  0  0  0
   -0.7920    2.5838    0.4895 H   0  0  0  0  0  0  0  0  0  0  0  0
    0.4509   -0.2732    1.0892 C   0  0  0  0  0  0  0  0  0  0  0  0
    1.6281   -0.3520    1.4167 O   0  0  0  0  0  0  0  0  0  0  0  0
   -0.4493    0.3314    1.9500 N   0  0  0  0  0  0  0  0  0  0  0  0
   -1.4248    0.3316    1.6737 H   0  0  0  0  0  0  0  0  0  0  0  0
   -0.0897    0.7909    3.2854 C   0  0  0  0  0  0  0  0  0  0  0  0
    0.6976    1.5501    3.2283 H   0  0  0  0  0  0  0  0  0  0  0  0
   -0.9591    1.2326    3.7813 H   0  0  0  0  0  0  0  0  0  0  0  0
    0.2697   -0.0455    3.8941 H   0  0  0  0  0  0  0  0  0  0  0  0
  1  2  1  0  0  0  0
  2  3  1  0  0  0  0
  2  4  1  0  0  0  0
  2  5  1  0  0  0  0
  5  6  2  0  0  0  0
  5  7  1  0  0  0  0
  7  8  1  0  0  0  0
  7  9  1  0  0  0  0
  9 10  1  0  0  0  0
  9 11  1  0  0  0  0
  9 22  1  0  0  0  0
 11 12  1  0  0  0  0
 11 13  1  0  0  0  0
 11 14  1  0  0  0  0
 14 15  1  0  0  0  0
 14 20  2  0  0  0  0
 15 16  1  0  0  0  0
 15 17  1  0  0  0  0
 17 18  1  0  0  0  0
 17 19  2  0  0  0  0
 19 20  1  0  0  0  0
 20 21  1  0  0  0  0
 22 23  2  0  0  0  0
 22 24  1  0  0  0  0
 24 25  1  0  0  0  0
 24 26  1  0  0  0  0
 26 27  1  0  0  0  0
 26 28  1  0  0  0  0
 26 29  1  0  0  0  0
M  END
$$$$

  -OEChem-03222214043D

 29 29  0     1  0  0  0  0  0999 V2000
   -3.0895   -4.0220    0.4993 H   0  0  0  0  0  0  0  0  0  0  0  0
   -3.0107   -3.0626   -0.0201 C   0  0  0  0  0  0  0  0  0  0  0  0
   -3.7581   -2.3791    0.3894 H   0  0  0  0  0  0  0  0  0  0  0  0
   -3.2124   -3.2212   -1.0822 H   0  0  0  0  0  0  0  0  0  0  0  0
   -1.6206   -2.4839    0.1645 C   0  0  0  0  0  0  0  0  0  0  0  0
   -0.7988   -3.0845    0.8315 O   0  0  0  0  0  0  0  0  0  0  0  0
   -1.2957   -1.2768   -0.4238 N   0  0  0  0  0  0  0  0  0  0  0  0
   -2.0151   -0.8308   -0.9844 H   0  0  0  0  0  0  0  0  0  0  0  0
    0.0244   -0.6229   -0.3120 C   0  0  1  0  0  0  0  0  0  0  0  0
    0.7638   -1.3702   -0.6223 H   0  0  0  0  0  0  0  0  0  0  0  0
    0.1303    0.5204   -1.3587 C   0  0  0  0  0  0  0  0  0  0  0  0
    0.7431    0.1497   -2.1867 H   0  0  0  0  0  0  0  0  0  0  0  0
   -0.8630    0.7212   -1.7711 H   0  0  0  0  0  0  0  0  0  0  0  0
    0.6946    1.8555   -0.9217 C   0  0  0  0  0  0  0  0  0  0  0  0
    1.6259    2.5915   -1.6232 N   0  0  0  0  0  0  0  0  0  0  0  0
    2.1413    2.2822   -2.4443 H   0  0  0  0  0  0  0  0  0  0  0  0
    1.8059    3.8060   -0.9892 C   0  0  0  0  0  0  0  0  0  0  0  0
    2.5022    4.5785   -1.3029 H   0  0  0  0  0  0  0  0  0  0  0  0
    1.0058    3.8967    0.0434 N   0  0  0  0  0  0  0  0  0  0  0  0
    0.3035    2.6982    0.0912 C   0  0  0  0  0  0  0  0  0  0  0  0
   -0.4842    2.4921    0.8069 H   0  0  0  0  0  0  0  0  0  0  0  0
    0.4391   -0.2858    1.1397 C   0  0  0  0  0  0  0  0  0  0  0  0
    1.6163   -0.3625    1.4662 O   0  0  0  0  0  0  0  0  0  0  0  0
   -0.4642    0.2913    2.0159 N   0  0  0  0  0  0  0  0  0  0  0  0
   -1.4413    0.2767    1.7451 H   0  0  0  0  0  0  0  0  0  0  0  0
   -0.1123    0.6872    3.3739 C   0  0  0  0  0  0  0  0  0  0  0  0
    0.6812    1.4420    3.3586 H   0  0  0  0  0  0  0  0  0  0  0  0
   -0.9828    1.1129    3.8819 H   0  0  0  0  0  0  0  0  0  0  0  0
    0.2357   -0.1790    3.9466 H   0  0  0  0  0  0  0  0  0  0  0  0
  1  2  1  0  0  0  0
  2  3  1  0  0  0  0
  2  4  1  0  0  0  0
  2  5  1  0  0  0  0
  5  6  2  0  0  0  0
  5  7  1  0  0  0  0
  7  8  1  0  0  0  0
  7  9  1  0  0  0  0
  9 10  1  0  0  0  0
  9 11  1  0  0  0  0
  9 22  1  0  0  0  0
 11 12  1  0  0  0  0
 11 13  1  0  0  0  0
 11 14  1  0  0  0  0
 14 15  1  0  0  0  0
 14 20  2  0  0  0  0
 15 16  1  0  0  0  0
 15 17  1  0  0  0  0
 17 18  1  0  0  0  0
 17 19  2  0  0  0  0
 19 20  1  0  0  0  0
 20 21  1  0  0  0  0
 22 23  2  0  0  0  0
 22 24  1  0  0  0  0
 24 25  1  0  0  0  0
 24 26  1  0  0  0  0
 26 27  1  0  0  0  0
 26 28  1  0  0  0  0
 26 29  1  0  0  0  0
M  END
$$$$

  -OEChem-03222214043D

 29 29  0     1  0  0  0  0  0999 V2000
   -3.0776   -4.0220    0.4487 H   0  0  0  0  0  0  0  0  0  0  0  0
   -2.9981   -3.0512   -0.0491 C   0  0  0  0  0  0  0  0  0  0  0  0
   -3.7510   -2.3795    0.3700 H   0  0  0  0  0  0  0  0  0  0  0  0
   -3.1915   -3.1873   -1.1157 H   0  0  0  0  0  0  0  0  0  0  0  0
   -1.6114   -2.4718    0.1577 C   0  0  0  0  0  0  0  0  0  0  0  0
   -0.7928   -3.0840    0.8181 O   0  0  0  0  0  0  0  0  0  0  0  0
   -1.2867   -1.2516   -0.4040 N   0  0  0  0  0  0  0  0  0  0  0  0
   -2.0034   -0.7994   -0.9633 H   0  0  0  0  0  0  0  0  0  0  0  0
    0.0323   -0.5960   -0.2775 C   0  0  1  0  0  0  0  0  0  0  0  0
    0.7783   -1.3344   -0.5944 H   0  0  0  0  0  0  0  0  0  0  0  0
    0.1375    0.5632   -1.3102 C   0  0  0  0  0  0  0  0  0  0  0  0
    0.7598    0.1879   -2.1290 H   0  0  0  0  0  0  0  0  0  0  0  0
   -0.8541    0.7494   -1.7336 H   0  0  0  0  0  0  0  0  0  0  0  0
    0.6903    1.9221   -0.9187 C   0  0  0  0  0  0  0  0  0  0  0  0
    1.3540    2.7388   -1.8120 N   0  0  0  0  0  0  0  0  0  0  0  0
    1.5955    2.5054   -2.7725 H   0  0  0  0  0  0  0  0  0  0  0  0
    1.6922    3.9202   -1.1822 C   0  0  0  0  0  0  0  0  0  0  0  0
    2.2338    4.7421   -1.6416 H   0  0  0  0  0  0  0  0  0  0  0  0
    1.2569    3.9086    0.0510 N   0  0  0  0  0  0  0  0  0  0  0  0
    0.6384    2.6761    0.2319 C   0  0  0  0  0  0  0  0  0  0  0  0
    0.1534    2.3951    1.1568 H   0  0  0  0  0  0  0  0  0  0  0  0
    0.4178   -0.3007    1.1897 C   0  0  0  0  0  0  0  0  0  0  0  0
    1.5885   -0.3753    1.5375 O   0  0  0  0  0  0  0  0  0  0  0  0
   -0.5088    0.2456    2.0618 N   0  0  0  0  0  0  0  0  0  0  0  0
   -1.4792    0.2220    1.7683 H   0  0  0  0  0  0  0  0  0  0  0  0
   -0.2014    0.5494    3.4542 C   0  0  0  0  0  0  0  0  0  0  0  0
    0.6217    1.2691    3.5173 H   0  0  0  0  0  0  0  0  0  0  0  0
   -1.0754    0.9826    3.9495 H   0  0  0  0  0  0  0  0  0  0  0  0
    0.0860   -0.3620    3.9889 H   0  0  0  0  0  0  0  0  0  0  0  0
  1  2  1  0  0  0  0
  2  3  1  0  0  0  0
  2  4  1  0  0  0  0
  2  5  1  0  0  0  0
  5  6  2  0  0  0  0
  5  7  1  0  0  0  0
  7  8  1  0  0  0  0
  7  9  1  0  0  0  0
  9 10  1  0  0  0  0
  9 11  1  0  0  0  0
  9 22  1  0  0  0  0
 11 12  1  0  0  0  0
 11 13  1  0  0  0  0
 11 14  1  0  0  0  0
 14 15  1  0  0  0  0
 14 20  2  0  0  0  0
 15 16  1  0  0  0  0
 15 17  1  0  0  0  0
 17 18  1  0  0  0  0
 17 19  2  0  0  0  0
 19 20  1  0  0  0  0
 20 21  1  0  0  0  0
 22 23  2  0  0  0  0
 22 24  1  0  0  0  0
 24 25  1  0  0  0  0
 24 26  1  0  0  0  0
 26 27  1  0  0  0  0
 26 28  1  0  0  0  0
 26 29  1  0  0  0  0
M  END
$$$$

  -OEChem-03222214043D

 29 29  0     1  0  0  0  0  0999 V2000
   -3.1200   -3.9746    0.4536 H   0  0  0  0  0  0  0  0  0  0  0  0
   -3.0178   -3.0089   -0.0497 C   0  0  0  0  0  0  0  0  0  0  0  0
   -3.7510   -2.3156    0.3691 H   0  0  0  0  0  0  0  0  0  0  0  0
   -3.2195   -3.1450   -1.1148 H   0  0  0  0  0  0  0  0  0  0  0  0
   -1.6154   -2.4655    0.1474 C   0  0  0  0  0  0  0  0  0  0  0  0
   -0.8047   -3.1030    0.7932 O   0  0  0  0  0  0  0  0  0  0  0  0
   -1.2669   -1.2504   -0.4108 N   0  0  0  0  0  0  0  0  0  0  0  0
   -1.9799   -0.7762   -0.9558 H   0  0  0  0  0  0  0  0  0  0  0  0
    0.0614   -0.6146   -0.2735 C   0  0  1  0  0  0  0  0  0  0  0  0
    0.8095   -1.3453   -0.6025 H   0  0  0  0  0  0  0  0  0  0  0  0
    0.1442    0.5743   -1.2759 C   0  0  0  0  0  0  0  0  0  0  0  0
    0.7450    0.2180   -2.1189 H   0  0  0  0  0  0  0  0  0  0  0  0
   -0.8588    0.7673   -1.6685 H   0  0  0  0  0  0  0  0  0  0  0  0
    0.7008    1.9351   -0.8852 C   0  0  0  0  0  0  0  0  0  0  0  0
    1.0484    2.8687   -1.8417 N   0  0  0  0  0  0  0  0  0  0  0  0
    0.9894    2.7441   -2.8498 H   0  0  0  0  0  0  0  0  0  0  0  0
    1.5242    4.0057   -1.2201 C   0  0  0  0  0  0  0  0  0  0  0  0
    1.8697    4.9011   -1.7290 H   0  0  0  0  0  0  0  0  0  0  0  0
    1.4944    3.8484    0.0771 N   0  0  0  0  0  0  0  0  0  0  0  0
    1.0045    2.5660    0.3029 C   0  0  0  0  0  0  0  0  0  0  0  0
    0.8836    2.1596    1.2982 H   0  0  0  0  0  0  0  0  0  0  0  0
    0.4206   -0.3339    1.2019 C   0  0  0  0  0  0  0  0  0  0  0  0
    1.5774   -0.4521    1.5824 O   0  0  0  0  0  0  0  0  0  0  0  0
   -0.5172    0.2226    2.0563 N   0  0  0  0  0  0  0  0  0  0  0  0
   -1.4755    0.2526    1.7263 H   0  0  0  0  0  0  0  0  0  0  0  0
   -0.2473    0.4911    3.4638 C   0  0  0  0  0  0  0  0  0  0  0  0
    0.5921    1.1866    3.5697 H   0  0  0  0  0  0  0  0  0  0  0  0
   -1.1255    0.9382    3.9391 H   0  0  0  0  0  0  0  0  0  0  0  0
   -0.0025   -0.4383    3.9890 H   0  0  0  0  0  0  0  0  0  0  0  0
  1  2  1  0  0  0  0
  2  3  1  0  0  0  0
  2  4  1  0  0  0  0
  2  5  1  0  0  0  0
  5  6  2  0  0  0  0
  5  7  1  0  0  0  0
  7  8  1  0  0  0  0
  7  9  1  0  0  0  0
  9 10  1  0  0  0  0
  9 11  1  0  0  0  0
  9 22  1  0  0  0  0
 11 12  1  0  0  0  0
 11 13  1  0  0  0  0
 11 14  1  0  0  0  0
 14 15  1  0  0  0  0
 14 20  2  0  0  0  0
 15 16  1  0  0  0  0
 15 17  1  0  0  0  0
 17 18  1  0  0  0  0
 17 19  2  0  0  0  0
 19 20  1  0  0  0  0
 20 21  1  0  0  0  0
 22 23  2  0  0  0  0
 22 24  1  0  0  0  0
 24 25  1  0  0  0  0
 24 26  1  0  0  0  0
 26 27  1  0  0  0  0
 26 28  1  0  0  0  0
 26 29  1  0  0  0  0
M  END
$$$$

  -OEChem-03222214043D

 29 29  0     1  0  0  0  0  0999 V2000
   -3.1865   -3.8956    0.4987 H   0  0  0  0  0  0  0  0  0  0  0  0
   -3.0376   -2.9540   -0.0376 C   0  0  0  0  0  0  0  0  0  0  0  0
   -3.7642   -2.2239    0.3262 H   0  0  0  0  0  0  0  0  0  0  0  0
   -3.2048   -3.1279   -1.1031 H   0  0  0  0  0  0  0  0  0  0  0  0
   -1.6280   -2.4422    0.1919 C   0  0  0  0  0  0  0  0  0  0  0  0
   -0.8680   -3.0706    0.9040 O   0  0  0  0  0  0  0  0  0  0  0  0
   -1.2147   -1.2766   -0.4256 N   0  0  0  0  0  0  0  0  0  0  0  0
   -1.8770   -0.8368   -1.0562 H   0  0  0  0  0  0  0  0  0  0  0  0
    0.1356   -0.6866   -0.2882 C   0  0  1  0  0  0  0  0  0  0  0  0
    0.8906   -1.4153   -0.6046 H   0  0  0  0  0  0  0  0  0  0  0  0
    0.1753    0.5170   -1.2716 C   0  0  0  0  0  0  0  0  0  0  0  0
    0.4584    0.1221   -2.2526 H   0  0  0  0  0  0  0  0  0  0  0  0
   -0.8436    0.9067   -1.3637 H   0  0  0  0  0  0  0  0  0  0  0  0
    1.0360    1.7399   -1.0024 C   0  0  0  0  0  0  0  0  0  0  0  0
    1.0672    2.8076   -1.8777 N   0  0  0  0  0  0  0  0  0  0  0  0
    0.5387    2.8900   -2.7431 H   0  0  0  0  0  0  0  0  0  0  0  0
    1.9495    3.7584   -1.4057 C   0  0  0  0  0  0  0  0  0  0  0  0
    2.1676    4.7069   -1.8880 H   0  0  0  0  0  0  0  0  0  0  0  0
    2.4865    3.3491   -0.2869 N   0  0  0  0  0  0  0  0  0  0  0  0
    1.9466    2.0926   -0.0285 C   0  0  0  0  0  0  0  0  0  0  0  0
    2.2388    1.4984    0.8274 H   0  0  0  0  0  0  0  0  0  0  0  0
    0.4480   -0.3407    1.1859 C   0  0  0  0  0  0  0  0  0  0  0  0
    1.5375   -0.6244    1.6657 O   0  0  0  0  0  0  0  0  0  0  0  0
   -0.4929    0.2995    1.9740 N   0  0  0  0  0  0  0  0  0  0  0  0
   -1.4110    0.4479    1.5708 H   0  0  0  0  0  0  0  0  0  0  0  0
   -0.2786    0.6042    3.3830 C   0  0  0  0  0  0  0  0  0  0  0  0
    0.5836    1.2685    3.5039 H   0  0  0  0  0  0  0  0  0  0  0  0
   -1.1589    1.1017    3.8007 H   0  0  0  0  0  0  0  0  0  0  0  0
   -0.0978   -0.3150    3.9503 H   0  0  0  0  0  0  0  0  0  0  0  0
  1  2  1  0  0  0  0
  2  3  1  0  0  0  0
  2  4  1  0  0  0  0
  2  5  1  0  0  0  0
  5  6  2  0  0  0  0
  5  7  1  0  0  0  0
  7  8  1  0  0  0  0
  7  9  1  0  0  0  0
  9 10  1  0  0  0  0
  9 11  1  0  0  0  0
  9 22  1  0  0  0  0
 11 12  1  0  0  0  0
 11 13  1  0  0  0  0
 11 14  1  0  0  0  0
 14 15  1  0  0  0  0
 14 20  2  0  0  0  0
 15 16  1  0  0  0  0
 15 17  1  0  0  0  0
 17 18  1  0  0  0  0
 17 19  2  0  0  0  0
 19 20  1  0  0  0  0
 20 21  1  0  0  0  0
 22 23  2  0  0  0  0
 22 24  1  0  0  0  0
 24 25  1  0  0  0  0
 24 26  1  0  0  0  0
 26 27  1  0  0  0  0
 26 28  1  0  0  0  0
 26 29  1  0  0  0  0
M  END
$$$$

  -OEChem-03222214043D

 29 29  0     1  0  0  0  0  0999 V2000
   -3.1723   -3.9023    0.5457 H   0  0  0  0  0  0  0  0  0  0  0  0
   -3.0291   -2.9704   -0.0089 C   0  0  0  0  0  0  0  0  0  0  0  0
   -3.7714   -2.2431    0.3284 H   0  0  0  0  0  0  0  0  0  0  0  0
   -3.1782   -3.1696   -1.0727 H   0  0  0  0  0  0  0  0  0  0  0  0
   -1.6301   -2.4341    0.2286 C   0  0  0  0  0  0  0  0  0  0  0  0
   -0.8742   -3.0325    0.9702 O   0  0  0  0  0  0  0  0  0  0  0  0
   -1.2232   -1.2809   -0.4158 N   0  0  0  0  0  0  0  0  0  0  0  0
   -1.8749   -0.8827   -1.0841 H   0  0  0  0  0  0  0  0  0  0  0  0
    0.1280   -0.6871   -0.3048 C   0  0  1  0  0  0  0  0  0  0  0  0
    0.8838   -1.4140   -0.6226 H   0  0  0  0  0  0  0  0  0  0  0  0
    0.1471    0.5162   -1.2881 C   0  0  0  0  0  0  0  0  0  0  0  0
    0.4042    0.1362   -2.2821 H   0  0  0  0  0  0  0  0  0  0  0  0
   -0.8719    0.9112   -1.3482 H   0  0  0  0  0  0  0  0  0  0  0  0
    1.0226    1.7217   -1.0032 C   0  0  0  0  0  0  0  0  0  0  0  0
    0.8727    2.9330   -1.6479 N   0  0  0  0  0  0  0  0  0  0  0  0
    0.1596    3.1650   -2.3353 H   0  0  0  0  0  0  0  0  0  0  0  0
    1.8623    3.7966   -1.2216 C   0  0  0  0  0  0  0  0  0  0  0  0
    1.9822    4.8245   -1.5513 H   0  0  0  0  0  0  0  0  0  0  0  0
    2.6409    3.1930   -0.3622 N   0  0  0  0  0  0  0  0  0  0  0  0
    2.1476    1.8984   -0.2277 C   0  0  0  0  0  0  0  0  0  0  0  0
    2.6270    1.1393    0.3791 H   0  0  0  0  0  0  0  0  0  0  0  0
    0.4509   -0.3134    1.1629 C   0  0  0  0  0  0  0  0  0  0  0  0
    1.5415   -0.5893    1.6445 O   0  0  0  0  0  0  0  0  0  0  0  0
   -0.4863    0.3394    1.9451 N   0  0  0  0  0  0  0  0  0  0  0  0
   -1.4131    0.4561    1.5518 H   0  0  0  0  0  0  0  0  0  0  0  0
   -0.2713    0.6419    3.3543 C   0  0  0  0  0  0  0  0  0  0  0  0
    0.6017    1.2919    3.4771 H   0  0  0  0  0  0  0  0  0  0  0  0
   -1.1442    1.1545    3.7694 H   0  0  0  0  0  0  0  0  0  0  0  0
   -0.1072   -0.2802    3.9221 H   0  0  0  0  0  0  0  0  0  0  0  0
  1  2  1  0  0  0  0
  2  3  1  0  0  0  0
  2  4  1  0  0  0  0
  2  5  1  0  0  0  0
  5  6  2  0  0  0  0
  5  7  1  0  0  0  0
  7  8  1  0  0  0  0
  7  9  1  0  0  0  0
  9 10  1  0  0  0  0
  9 11  1  0  0  0  0
  9 22  1  0  0  0  0
 11 12  1  0  0  0  0
 11 13  1  0  0  0  0
 11 14  1  0  0  0  0
 14 15  1  0  0  0  0
 14 20  2  0  0  0  0
 15 16  1  0  0  0  0
 15 17  1  0  0  0  0
 17 18  1  0  0  0  0
 17 19  2  0  0  0  0
 19 20  1  0  0  0  0
 20 21  1  0  0  0  0
 22 23  2  0  0  0  0
 22 24  1  0  0  0  0
 24 25  1  0  0  0  0
 24 26  1  0  0  0  0
 26 27  1  0  0  0  0
 26 28  1  0  0  0  0
 26 29  1  0  0  0  0
M  END
$$$$

  -OEChem-03222214043D

 29 29  0     1  0  0  0  0  0999 V2000
   -3.1475   -3.9362    0.5719 H   0  0  0  0  0  0  0  0  0  0  0  0
   -3.0218   -3.0075    0.0078 C   0  0  0  0  0  0  0  0  0  0  0  0
   -3.7771   -2.2908    0.3383 H   0  0  0  0  0  0  0  0  0  0  0  0
   -3.1681   -3.2203   -1.0538 H   0  0  0  0  0  0  0  0  0  0  0  0
   -1.6329   -2.4426    0.2393 C   0  0  0  0  0  0  0  0  0  0  0  0
   -0.8686   -3.0156    0.9924 O   0  0  0  0  0  0  0  0  0  0  0  0
   -1.2437   -1.2926   -0.4217 N   0  0  0  0  0  0  0  0  0  0  0  0
   -1.8966   -0.9207   -1.1039 H   0  0  0  0  0  0  0  0  0  0  0  0
    0.1033   -0.6871   -0.3290 C   0  0  1  0  0  0  0  0  0  0  0  0
    0.8591   -1.4138   -0.6474 H   0  0  0  0  0  0  0  0  0  0  0  0
    0.1177    0.5104   -1.3167 C   0  0  0  0  0  0  0  0  0  0  0  0
    0.3768    0.1372   -2.3127 H   0  0  0  0  0  0  0  0  0  0  0  0
   -0.8996    0.9097   -1.3771 H   0  0  0  0  0  0  0  0  0  0  0  0
    1.0073    1.6944   -1.0001 C   0  0  0  0  0  0  0  0  0  0  0  0
    0.7496    3.0000   -1.3642 N   0  0  0  0  0  0  0  0  0  0  0  0
   -0.0775    3.3397   -1.8491 H   0  0  0  0  0  0  0  0  0  0  0  0
    1.8155    3.7893   -0.9766 C   0  0  0  0  0  0  0  0  0  0  0  0
    1.8867    4.8630   -1.1250 H   0  0  0  0  0  0  0  0  0  0  0  0
    2.7350    3.0531   -0.4077 N   0  0  0  0  0  0  0  0  0  0  0  0
    2.2551    1.7465   -0.4221 C   0  0  0  0  0  0  0  0  0  0  0  0
    2.8130    0.8894   -0.0579 H   0  0  0  0  0  0  0  0  0  0  0  0
    0.4466   -0.2917    1.1293 C   0  0  0  0  0  0  0  0  0  0  0  0
    1.5591   -0.5206    1.5850 O   0  0  0  0  0  0  0  0  0  0  0  0
   -0.4841    0.3644    1.9165 N   0  0  0  0  0  0  0  0  0  0  0  0
   -1.4229    0.4500    1.5446 H   0  0  0  0  0  0  0  0  0  0  0  0
   -0.2370    0.7199    3.3078 C   0  0  0  0  0  0  0  0  0  0  0  0
    0.6196    1.3984    3.3821 H   0  0  0  0  0  0  0  0  0  0  0  0
   -1.1120    1.2209    3.7324 H   0  0  0  0  0  0  0  0  0  0  0  0
   -0.0289   -0.1774    3.9003 H   0  0  0  0  0  0  0  0  0  0  0  0
  1  2  1  0  0  0  0
  2  3  1  0  0  0  0
  2  4  1  0  0  0  0
  2  5  1  0  0  0  0
  5  6  2  0  0  0  0
  5  7  1  0  0  0  0
  7  8  1  0  0  0  0
  7  9  1  0  0  0  0
  9 10  1  0  0  0  0
  9 11  1  0  0  0  0
  9 22  1  0  0  0  0
 11 12  1  0  0  0  0
 11 13  1  0  0  0  0
 11 14  1  0  0  0  0
 14 15  1  0  0  0  0
 14 20  2  0  0  0  0
 15 16  1  0  0  0  0
 15 17  1  0  0  0  0
 17 18  1  0  0  0  0
 17 19  2  0  0  0  0
 19 20  1  0  0  0  0
 20 21  1  0  0  0  0
 22 23  2  0  0  0  0
 22 24  1  0  0  0  0
 24 25  1  0  0  0  0
 24 26  1  0  0  0  0
 26 27  1  0  0  0  0
 26 28  1  0  0  0  0
 26 29  1  0  0  0  0
M  END
$$$$

  -OEChem-03222214043D

 29 29  0     1  0  0  0  0  0999 V2000
   -3.1230   -3.9669    0.5796 H   0  0  0  0  0  0  0  0  0  0  0  0
   -3.0119   -3.0411    0.0076 C   0  0  0  0  0  0  0  0  0  0  0  0
   -3.7862   -2.3380    0.3233 H   0  0  0  0  0  0  0  0  0  0  0  0
   -3.1418   -3.2672   -1.0535 H   0  0  0  0  0  0  0  0  0  0  0  0
   -1.6383   -2.4435    0.2470 C   0  0  0  0  0  0  0  0  0  0  0  0
   -0.8725   -2.9873    1.0201 O   0  0  0  0  0  0  0  0  0  0  0  0
   -1.2646   -1.2951   -0.4255 N   0  0  0  0  0  0  0  0  0  0  0  0
   -1.9147   -0.9491   -1.1240 H   0  0  0  0  0  0  0  0  0  0  0  0
    0.0783   -0.6799   -0.3461 C   0  0  1  0  0  0  0  0  0  0  0  0
    0.8318   -1.4095   -0.6634 H   0  0  0  0  0  0  0  0  0  0  0  0
    0.0947    0.5057   -1.3448 C   0  0  0  0  0  0  0  0  0  0  0  0
    0.3701    0.1266   -2.3341 H   0  0  0  0  0  0  0  0  0  0  0  0
   -0.9203    0.9070   -1.4239 H   0  0  0  0  0  0  0  0  0  0  0  0
    0.9932    1.6734   -1.0052 C   0  0  0  0  0  0  0  0  0  0  0  0
    0.6634    3.0100   -1.0838 N   0  0  0  0  0  0  0  0  0  0  0  0
   -0.2389    3.3963   -1.3503 H   0  0  0  0  0  0  0  0  0  0  0  0
    1.7746    3.7584   -0.7437 C   0  0  0  0  0  0  0  0  0  0  0  0
    1.8117    4.8436   -0.7108 H   0  0  0  0  0  0  0  0  0  0  0  0
    2.7830    2.9696   -0.4717 N   0  0  0  0  0  0  0  0  0  0  0  0
    2.3145    1.6680   -0.6264 C   0  0  0  0  0  0  0  0  0  0  0  0
    2.9174    0.7755   -0.4854 H   0  0  0  0  0  0  0  0  0  0  0  0
    0.4483   -0.2653    1.1001 C   0  0  0  0  0  0  0  0  0  0  0  0
    1.5823   -0.4542    1.5204 O   0  0  0  0  0  0  0  0  0  0  0  0
   -0.4697    0.3954    1.8985 N   0  0  0  0  0  0  0  0  0  0  0  0
   -1.4244    0.4350    1.5608 H   0  0  0  0  0  0  0  0  0  0  0  0
   -0.1908    0.7721    3.2783 C   0  0  0  0  0  0  0  0  0  0  0  0
    0.6668    1.4519    3.3230 H   0  0  0  0  0  0  0  0  0  0  0  0
   -1.0561    1.2794    3.7152 H   0  0  0  0  0  0  0  0  0  0  0  0
    0.0315   -0.1161    3.8793 H   0  0  0  0  0  0  0  0  0  0  0  0
  1  2  1  0  0  0  0
  2  3  1  0  0  0  0
  2  4  1  0  0  0  0
  2  5  1  0  0  0  0
  5  6  2  0  0  0  0
  5  7  1  0  0  0  0
  7  8  1  0  0  0  0
  7  9  1  0  0  0  0
  9 10  1  0  0  0  0
  9 11  1  0  0  0  0
  9 22  1  0  0  0  0
 11 12  1  0  0  0  0
 11 13  1  0  0  0  0
 11 14  1  0  0  0  0
 14 15  1  0  0  0  0
 14 20  2  0  0  0  0
 15 16  1  0  0  0  0
 15 17  1  0  0  0  0
 17 18  1  0  0  0  0
 17 19  2  0  0  0  0
 19 20  1  0  0  0  0
 20 21  1  0  0  0  0
 22 23  2  0  0  0  0
 22 24  1  0  0  0  0
 24 25  1  0  0  0  0
 24 26  1  0  0  0  0
 26 27  1  0  0  0  0
 26 28  1  0  0  0  0
 26 29  1  0  0  0  0
M  END
$$$$

  -OEChem-03222214043D

 29 29  0     1  0  0  0  0  0999 V2000
   -3.1021   -3.9871    0.5807 H   0  0  0  0  0  0  0  0  0  0  0  0
   -3.0041   -3.0587    0.0104 C   0  0  0  0  0  0  0  0  0  0  0  0
   -3.7875   -2.3668    0.3284 H   0  0  0  0  0  0  0  0  0  0  0  0
   -3.1327   -3.2850   -1.0507 H   0  0  0  0  0  0  0  0  0  0  0  0
   -1.6382   -2.4435    0.2494 C   0  0  0  0  0  0  0  0  0  0  0  0
   -0.8703   -2.9695    1.0326 O   0  0  0  0  0  0  0  0  0  0  0  0
   -1.2756   -1.2960   -0.4303 N   0  0  0  0  0  0  0  0  0  0  0  0
   -1.9240   -0.9677   -1.1389 H   0  0  0  0  0  0  0  0  0  0  0  0
    0.0636   -0.6729   -0.3590 C   0  0  1  0  0  0  0  0  0  0  0  0
    0.8166   -1.4047   -0.6731 H   0  0  0  0  0  0  0  0  0  0  0  0
    0.0816    0.5033   -1.3662 C   0  0  0  0  0  0  0  0  0  0  0  0
    0.3733    0.1187   -2.3488 H   0  0  0  0  0  0  0  0  0  0  0  0
   -0.9308    0.9070   -1.4646 H   0  0  0  0  0  0  0  0  0  0  0  0
    0.9857    1.6575   -1.0059 C   0  0  0  0  0  0  0  0  0  0  0  0
    0.6217    2.9700   -0.7942 N   0  0  0  0  0  0  0  0  0  0  0  0
   -0.3216    3.3491   -0.8185 H   0  0  0  0  0  0  0  0  0  0  0  0
    1.7636    3.7027   -0.5287 C   0  0  0  0  0  0  0  0  0  0  0  0
    1.7877    4.7681   -0.3187 H   0  0  0  0  0  0  0  0  0  0  0  0
    2.8186    2.9284   -0.5752 N   0  0  0  0  0  0  0  0  0  0  0  0
    2.3511    1.6487   -0.8601 C   0  0  0  0  0  0  0  0  0  0  0  0
    2.9805    0.7697   -0.9650 H   0  0  0  0  0  0  0  0  0  0  0  0
    0.4499   -0.2449    1.0791 C   0  0  0  0  0  0  0  0  0  0  0  0
    1.5965   -0.4028    1.4777 O   0  0  0  0  0  0  0  0  0  0  0  0
   -0.4630    0.4179    1.8820 N   0  0  0  0  0  0  0  0  0  0  0  0
   -1.4269    0.4156    1.5689 H   0  0  0  0  0  0  0  0  0  0  0  0
   -0.1675    0.8047    3.2557 C   0  0  0  0  0  0  0  0  0  0  0  0
    0.6860    1.4905    3.2843 H   0  0  0  0  0  0  0  0  0  0  0  0
   -1.0300    1.3086    3.7019 H   0  0  0  0  0  0  0  0  0  0  0  0
    0.0696   -0.0784    3.8587 H   0  0  0  0  0  0  0  0  0  0  0  0
  1  2  1  0  0  0  0
  2  3  1  0  0  0  0
  2  4  1  0  0  0  0
  2  5  1  0  0  0  0
  5  6  2  0  0  0  0
  5  7  1  0  0  0  0
  7  8  1  0  0  0  0
  7  9  1  0  0  0  0
  9 10  1  0  0  0  0
  9 11  1  0  0  0  0
  9 22  1  0  0  0  0
 11 12  1  0  0  0  0
 11 13  1  0  0  0  0
 11 14  1  0  0  0  0
 14 15  1  0  0  0  0
 14 20  2  0  0  0  0
 15 16  1  0  0  0  0
 15 17  1  0  0  0  0
 17 18  1  0  0  0  0
 17 19  2  0  0  0  0
 19 20  1  0  0  0  0
 20 21  1  0  0  0  0
 22 23  2  0  0  0  0
 22 24  1  0  0  0  0
 24 25  1  0  0  0  0
 24 26  1  0  0  0  0
 26 27  1  0  0  0  0
 26 28  1  0  0  0  0
 26 29  1  0  0  0  0
M  END
$$$$

  -OEChem-03222214043D

 29 29  0     1  0  0  0  0  0999 V2000
   -3.1027   -3.9860    0.5883 H   0  0  0  0  0  0  0  0  0  0  0  0
   -2.9990   -3.0691    0.0009 C   0  0  0  0  0  0  0  0  0  0  0  0
   -3.7966   -2.3784    0.2842 H   0  0  0  0  0  0  0  0  0  0  0  0
   -3.0988   -3.3183   -1.0582 H   0  0  0  0  0  0  0  0  0  0  0  0
   -1.6449   -2.4361    0.2608 C   0  0  0  0  0  0  0  0  0  0  0  0
   -0.8878   -2.9432    1.0667 O   0  0  0  0  0  0  0  0  0  0  0  0
   -1.2818   -1.2924   -0.4248 N   0  0  0  0  0  0  0  0  0  0  0  0
   -1.9190   -0.9846   -1.1527 H   0  0  0  0  0  0  0  0  0  0  0  0
    0.0584   -0.6708   -0.3592 C   0  0  1  0  0  0  0  0  0  0  0  0
    0.8090   -1.4052   -0.6721 H   0  0  0  0  0  0  0  0  0  0  0  0
    0.0779    0.5023   -1.3688 C   0  0  0  0  0  0  0  0  0  0  0  0
    0.3782    0.1110   -2.3462 H   0  0  0  0  0  0  0  0  0  0  0  0
   -0.9308    0.9114   -1.4803 H   0  0  0  0  0  0  0  0  0  0  0  0
    0.9899    1.6449   -0.9978 C   0  0  0  0  0  0  0  0  0  0  0  0
    0.6381    2.8821   -0.5033 N   0  0  0  0  0  0  0  0  0  0  0  0
   -0.2974    3.1908   -0.2513 H   0  0  0  0  0  0  0  0  0  0  0  0
    1.7890    3.6336   -0.3549 C   0  0  0  0  0  0  0  0  0  0  0  0
    1.8259    4.6502    0.0258 H   0  0  0  0  0  0  0  0  0  0  0  0
    2.8331    2.9469   -0.7483 N   0  0  0  0  0  0  0  0  0  0  0  0
    2.3531    1.7014   -1.1401 C   0  0  0  0  0  0  0  0  0  0  0  0
    2.9702    0.8931   -1.5210 H   0  0  0  0  0  0  0  0  0  0  0  0
    0.4517   -0.2358    1.0747 C   0  0  0  0  0  0  0  0  0  0  0  0
    1.6042   -0.3737    1.4638 O   0  0  0  0  0  0  0  0  0  0  0  0
   -0.4605    0.4323    1.8745 N   0  0  0  0  0  0  0  0  0  0  0  0
   -1.4294    0.3874    1.5797 H   0  0  0  0  0  0  0  0  0  0  0  0
   -0.1621    0.8164    3.2481 C   0  0  0  0  0  0  0  0  0  0  0  0
    0.7078    1.4810    3.2790 H   0  0  0  0  0  0  0  0  0  0  0  0
   -1.0137    1.3436    3.6880 H   0  0  0  0  0  0  0  0  0  0  0  0
    0.0505   -0.0700    3.8552 H   0  0  0  0  0  0  0  0  0  0  0  0
  1  2  1  0  0  0  0
  2  3  1  0  0  0  0
  2  4  1  0  0  0  0
  2  5  1  0  0  0  0
  5  6  2  0  0  0  0
  5  7  1  0  0  0  0
  7  8  1  0  0  0  0
  7  9  1  0  0  0  0
  9 10  1  0  0  0  0
  9 11  1  0  0  0  0
  9 22  1  0  0  0  0
 11 12  1  0  0  0  0
 11 13  1  0  0  0  0
 11 14  1  0  0  0  0
 14 15  1  0  0  0  0
 14 20  2  0  0  0  0
 15 16  1  0  0  0  0
 15 17  1  0  0  0  0
 17 18  1  0  0  0  0
 17 19  2  0  0  0  0
 19 20  1  0  0  0  0
 20 21  1  0  0  0  0
 22 23  2  0  0  0  0
 22 24  1  0  0  0  0
 24 25  1  0  0  0  0
 24 26  1  0  0  0  0
 26 27  1  0  0  0  0
 26 28  1  0  0  0  0
 26 29  1  0  0  0  0
M  END
$$$$

  -OEChem-03222214043D

 29 29  0     1  0  0  0  0  0999 V2000
   -3.1085   -3.9783    0.5890 H   0  0  0  0  0  0  0  0  0  0  0  0
   -3.0024   -3.0603    0.0038 C   0  0  0  0  0  0  0  0  0  0  0  0
   -3.8000   -2.3693    0.2865 H   0  0  0  0  0  0  0  0  0  0  0  0
   -3.1004   -3.3078   -1.0559 H   0  0  0  0  0  0  0  0  0  0  0  0
   -1.6482   -2.4290    0.2680 C   0  0  0  0  0  0  0  0  0  0  0  0
   -0.9002   -2.9290    1.0867 O   0  0  0  0  0  0  0  0  0  0  0  0
   -1.2765   -1.2909   -0.4226 N   0  0  0  0  0  0  0  0  0  0  0  0
   -1.9055   -0.9898   -1.1605 H   0  0  0  0  0  0  0  0  0  0  0  0
    0.0673   -0.6762   -0.3579 C   0  0  1  0  0  0  0  0  0  0  0  0
    0.8163   -1.4142   -0.6660 H   0  0  0  0  0  0  0  0  0  0  0  0
    0.0924    0.4950   -1.3697 C   0  0  0  0  0  0  0  0  0  0  0  0
    0.3885    0.0975   -2.3461 H   0  0  0  0  0  0  0  0  0  0  0  0
   -0.9134    0.9116   -1.4807 H   0  0  0  0  0  0  0  0  0  0  0  0
    1.0107    1.6337   -1.0017 C   0  0  0  0  0  0  0  0  0  0  0  0
    0.7193    2.7562   -0.2568 N   0  0  0  0  0  0  0  0  0  0  0  0
   -0.1411    2.9353    0.2552 H   0  0  0  0  0  0  0  0  0  0  0  0
    1.8445    3.5587   -0.2217 C   0  0  0  0  0  0  0  0  0  0  0  0
    1.9217    4.5024    0.3105 H   0  0  0  0  0  0  0  0  0  0  0  0
    2.8071    3.0212   -0.9300 N   0  0  0  0  0  0  0  0  0  0  0  0
    2.3054    1.8177   -1.4136 C   0  0  0  0  0  0  0  0  0  0  0  0
    2.8586    1.1279   -2.0440 H   0  0  0  0  0  0  0  0  0  0  0  0
    0.4544   -0.2380    1.0769 C   0  0  0  0  0  0  0  0  0  0  0  0
    1.6057   -0.3662    1.4724 O   0  0  0  0  0  0  0  0  0  0  0  0
   -0.4626    0.4372    1.8664 N   0  0  0  0  0  0  0  0  0  0  0  0
   -1.4315    0.3598    1.5771 H   0  0  0  0  0  0  0  0  0  0  0  0
   -0.1757    0.8050    3.2473 C   0  0  0  0  0  0  0  0  0  0  0  0
    0.6984    1.4632    3.2947 H   0  0  0  0  0  0  0  0  0  0  0  0
   -1.0284    1.3328    3.6843 H   0  0  0  0  0  0  0  0  0  0  0  0
    0.0245   -0.0896    3.8465 H   0  0  0  0  0  0  0  0  0  0  0  0
  1  2  1  0  0  0  0
  2  3  1  0  0  0  0
  2  4  1  0  0  0  0
  2  5  1  0  0  0  0
  5  6  2  0  0  0  0
  5  7  1  0  0  0  0
  7  8  1  0  0  0  0
  7  9  1  0  0  0  0
  9 10  1  0  0  0  0
  9 11  1  0  0  0  0
  9 22  1  0  0  0  0
 11 12  1  0  0  0  0
 11 13  1  0  0  0  0
 11 14  1  0  0  0  0
 14 15  1  0  0  0  0
 14 20  2  0  0  0  0
 15 16  1  0  0  0  0
 15 17  1  0  0  0  0
 17 18  1  0  0  0  0
 17 19  2  0  0  0  0
 19 20  1  0  0  0  0
 20 21  1  0  0  0  0
 22 23  2  0  0  0  0
 22 24  1  0  0  0  0
 24 25  1  0  0  0  0
 24 26  1  0  0  0  0
 26 27  1  0  0  0  0
 26 28  1  0  0  0  0
 26 29  1  0  0  0  0
M  END
$$$$

  -OEChem-03222214043D

 29 29  0     1  0  0  0  0  0999 V2000
   -3.1197   -3.9634    0.5966 H   0  0  0  0  0  0  0  0  0  0  0  0
   -3.0045   -3.0525    0.0020 C   0  0  0  0  0  0  0  0  0  0  0  0
   -3.8032   -2.3562    0.2679 H   0  0  0  0  0  0  0  0  0  0  0  0
   -3.0919   -3.3119   -1.0557 H   0  0  0  0  0  0  0  0  0  0  0  0
   -1.6515   -2.4218    0.2735 C   0  0  0  0  0  0  0  0  0  0  0  0
   -0.9109   -2.9186    1.1009 O   0  0  0  0  0  0  0  0  0  0  0  0
   -1.2732   -1.2864   -0.4182 N   0  0  0  0  0  0  0  0  0  0  0  0
   -1.8963   -0.9890   -1.1630 H   0  0  0  0  0  0  0  0  0  0  0  0
    0.0747   -0.6796   -0.3544 C   0  0  1  0  0  0  0  0  0  0  0  0
    0.8207   -1.4213   -0.6606 H   0  0  0  0  0  0  0  0  0  0  0  0
    0.1054    0.4909   -1.3691 C   0  0  0  0  0  0  0  0  0  0  0  0
    0.3873    0.0891   -2.3480 H   0  0  0  0  0  0  0  0  0  0  0  0
   -0.8992    0.9133   -1.4696 H   0  0  0  0  0  0  0  0  0  0  0  0
    1.0272    1.6341   -1.0174 C   0  0  0  0  0  0  0  0  0  0  0  0
    0.8529    2.6185   -0.0679 N   0  0  0  0  0  0  0  0  0  0  0  0
    0.1323    2.6387    0.6509 H   0  0  0  0  0  0  0  0  0  0  0  0
    1.9326    3.4793   -0.1290 C   0  0  0  0  0  0  0  0  0  0  0  0
    2.0854    4.3359    0.5211 H   0  0  0  0  0  0  0  0  0  0  0  0
    2.7481    3.1162   -1.0888 N   0  0  0  0  0  0  0  0  0  0  0  0
    2.2011    1.9648   -1.6438 C   0  0  0  0  0  0  0  0  0  0  0  0
    2.6390    1.4117   -2.4693 H   0  0  0  0  0  0  0  0  0  0  0  0
    0.4570   -0.2456    1.0828 C   0  0  0  0  0  0  0  0  0  0  0  0
    1.6077   -0.3638    1.4824 O   0  0  0  0  0  0  0  0  0  0  0  0
   -0.4637    0.4330    1.8661 N   0  0  0  0  0  0  0  0  0  0  0  0
   -1.4317    0.3368    1.5770 H   0  0  0  0  0  0  0  0  0  0  0  0
   -0.1890    0.7815    3.2550 C   0  0  0  0  0  0  0  0  0  0  0  0
    0.6982    1.4201    3.3228 H   0  0  0  0  0  0  0  0  0  0  0  0
   -1.0365    1.3238    3.6849 H   0  0  0  0  0  0  0  0  0  0  0  0
   -0.0165   -0.1229    3.8483 H   0  0  0  0  0  0  0  0  0  0  0  0
  1  2  1  0  0  0  0
  2  3  1  0  0  0  0
  2  4  1  0  0  0  0
  2  5  1  0  0  0  0
  5  6  2  0  0  0  0
  5  7  1  0  0  0  0
  7  8  1  0  0  0  0
  7  9  1  0  0  0  0
  9 10  1  0  0  0  0
  9 11  1  0  0  0  0
  9 22  1  0  0  0  0
 11 12  1  0  0  0  0
 11 13  1  0  0  0  0
 11 14  1  0  0  0  0
 14 15  1  0  0  0  0
 14 20  2  0  0  0  0
 15 16  1  0  0  0  0
 15 17  1  0  0  0  0
 17 18  1  0  0  0  0
 17 19  2  0  0  0  0
 19 20  1  0  0  0  0
 20 21  1  0  0  0  0
 22 23  2  0  0  0  0
 22 24  1  0  0  0  0
 24 25  1  0  0  0  0
 24 26  1  0  0  0  0
 26 27  1  0  0  0  0
 26 28  1  0  0  0  0
 26 29  1  0  0  0  0
M  END
$$$$

  -OEChem-03222214043D

 29 29  0     1  0  0  0  0  0999 V2000
   -3.1400   -3.9492    0.5796 H   0  0  0  0  0  0  0  0  0  0  0  0
   -3.0119   -3.0370   -0.0105 C   0  0  0  0  0  0  0  0  0  0  0  0
   -3.8046   -2.3330    0.2534 H   0  0  0  0  0  0  0  0  0  0  0  0
   -3.0949   -3.2911   -1.0699 H   0  0  0  0  0  0  0  0  0  0  0  0
   -1.6545   -2.4208    0.2715 C   0  0  0  0  0  0  0  0  0  0  0  0
   -0.9223   -2.9281    1.1002 O   0  0  0  0  0  0  0  0  0  0  0  0
   -1.2642   -1.2850   -0.4127 N   0  0  0  0  0  0  0  0  0  0  0  0
   -1.8829   -0.9773   -1.1569 H   0  0  0  0  0  0  0  0  0  0  0  0
    0.0871   -0.6873   -0.3400 C   0  0  1  0  0  0  0  0  0  0  0  0
    0.8313   -1.4317   -0.6445 H   0  0  0  0  0  0  0  0  0  0  0  0
    0.1245    0.4826   -1.3580 C   0  0  0  0  0  0  0  0  0  0  0  0
    0.3920    0.0761   -2.3389 H   0  0  0  0  0  0  0  0  0  0  0  0
   -0.8809    0.9063   -1.4470 H   0  0  0  0  0  0  0  0  0  0  0  0
    1.0407    1.6411   -1.0333 C   0  0  0  0  0  0  0  0  0  0  0  0
    1.0337    2.4849    0.0580 N   0  0  0  0  0  0  0  0  0  0  0  0
    0.4915    2.3524    0.9111 H   0  0  0  0  0  0  0  0  0  0  0  0
    2.0459    3.4124   -0.0963 C   0  0  0  0  0  0  0  0  0  0  0  0
    2.3000    4.1848    0.6238 H   0  0  0  0  0  0  0  0  0  0  0  0
    2.6581    3.2266   -1.2403 N   0  0  0  0  0  0  0  0  0  0  0  0
    2.0493    2.1233   -1.8273 C   0  0  0  0  0  0  0  0  0  0  0  0
    2.3309    1.7071   -2.7899 H   0  0  0  0  0  0  0  0  0  0  0  0
    0.4597   -0.2645    1.1022 C   0  0  0  0  0  0  0  0  0  0  0  0
    1.6090   -0.3745    1.5079 O   0  0  0  0  0  0  0  0  0  0  0  0
   -0.4633    0.4150    1.8822 N   0  0  0  0  0  0  0  0  0  0  0  0
   -1.4289    0.3310    1.5802 H   0  0  0  0  0  0  0  0  0  0  0  0
   -0.2057    0.7433    3.2794 C   0  0  0  0  0  0  0  0  0  0  0  0
    0.6847    1.3743    3.3698 H   0  0  0  0  0  0  0  0  0  0  0  0
   -1.0556    1.2860    3.7040 H   0  0  0  0  0  0  0  0  0  0  0  0
   -0.0495   -0.1704    3.8629 H   0  0  0  0  0  0  0  0  0  0  0  0
  1  2  1  0  0  0  0
  2  3  1  0  0  0  0
  2  4  1  0  0  0  0
  2  5  1  0  0  0  0
  5  6  2  0  0  0  0
  5  7  1  0  0  0  0
  7  8  1  0  0  0  0
  7  9  1  0  0  0  0
  9 10  1  0  0  0  0
  9 11  1  0  0  0  0
  9 22  1  0  0  0  0
 11 12  1  0  0  0  0
 11 13  1  0  0  0  0
 11 14  1  0  0  0  0
 14 15  1  0  0  0  0
 14 20  2  0  0  0  0
 15 16  1  0  0  0  0
 15 17  1  0  0  0  0
 17 18  1  0  0  0  0
 17 19  2  0  0  0  0
 19 20  1  0  0  0  0
 20 21  1  0  0  0  0
 22 23  2  0  0  0  0
 22 24  1  0  0  0  0
 24 25  1  0  0  0  0
 24 26  1  0  0  0  0
 26 27  1  0  0  0  0
 26 28  1  0  0  0  0
 26 29  1  0  0  0  0
M  END
$$$$

  -OEChem-03222214043D

 29 29  0     1  0  0  0  0  0999 V2000
   -3.1596   -3.9372    0.5661 H   0  0  0  0  0  0  0  0  0  0  0  0
   -3.0210   -3.0268   -0.0242 C   0  0  0  0  0  0  0  0  0  0  0  0
   -3.8090   -2.3162    0.2356 H   0  0  0  0  0  0  0  0  0  0  0  0
   -3.1018   -3.2808   -1.0838 H   0  0  0  0  0  0  0  0  0  0  0  0
   -1.6592   -2.4226    0.2629 C   0  0  0  0  0  0  0  0  0  0  0  0
   -0.9287   -2.9432    1.0851 O   0  0  0  0  0  0  0  0  0  0  0  0
   -1.2608   -1.2829   -0.4101 N   0  0  0  0  0  0  0  0  0  0  0  0
   -1.8785   -0.9614   -1.1494 H   0  0  0  0  0  0  0  0  0  0  0  0
    0.0940   -0.6933   -0.3289 C   0  0  1  0  0  0  0  0  0  0  0  0
    0.8358   -1.4394   -0.6349 H   0  0  0  0  0  0  0  0  0  0  0  0
    0.1398    0.4822   -1.3434 C   0  0  0  0  0  0  0  0  0  0  0  0
    0.3932    0.0759   -2.3282 H   0  0  0  0  0  0  0  0  0  0  0  0
   -0.8659    0.9075   -1.4195 H   0  0  0  0  0  0  0  0  0  0  0  0
    1.0522    1.6536   -1.0412 C   0  0  0  0  0  0  0  0  0  0  0  0
    1.2562    2.3543    0.1300 N   0  0  0  0  0  0  0  0  0  0  0  0
    0.9130    2.0846    1.0525 H   0  0  0  0  0  0  0  0  0  0  0  0
    2.1904    3.3447   -0.1015 C   0  0  0  0  0  0  0  0  0  0  0  0
    2.5689    4.0331    0.6487 H   0  0  0  0  0  0  0  0  0  0  0  0
    2.5576    3.3323   -1.3596 N   0  0  0  0  0  0  0  0  0  0  0  0
    1.8660    2.2812   -1.9498 C   0  0  0  0  0  0  0  0  0  0  0  0
    1.9567    1.9990   -2.9946 H   0  0  0  0  0  0  0  0  0  0  0  0
    0.4556   -0.2893    1.1209 C   0  0  0  0  0  0  0  0  0  0  0  0
    1.6052   -0.3842    1.5296 O   0  0  0  0  0  0  0  0  0  0  0  0
   -0.4693    0.3849    1.9020 N   0  0  0  0  0  0  0  0  0  0  0  0
   -1.4322    0.3253    1.5853 H   0  0  0  0  0  0  0  0  0  0  0  0
   -0.2235    0.7063    3.3031 C   0  0  0  0  0  0  0  0  0  0  0  0
    0.6679    1.3340    3.4057 H   0  0  0  0  0  0  0  0  0  0  0  0
   -1.0758    1.2499    3.7217 H   0  0  0  0  0  0  0  0  0  0  0  0
   -0.0757   -0.2106    3.8838 H   0  0  0  0  0  0  0  0  0  0  0  0
  1  2  1  0  0  0  0
  2  3  1  0  0  0  0
  2  4  1  0  0  0  0
  2  5  1  0  0  0  0
  5  6  2  0  0  0  0
  5  7  1  0  0  0  0
  7  8  1  0  0  0  0
  7  9  1  0  0  0  0
  9 10  1  0  0  0  0
  9 11  1  0  0  0  0
  9 22  1  0  0  0  0
 11 12  1  0  0  0  0
 11 13  1  0  0  0  0
 11 14  1  0  0  0  0
 14 15  1  0  0  0  0
 14 20  2  0  0  0  0
 15 16  1  0  0  0  0
 15 17  1  0  0  0  0
 17 18  1  0  0  0  0
 17 19  2  0  0  0  0
 19 20  1  0  0  0  0
 20 21  1  0  0  0  0
 22 23  2  0  0  0  0
 22 24  1  0  0  0  0
 24 25  1  0  0  0  0
 24 26  1  0  0  0  0
 26 27  1  0  0  0  0
 26 28  1  0  0  0  0
 26 29  1  0  0  0  0
M  END
$$$$

  -OEChem-03222214043D

 29 29  0     1  0  0  0  0  0999 V2000
   -3.1848   -3.9198    0.5598 H   0  0  0  0  0  0  0  0  0  0  0  0
   -3.0406   -3.0011   -0.0164 C   0  0  0  0  0  0  0  0  0  0  0  0
   -3.8049   -2.2781    0.2782 H   0  0  0  0  0  0  0  0  0  0  0  0
   -3.1552   -3.2322   -1.0781 H   0  0  0  0  0  0  0  0  0  0  0  0
   -1.6587   -2.4332    0.2462 C   0  0  0  0  0  0  0  0  0  0  0  0
   -0.9194   -2.9857    1.0394 O   0  0  0  0  0  0  0  0  0  0  0  0
   -1.2496   -1.2920   -0.4180 N   0  0  0  0  0  0  0  0  0  0  0  0
   -1.8764   -0.9400   -1.1355 H   0  0  0  0  0  0  0  0  0  0  0  0
    0.1093   -0.7125   -0.3302 C   0  0  1  0  0  0  0  0  0  0  0  0
    0.8497   -1.4591   -0.6379 H   0  0  0  0  0  0  0  0  0  0  0  0
    0.1636    0.4756   -1.3314 C   0  0  0  0  0  0  0  0  0  0  0  0
    0.4071    0.0766   -2.3218 H   0  0  0  0  0  0  0  0  0  0  0  0
   -0.8411    0.9055   -1.3966 H   0  0  0  0  0  0  0  0  0  0  0  0
    1.0797    1.6489   -1.0372 C   0  0  0  0  0  0  0  0  0  0  0  0
    1.5179    2.1949    0.1523 N   0  0  0  0  0  0  0  0  0  0  0  0
    1.4168    1.7643    1.0742 H   0  0  0  0  0  0  0  0  0  0  0  0
    2.3420    3.2674   -0.1232 C   0  0  0  0  0  0  0  0  0  0  0  0
    2.8559    3.8676    0.6224 H   0  0  0  0  0  0  0  0  0  0  0  0
    2.4211    3.4517   -1.4184 N   0  0  0  0  0  0  0  0  0  0  0  0
    1.6496    2.4496   -1.9945 C   0  0  0  0  0  0  0  0  0  0  0  0
    1.5135    2.3218   -3.0643 H   0  0  0  0  0  0  0  0  0  0  0  0
    0.4499   -0.3274    1.1303 C   0  0  0  0  0  0  0  0  0  0  0  0
    1.5986   -0.4009    1.5485 O   0  0  0  0  0  0  0  0  0  0  0  0
   -0.4835    0.3415    1.9044 N   0  0  0  0  0  0  0  0  0  0  0  0
   -1.4398    0.3168    1.5651 H   0  0  0  0  0  0  0  0  0  0  0  0
   -0.2497    0.6956    3.2993 C   0  0  0  0  0  0  0  0  0  0  0  0
    0.6012    1.3791    3.3865 H   0  0  0  0  0  0  0  0  0  0  0  0
   -1.1319    1.1902    3.7167 H   0  0  0  0  0  0  0  0  0  0  0  0
   -0.0420   -0.2021    3.8914 H   0  0  0  0  0  0  0  0  0  0  0  0
  1  2  1  0  0  0  0
  2  3  1  0  0  0  0
  2  4  1  0  0  0  0
  2  5  1  0  0  0  0
  5  6  2  0  0  0  0
  5  7  1  0  0  0  0
  7  8  1  0  0  0  0
  7  9  1  0  0  0  0
  9 10  1  0  0  0  0
  9 11  1  0  0  0  0
  9 22  1  0  0  0  0
 11 12  1  0  0  0  0
 11 13  1  0  0  0  0
 11 14  1  0  0  0  0
 14 15  1  0  0  0  0
 14 20  2  0  0  0  0
 15 16  1  0  0  0  0
 15 17  1  0  0  0  0
 17 18  1  0  0  0  0
 17 19  2  0  0  0  0
 19 20  1  0  0  0  0
 20 21  1  0  0  0  0
 22 23  2  0  0  0  0
 22 24  1  0  0  0  0
 24 25  1  0  0  0  0
 24 26  1  0  0  0  0
 26 27  1  0  0  0  0
 26 28  1  0  0  0  0
 26 29  1  0  0  0  0
M  END
$$$$

  -OEChem-03222214043D

 29 29  0     1  0  0  0  0  0999 V2000
   -3.2053   -3.9086    0.5552 H   0  0  0  0  0  0  0  0  0  0  0  0
   -3.0584   -2.9849   -0.0123 C   0  0  0  0  0  0  0  0  0  0  0  0
   -3.8095   -2.2564    0.3016 H   0  0  0  0  0  0  0  0  0  0  0  0
   -3.1907   -3.2025   -1.0748 H   0  0  0  0  0  0  0  0  0  0  0  0
   -1.6663   -2.4361    0.2371 C   0  0  0  0  0  0  0  0  0  0  0  0
   -0.9230   -3.0065    1.0138 O   0  0  0  0  0  0  0  0  0  0  0  0
   -1.2504   -1.2947   -0.4229 N   0  0  0  0  0  0  0  0  0  0  0  0
   -1.8850   -0.9213   -1.1224 H   0  0  0  0  0  0  0  0  0  0  0  0
    0.1120   -0.7235   -0.3349 C   0  0  1  0  0  0  0  0  0  0  0  0
    0.8481   -1.4734   -0.6446 H   0  0  0  0  0  0  0  0  0  0  0  0
    0.1733    0.4674   -1.3339 C   0  0  0  0  0  0  0  0  0  0  0  0
    0.4186    0.0674   -2.3233 H   0  0  0  0  0  0  0  0  0  0  0  0
   -0.8301    0.8999   -1.4028 H   0  0  0  0  0  0  0  0  0  0  0  0
    1.0945    1.6393   -1.0462 C   0  0  0  0  0  0  0  0  0  0  0  0
    1.7559    2.0324    0.0994 N   0  0  0  0  0  0  0  0  0  0  0  0
    1.8327    1.4802    0.9592 H   0  0  0  0  0  0  0  0  0  0  0  0
    2.4725    3.1818   -0.1641 C   0  0  0  0  0  0  0  0  0  0  0  0
    3.1071    3.6994    0.5497 H   0  0  0  0  0  0  0  0  0  0  0  0
    2.2808    3.5530   -1.4067 N   0  0  0  0  0  0  0  0  0  0  0  0
    1.4344    2.6014   -1.9637 C   0  0  0  0  0  0  0  0  0  0  0  0
    1.0867    2.6206   -2.9923 H   0  0  0  0  0  0  0  0  0  0  0  0
    0.4507   -0.3478    1.1294 C   0  0  0  0  0  0  0  0  0  0  0  0
    1.5995   -0.4342    1.5488 O   0  0  0  0  0  0  0  0  0  0  0  0
   -0.4792    0.3213    1.9066 N   0  0  0  0  0  0  0  0  0  0  0  0
   -1.4324    0.3309    1.5589 H   0  0  0  0  0  0  0  0  0  0  0  0
   -0.2356    0.7024    3.2924 C   0  0  0  0  0  0  0  0  0  0  0  0
    0.5932    1.4153    3.3544 H   0  0  0  0  0  0  0  0  0  0  0  0
   -1.1274    1.1727    3.7179 H   0  0  0  0  0  0  0  0  0  0  0  0
    0.0111   -0.1793    3.8933 H   0  0  0  0  0  0  0  0  0  0  0  0
  1  2  1  0  0  0  0
  2  3  1  0  0  0  0
  2  4  1  0  0  0  0
  2  5  1  0  0  0  0
  5  6  2  0  0  0  0
  5  7  1  0  0  0  0
  7  8  1  0  0  0  0
  7  9  1  0  0  0  0
  9 10  1  0  0  0  0
  9 11  1  0  0  0  0
  9 22  1  0  0  0  0
 11 12  1  0  0  0  0
 11 13  1  0  0  0  0
 11 14  1  0  0  0  0
 14 15  1  0  0  0  0
 14 20  2  0  0  0  0
 15 16  1  0  0  0  0
 15 17  1  0  0  0  0
 17 18  1  0  0  0  0
 17 19  2  0  0  0  0
 19 20  1  0  0  0  0
 20 21  1  0  0  0  0
 22 23  2  0  0  0  0
 22 24  1  0  0  0  0
 24 25  1  0  0  0  0
 24 26  1  0  0  0  0
 26 27  1  0  0  0  0
 26 28  1  0  0  0  0
 26 29  1  0  0  0  0
M  END
$$$$

  -OEChem-03222214043D

 29 29  0     1  0  0  0  0  0999 V2000
   -3.2151   -3.9028    0.5560 H   0  0  0  0  0  0  0  0  0  0  0  0
   -3.0706   -2.9725   -0.0009 C   0  0  0  0  0  0  0  0  0  0  0  0
   -3.8112   -2.2431    0.3353 H   0  0  0  0  0  0  0  0  0  0  0  0
   -3.2217   -3.1741   -1.0641 H   0  0  0  0  0  0  0  0  0  0  0  0
   -1.6706   -2.4368    0.2326 C   0  0  0  0  0  0  0  0  0  0  0  0
   -0.9209   -3.0170    0.9958 O   0  0  0  0  0  0  0  0  0  0  0  0
   -1.2541   -1.2975   -0.4300 N   0  0  0  0  0  0  0  0  0  0  0  0
   -1.8972   -0.9113   -1.1144 H   0  0  0  0  0  0  0  0  0  0  0  0
    0.1091   -0.7291   -0.3451 C   0  0  1  0  0  0  0  0  0  0  0  0
    0.8413   -1.4832   -0.6544 H   0  0  0  0  0  0  0  0  0  0  0  0
    0.1726    0.4541   -1.3521 C   0  0  0  0  0  0  0  0  0  0  0  0
    0.4347    0.0436   -2.3327 H   0  0  0  0  0  0  0  0  0  0  0  0
   -0.8305    0.8833   -1.4422 H   0  0  0  0  0  0  0  0  0  0  0  0
    1.0963    1.6235   -1.0671 C   0  0  0  0  0  0  0  0  0  0  0  0
    1.9595    1.8742   -0.0207 N   0  0  0  0  0  0  0  0  0  0  0  0
    2.1580    1.2348    0.7563 H   0  0  0  0  0  0  0  0  0  0  0  0
    2.5733    3.0935   -0.2214 C   0  0  0  0  0  0  0  0  0  0  0  0
    3.3101    3.5392    0.4408 H   0  0  0  0  0  0  0  0  0  0  0  0
    2.1353    3.6348   -1.3324 N   0  0  0  0  0  0  0  0  0  0  0  0
    1.2228    2.7318   -1.8656 C   0  0  0  0  0  0  0  0  0  0  0  0
    0.6795    2.8870   -2.7929 H   0  0  0  0  0  0  0  0  0  0  0  0
    0.4590   -0.3488    1.1156 C   0  0  0  0  0  0  0  0  0  0  0  0
    1.6071   -0.4699    1.5314 O   0  0  0  0  0  0  0  0  0  0  0  0
   -0.4599    0.3263    1.9001 N   0  0  0  0  0  0  0  0  0  0  0  0
   -1.4114    0.3696    1.5506 H   0  0  0  0  0  0  0  0  0  0  0  0
   -0.1960    0.7262    3.2765 C   0  0  0  0  0  0  0  0  0  0  0  0
    0.6220    1.4532    3.3138 H   0  0  0  0  0  0  0  0  0  0  0  0
   -1.0870    1.1861    3.7144 H   0  0  0  0  0  0  0  0  0  0  0  0
    0.0773   -0.1445    3.8822 H   0  0  0  0  0  0  0  0  0  0  0  0
  1  2  1  0  0  0  0
  2  3  1  0  0  0  0
  2  4  1  0  0  0  0
  2  5  1  0  0  0  0
  5  6  2  0  0  0  0
  5  7  1  0  0  0  0
  7  8  1  0  0  0  0
  7  9  1  0  0  0  0
  9 10  1  0  0  0  0
  9 11  1  0  0  0  0
  9 22  1  0  0  0  0
 11 12  1  0  0  0  0
 11 13  1  0  0  0  0
 11 14  1  0  0  0  0
 14 15  1  0  0  0  0
 14 20  2  0  0  0  0
 15 16  1  0  0  0  0
 15 17  1  0  0  0  0
 17 18  1  0  0  0  0
 17 19  2  0  0  0  0
 19 20  1  0  0  0  0
 20 21  1  0  0  0  0
 22 23  2  0  0  0  0
 22 24  1  0  0  0  0
 24 25  1  0  0  0  0
 24 26  1  0  0  0  0
 26 27  1  0  0  0  0
 26 28  1  0  0  0  0
 26 29  1  0  0  0  0
M  END
$$$$

  -OEChem-03222214043D

 29 29  0     1  0  0  0  0  0999 V2000
   -3.2033   -3.9070    0.5812 H   0  0  0  0  0  0  0  0  0  0  0  0
   -3.0694   -2.9794    0.0173 C   0  0  0  0  0  0  0  0  0  0  0  0
   -3.8079   -2.2505    0.3592 H   0  0  0  0  0  0  0  0  0  0  0  0
   -3.2330   -3.1874   -1.0426 H   0  0  0  0  0  0  0  0  0  0  0  0
   -1.6681   -2.4385    0.2301 C   0  0  0  0  0  0  0  0  0  0  0  0
   -0.9048   -3.0159    0.9819 O   0  0  0  0  0  0  0  0  0  0  0  0
   -1.2635   -1.2995   -0.4402 N   0  0  0  0  0  0  0  0  0  0  0  0
   -1.9180   -0.9112   -1.1124 H   0  0  0  0  0  0  0  0  0  0  0  0
    0.0964   -0.7241   -0.3638 C   0  0  1  0  0  0  0  0  0  0  0  0
    0.8264   -1.4805   -0.6731 H   0  0  0  0  0  0  0  0  0  0  0  0
    0.1547    0.4475   -1.3830 C   0  0  0  0  0  0  0  0  0  0  0  0
    0.4367    0.0271   -2.3538 H   0  0  0  0  0  0  0  0  0  0  0  0
   -0.8496    0.8691   -1.4946 H   0  0  0  0  0  0  0  0  0  0  0  0
    1.0779    1.6141   -1.0927 C   0  0  0  0  0  0  0  0  0  0  0  0
    2.1175    1.7341   -0.1944 N   0  0  0  0  0  0  0  0  0  0  0  0
    2.4084    1.0196    0.4818 H   0  0  0  0  0  0  0  0  0  0  0  0
    2.6488    3.0041   -0.2864 C   0  0  0  0  0  0  0  0  0  0  0  0
    3.4745    3.3810    0.3105 H   0  0  0  0  0  0  0  0  0  0  0  0
    2.0047    3.6918   -1.1987 N   0  0  0  0  0  0  0  0  0  0  0  0
    1.0294    2.8403   -1.7052 C   0  0  0  0  0  0  0  0  0  0  0  0
    0.3206    3.1140   -2.4811 H   0  0  0  0  0  0  0  0  0  0  0  0
    0.4684   -0.3299    1.0875 C   0  0  0  0  0  0  0  0  0  0  0  0
    1.6189   -0.4768    1.4900 O   0  0  0  0  0  0  0  0  0  0  0  0
   -0.4367    0.3493    1.8839 N   0  0  0  0  0  0  0  0  0  0  0  0
   -1.3883    0.4199    1.5396 H   0  0  0  0  0  0  0  0  0  0  0  0
   -0.1449    0.7676    3.2490 C   0  0  0  0  0  0  0  0  0  0  0  0
    0.6795    1.4881    3.2606 H   0  0  0  0  0  0  0  0  0  0  0  0
   -1.0237    1.2417    3.6960 H   0  0  0  0  0  0  0  0  0  0  0  0
    0.1318   -0.0964    3.8626 H   0  0  0  0  0  0  0  0  0  0  0  0
  1  2  1  0  0  0  0
  2  3  1  0  0  0  0
  2  4  1  0  0  0  0
  2  5  1  0  0  0  0
  5  6  2  0  0  0  0
  5  7  1  0  0  0  0
  7  8  1  0  0  0  0
  7  9  1  0  0  0  0
  9 10  1  0  0  0  0
  9 11  1  0  0  0  0
  9 22  1  0  0  0  0
 11 12  1  0  0  0  0
 11 13  1  0  0  0  0
 11 14  1  0  0  0  0
 14 15  1  0  0  0  0
 14 20  2  0  0  0  0
 15 16  1  0  0  0  0
 15 17  1  0  0  0  0
 17 18  1  0  0  0  0
 17 19  2  0  0  0  0
 19 20  1  0  0  0  0
 20 21  1  0  0  0  0
 22 23  2  0  0  0  0
 22 24  1  0  0  0  0
 24 25  1  0  0  0  0
 24 26  1  0  0  0  0
 26 27  1  0  0  0  0
 26 28  1  0  0  0  0
 26 29  1  0  0  0  0
M  END
$$$$

  -OEChem-03222214043D

 29 29  0     1  0  0  0  0  0999 V2000
   -3.1755   -3.9218    0.6090 H   0  0  0  0  0  0  0  0  0  0  0  0
   -3.0569   -2.9962    0.0382 C   0  0  0  0  0  0  0  0  0  0  0  0
   -3.7903   -2.2684    0.3930 H   0  0  0  0  0  0  0  0  0  0  0  0
   -3.2433   -3.2087   -1.0171 H   0  0  0  0  0  0  0  0  0  0  0  0
   -1.6532   -2.4499    0.2191 C   0  0  0  0  0  0  0  0  0  0  0  0
   -0.8701   -3.0238    0.9531 O   0  0  0  0  0  0  0  0  0  0  0  0
   -1.2700   -1.3067   -0.4559 N   0  0  0  0  0  0  0  0  0  0  0  0
   -1.9429   -0.9139   -1.1070 H   0  0  0  0  0  0  0  0  0  0  0  0
    0.0810   -0.7115   -0.3876 C   0  0  1  0  0  0  0  0  0  0  0  0
    0.8141   -1.4643   -0.6986 H   0  0  0  0  0  0  0  0  0  0  0  0
    0.1278    0.4498   -1.4159 C   0  0  0  0  0  0  0  0  0  0  0  0
    0.4265    0.0288   -2.3814 H   0  0  0  0  0  0  0  0  0  0  0  0
   -0.8792    0.8607   -1.5405 H   0  0  0  0  0  0  0  0  0  0  0  0
    1.0436    1.6140   -1.1066 C   0  0  0  0  0  0  0  0  0  0  0  0
    2.2276    1.6331   -0.4004 N   0  0  0  0  0  0  0  0  0  0  0  0
    2.5998    0.8575    0.1565 H   0  0  0  0  0  0  0  0  0  0  0  0
    2.7025    2.9287   -0.3649 C   0  0  0  0  0  0  0  0  0  0  0  0
    3.6056    3.2484    0.1471 H   0  0  0  0  0  0  0  0  0  0  0  0
    1.8962    3.7212   -1.0306 N   0  0  0  0  0  0  0  0  0  0  0  0
    0.8628    2.9163   -1.4951 C   0  0  0  0  0  0  0  0  0  0  0  0
    0.0231    3.2745   -2.0829 H   0  0  0  0  0  0  0  0  0  0  0  0
    0.4757   -0.3010    1.0532 C   0  0  0  0  0  0  0  0  0  0  0  0
    1.6327   -0.4515    1.4358 O   0  0  0  0  0  0  0  0  0  0  0  0
   -0.4205    0.3737    1.8632 N   0  0  0  0  0  0  0  0  0  0  0  0
   -1.3763    0.4486    1.5322 H   0  0  0  0  0  0  0  0  0  0  0  0
   -0.1008    0.8181    3.2134 C   0  0  0  0  0  0  0  0  0  0  0  0
    0.7243    1.5379    3.1934 H   0  0  0  0  0  0  0  0  0  0  0  0
   -0.9703    1.3021    3.6683 H   0  0  0  0  0  0  0  0  0  0  0  0
    0.1878   -0.0337    3.8383 H   0  0  0  0  0  0  0  0  0  0  0  0
  1  2  1  0  0  0  0
  2  3  1  0  0  0  0
  2  4  1  0  0  0  0
  2  5  1  0  0  0  0
  5  6  2  0  0  0  0
  5  7  1  0  0  0  0
  7  8  1  0  0  0  0
  7  9  1  0  0  0  0
  9 10  1  0  0  0  0
  9 11  1  0  0  0  0
  9 22  1  0  0  0  0
 11 12  1  0  0  0  0
 11 13  1  0  0  0  0
 11 14  1  0  0  0  0
 14 15  1  0  0  0  0
 14 20  2  0  0  0  0
 15 16  1  0  0  0  0
 15 17  1  0  0  0  0
 17 18  1  0  0  0  0
 17 19  2  0  0  0  0
 19 20  1  0  0  0  0
 20 21  1  0  0  0  0
 22 23  2  0  0  0  0
 22 24  1  0  0  0  0
 24 25  1  0  0  0  0
 24 26  1  0  0  0  0
 26 27  1  0  0  0  0
 26 28  1  0  0  0  0
 26 29  1  0  0  0  0
M  END
$$$$

  -OEChem-03222214043D

 29 29  0     1  0  0  0  0  0999 V2000
   -3.1321   -3.9534    0.6223 H   0  0  0  0  0  0  0  0  0  0  0  0
   -3.0331   -3.0306    0.0434 C   0  0  0  0  0  0  0  0  0  0  0  0
   -3.7816   -2.3151    0.3920 H   0  0  0  0  0  0  0  0  0  0  0  0
   -3.2146   -3.2564   -1.0102 H   0  0  0  0  0  0  0  0  0  0  0  0
   -1.6415   -2.4532    0.2195 C   0  0  0  0  0  0  0  0  0  0  0  0
   -0.8453   -3.0064    0.9553 O   0  0  0  0  0  0  0  0  0  0  0  0
   -1.2838   -1.3058   -0.4622 N   0  0  0  0  0  0  0  0  0  0  0  0
   -1.9654   -0.9307   -1.1145 H   0  0  0  0  0  0  0  0  0  0  0  0
    0.0579   -0.6900   -0.4063 C   0  0  1  0  0  0  0  0  0  0  0  0
    0.7955   -1.4364   -0.7213 H   0  0  0  0  0  0  0  0  0  0  0  0
    0.0895    0.4640   -1.4404 C   0  0  0  0  0  0  0  0  0  0  0  0
    0.3944    0.0492   -2.4065 H   0  0  0  0  0  0  0  0  0  0  0  0
   -0.9205    0.8681   -1.5645 H   0  0  0  0  0  0  0  0  0  0  0  0
    1.0007    1.6214   -1.1067 C   0  0  0  0  0  0  0  0  0  0  0  0
    2.2953    1.5779   -0.6370 N   0  0  0  0  0  0  0  0  0  0  0  0
    2.7584    0.7498   -0.2558 H   0  0  0  0  0  0  0  0  0  0  0  0
    2.7425    2.8732   -0.4667 C   0  0  0  0  0  0  0  0  0  0  0  0
    3.7159    3.1490   -0.0711 H   0  0  0  0  0  0  0  0  0  0  0  0
    1.8162    3.7245   -0.8401 N   0  0  0  0  0  0  0  0  0  0  0  0
    0.7280    2.9579   -1.2393 C   0  0  0  0  0  0  0  0  0  0  0  0
   -0.2103    3.3651   -1.6035 H   0  0  0  0  0  0  0  0  0  0  0  0
    0.4771   -0.2628    1.0223 C   0  0  0  0  0  0  0  0  0  0  0  0
    1.6419   -0.4072    1.3821 O   0  0  0  0  0  0  0  0  0  0  0  0
   -0.4109    0.4064    1.8457 N   0  0  0  0  0  0  0  0  0  0  0  0
   -1.3733    0.4706    1.5328 H   0  0  0  0  0  0  0  0  0  0  0  0
   -0.0664    0.8701    3.1831 C   0  0  0  0  0  0  0  0  0  0  0  0
    0.7590    1.5884    3.1375 H   0  0  0  0  0  0  0  0  0  0  0  0
   -0.9266    1.3623    3.6467 H   0  0  0  0  0  0  0  0  0  0  0  0
    0.2327    0.0268    3.8145 H   0  0  0  0  0  0  0  0  0  0  0  0
  1  2  1  0  0  0  0
  2  3  1  0  0  0  0
  2  4  1  0  0  0  0
  2  5  1  0  0  0  0
  5  6  2  0  0  0  0
  5  7  1  0  0  0  0
  7  8  1  0  0  0  0
  7  9  1  0  0  0  0
  9 10  1  0  0  0  0
  9 11  1  0  0  0  0
  9 22  1  0  0  0  0
 11 12  1  0  0  0  0
 11 13  1  0  0  0  0
 11 14  1  0  0  0  0
 14 15  1  0  0  0  0
 14 20  2  0  0  0  0
 15 16  1  0  0  0  0
 15 17  1  0  0  0  0
 17 18  1  0  0  0  0
 17 19  2  0  0  0  0
 19 20  1  0  0  0  0
 20 21  1  0  0  0  0
 22 23  2  0  0  0  0
 22 24  1  0  0  0  0
 24 25  1  0  0  0  0
 24 26  1  0  0  0  0
 26 27  1  0  0  0  0
 26 28  1  0  0  0  0
 26 29  1  0  0  0  0
M  END
$$$$

  -OEChem-03222214043D

 29 29  0     1  0  0  0  0  0999 V2000
   -3.1058   -3.9743    0.6267 H   0  0  0  0  0  0  0  0  0  0  0  0
   -3.0178   -3.0521    0.0451 C   0  0  0  0  0  0  0  0  0  0  0  0
   -3.7713   -2.3426    0.3947 H   0  0  0  0  0  0  0  0  0  0  0  0
   -3.2017   -3.2826   -1.0070 H   0  0  0  0  0  0  0  0  0  0  0  0
   -1.6307   -2.4616    0.2135 C   0  0  0  0  0  0  0  0  0  0  0  0
   -0.8238   -3.0092    0.9417 O   0  0  0  0  0  0  0  0  0  0  0  0
   -1.2887   -1.3104   -0.4692 N   0  0  0  0  0  0  0  0  0  0  0  0
   -1.9803   -0.9376   -1.1122 H   0  0  0  0  0  0  0  0  0  0  0  0
    0.0450   -0.6783   -0.4172 C   0  0  1  0  0  0  0  0  0  0  0  0
    0.7878   -1.4186   -0.7342 H   0  0  0  0  0  0  0  0  0  0  0  0
    0.0646    0.4736   -1.4514 C   0  0  0  0  0  0  0  0  0  0  0  0
    0.3680    0.0703   -2.4227 H   0  0  0  0  0  0  0  0  0  0  0  0
   -0.9479    0.8734   -1.5668 H   0  0  0  0  0  0  0  0  0  0  0  0
    0.9698    1.6256   -1.0938 C   0  0  0  0  0  0  0  0  0  0  0  0
    2.3308    1.5913   -0.8864 N   0  0  0  0  0  0  0  0  0  0  0  0
    2.8939    0.7496   -0.7650 H   0  0  0  0  0  0  0  0  0  0  0  0
    2.7563    2.8713   -0.5875 C   0  0  0  0  0  0  0  0  0  0  0  0
    3.7771    3.1450   -0.3371 H   0  0  0  0  0  0  0  0  0  0  0  0
    1.7480    3.7097   -0.6427 N   0  0  0  0  0  0  0  0  0  0  0  0
    0.6304    2.9462   -0.9566 C   0  0  0  0  0  0  0  0  0  0  0  0
   -0.3730    3.3437   -1.0752 H   0  0  0  0  0  0  0  0  0  0  0  0
    0.4753   -0.2407    1.0048 C   0  0  0  0  0  0  0  0  0  0  0  0
    1.6449   -0.3703    1.3511 O   0  0  0  0  0  0  0  0  0  0  0  0
   -0.4110    0.4223    1.8353 N   0  0  0  0  0  0  0  0  0  0  0  0
   -1.3773    0.4762    1.5335 H   0  0  0  0  0  0  0  0  0  0  0  0
   -0.0509    0.9106    3.1599 C   0  0  0  0  0  0  0  0  0  0  0  0
    0.7686    1.6338    3.0906 H   0  0  0  0  0  0  0  0  0  0  0  0
   -0.9079    1.4046    3.6277 H   0  0  0  0  0  0  0  0  0  0  0  0
    0.2640    0.0803    3.8008 H   0  0  0  0  0  0  0  0  0  0  0  0
  1  2  1  0  0  0  0
  2  3  1  0  0  0  0
  2  4  1  0  0  0  0
  2  5  1  0  0  0  0
  5  6  2  0  0  0  0
  5  7  1  0  0  0  0
  7  8  1  0  0  0  0
  7  9  1  0  0  0  0
  9 10  1  0  0  0  0
  9 11  1  0  0  0  0
  9 22  1  0  0  0  0
 11 12  1  0  0  0  0
 11 13  1  0  0  0  0
 11 14  1  0  0  0  0
 14 15  1  0  0  0  0
 14 20  2  0  0  0  0
 15 16  1  0  0  0  0
 15 17  1  0  0  0  0
 17 18  1  0  0  0  0
 17 19  2  0  0  0  0
 19 20  1  0  0  0  0
 20 21  1  0  0  0  0
 22 23  2  0  0  0  0
 22 24  1  0  0  0  0
 24 25  1  0  0  0  0
 24 26  1  0  0  0  0
 26 27  1  0  0  0  0
 26 28  1  0  0  0  0
 26 29  1  0  0  0  0
M  END
$$$$

  -OEChem-03222214043D

 29 29  0     1  0  0  0  0  0999 V2000
   -3.0942   -3.9810    0.6320 H   0  0  0  0  0  0  0  0  0  0  0  0
   -3.0102   -3.0571    0.0527 C   0  0  0  0  0  0  0  0  0  0  0  0
   -3.7603   -2.3482    0.4112 H   0  0  0  0  0  0  0  0  0  0  0  0
   -3.2038   -3.2833   -0.9985 H   0  0  0  0  0  0  0  0  0  0  0  0
   -1.6212   -2.4678    0.2101 C   0  0  0  0  0  0  0  0  0  0  0  0
   -0.8082   -3.0168    0.9302 O   0  0  0  0  0  0  0  0  0  0  0  0
   -1.2862   -1.3140   -0.4718 N   0  0  0  0  0  0  0  0  0  0  0  0
   -1.9830   -0.9407   -1.1086 H   0  0  0  0  0  0  0  0  0  0  0  0
    0.0434   -0.6729   -0.4199 C   0  0  1  0  0  0  0  0  0  0  0  0
    0.7919   -1.4071   -0.7377 H   0  0  0  0  0  0  0  0  0  0  0  0
    0.0564    0.4813   -1.4507 C   0  0  0  0  0  0  0  0  0  0  0  0
    0.3524    0.0884   -2.4286 H   0  0  0  0  0  0  0  0  0  0  0  0
   -0.9576    0.8810   -1.5540 H   0  0  0  0  0  0  0  0  0  0  0  0
    0.9578    1.6310   -1.0806 C   0  0  0  0  0  0  0  0  0  0  0  0
    2.3324    1.6716   -1.1433 N   0  0  0  0  0  0  0  0  0  0  0  0
    2.9499    0.8776   -1.3036 H   0  0  0  0  0  0  0  0  0  0  0  0
    2.7476    2.9273   -0.7419 C   0  0  0  0  0  0  0  0  0  0  0  0
    3.7834    3.2427   -0.6547 H   0  0  0  0  0  0  0  0  0  0  0  0
    1.7102    3.6867   -0.4794 N   0  0  0  0  0  0  0  0  0  0  0  0
    0.5901    2.8910   -0.6858 C   0  0  0  0  0  0  0  0  0  0  0  0
   -0.4347    3.2250   -0.5557 H   0  0  0  0  0  0  0  0  0  0  0  0
    0.4727   -0.2325    1.0016 C   0  0  0  0  0  0  0  0  0  0  0  0
    1.6430   -0.3496    1.3471 O   0  0  0  0  0  0  0  0  0  0  0  0
   -0.4189    0.4245    1.8316 N   0  0  0  0  0  0  0  0  0  0  0  0
   -1.3887    0.4549    1.5377 H   0  0  0  0  0  0  0  0  0  0  0  0
   -0.0610    0.9162    3.1557 C   0  0  0  0  0  0  0  0  0  0  0  0
    0.7583    1.6399    3.0861 H   0  0  0  0  0  0  0  0  0  0  0  0
   -0.9190    1.4107    3.6208 H   0  0  0  0  0  0  0  0  0  0  0  0
    0.2536    0.0879    3.7993 H   0  0  0  0  0  0  0  0  0  0  0  0
  1  2  1  0  0  0  0
  2  3  1  0  0  0  0
  2  4  1  0  0  0  0
  2  5  1  0  0  0  0
  5  6  2  0  0  0  0
  5  7  1  0  0  0  0
  7  8  1  0  0  0  0
  7  9  1  0  0  0  0
  9 10  1  0  0  0  0
  9 11  1  0  0  0  0
  9 22  1  0  0  0  0
 11 12  1  0  0  0  0
 11 13  1  0  0  0  0
 11 14  1  0  0  0  0
 14 15  1  0  0  0  0
 14 20  2  0  0  0  0
 15 16  1  0  0  0  0
 15 17  1  0  0  0  0
 17 18  1  0  0  0  0
 17 19  2  0  0  0  0
 19 20  1  0  0  0  0
 20 21  1  0  0  0  0
 22 23  2  0  0  0  0
 22 24  1  0  0  0  0
 24 25  1  0  0  0  0
 24 26  1  0  0  0  0
 26 27  1  0  0  0  0
 26 28  1  0  0  0  0
 26 29  1  0  0  0  0
M  END
$$$$

  -OEChem-03222214043D

 29 29  0     1  0  0  0  0  0999 V2000
   -3.0923   -3.9839    0.6248 H   0  0  0  0  0  0  0  0  0  0  0  0
   -3.0074   -3.0591    0.0469 C   0  0  0  0  0  0  0  0  0  0  0  0
   -3.7619   -2.3527    0.4012 H   0  0  0  0  0  0  0  0  0  0  0  0
   -3.1929   -3.2848   -1.0059 H   0  0  0  0  0  0  0  0  0  0  0  0
   -1.6214   -2.4659    0.2155 C   0  0  0  0  0  0  0  0  0  0  0  0
   -0.8137   -3.0126    0.9431 O   0  0  0  0  0  0  0  0  0  0  0  0
   -1.2840   -1.3113   -0.4640 N   0  0  0  0  0  0  0  0  0  0  0  0
   -1.9765   -0.9413   -1.1077 H   0  0  0  0  0  0  0  0  0  0  0  0
    0.0466   -0.6715   -0.4097 C   0  0  1  0  0  0  0  0  0  0  0  0
    0.7963   -1.4044   -0.7281 H   0  0  0  0  0  0  0  0  0  0  0  0
    0.0591    0.4863   -1.4370 C   0  0  0  0  0  0  0  0  0  0  0  0
    0.3430    0.0971   -2.4198 H   0  0  0  0  0  0  0  0  0  0  0  0
   -0.9550    0.8883   -1.5290 H   0  0  0  0  0  0  0  0  0  0  0  0
    0.9595    1.6391   -1.0712 C   0  0  0  0  0  0  0  0  0  0  0  0
    2.2880    1.7996   -1.3946 N   0  0  0  0  0  0  0  0  0  0  0  0
    2.8939    1.0998   -1.8180 H   0  0  0  0  0  0  0  0  0  0  0  0
    2.7073    3.0268   -0.9152 C   0  0  0  0  0  0  0  0  0  0  0  0
    3.7187    3.4154   -0.9951 H   0  0  0  0  0  0  0  0  0  0  0  0
    1.7060    3.6609   -0.3529 N   0  0  0  0  0  0  0  0  0  0  0  0
    0.6127    2.8081   -0.4435 C   0  0  0  0  0  0  0  0  0  0  0  0
   -0.3821    3.0420   -0.0770 H   0  0  0  0  0  0  0  0  0  0  0  0
    0.4694   -0.2363    1.0152 C   0  0  0  0  0  0  0  0  0  0  0  0
    1.6376   -0.3504    1.3660 O   0  0  0  0  0  0  0  0  0  0  0  0
   -0.4273    0.4181    1.8424 N   0  0  0  0  0  0  0  0  0  0  0  0
   -1.3989    0.4287    1.5530 H   0  0  0  0  0  0  0  0  0  0  0  0
   -0.0769    0.8992    3.1727 C   0  0  0  0  0  0  0  0  0  0  0  0
    0.7446    1.6213    3.1135 H   0  0  0  0  0  0  0  0  0  0  0  0
   -0.9364    1.3926    3.6361 H   0  0  0  0  0  0  0  0  0  0  0  0
    0.2317    0.0657    3.8124 H   0  0  0  0  0  0  0  0  0  0  0  0
  1  2  1  0  0  0  0
  2  3  1  0  0  0  0
  2  4  1  0  0  0  0
  2  5  1  0  0  0  0
  5  6  2  0  0  0  0
  5  7  1  0  0  0  0
  7  8  1  0  0  0  0
  7  9  1  0  0  0  0
  9 10  1  0  0  0  0
  9 11  1  0  0  0  0
  9 22  1  0  0  0  0
 11 12  1  0  0  0  0
 11 13  1  0  0  0  0
 11 14  1  0  0  0  0
 14 15  1  0  0  0  0
 14 20  2  0  0  0  0
 15 16  1  0  0  0  0
 15 17  1  0  0  0  0
 17 18  1  0  0  0  0
 17 19  2  0  0  0  0
 19 20  1  0  0  0  0
 20 21  1  0  0  0  0
 22 23  2  0  0  0  0
 22 24  1  0  0  0  0
 24 25  1  0  0  0  0
 24 26  1  0  0  0  0
 26 27  1  0  0  0  0
 26 28  1  0  0  0  0
 26 29  1  0  0  0  0
M  END
$$$$

  -OEChem-03222214043D

 29 29  0     1  0  0  0  0  0999 V2000
   -3.0942   -3.9789    0.6189 H   0  0  0  0  0  0  0  0  0  0  0  0
   -3.0075   -3.0497    0.0485 C   0  0  0  0  0  0  0  0  0  0  0  0
   -3.7551   -2.3420    0.4142 H   0  0  0  0  0  0  0  0  0  0  0  0
   -3.2017   -3.2653   -1.0048 H   0  0  0  0  0  0  0  0  0  0  0  0
   -1.6166   -2.4669    0.2126 C   0  0  0  0  0  0  0  0  0  0  0  0
   -0.8085   -3.0249    0.9312 O   0  0  0  0  0  0  0  0  0  0  0  0
   -1.2760   -1.3073   -0.4570 N   0  0  0  0  0  0  0  0  0  0  0  0
   -1.9717   -0.9230   -1.0887 H   0  0  0  0  0  0  0  0  0  0  0  0
    0.0551   -0.6685   -0.3942 C   0  0  1  0  0  0  0  0  0  0  0  0
    0.8060   -1.4014   -0.7097 H   0  0  0  0  0  0  0  0  0  0  0  0
    0.0782    0.4903   -1.4216 C   0  0  0  0  0  0  0  0  0  0  0  0
    0.3623    0.0962   -2.4023 H   0  0  0  0  0  0  0  0  0  0  0  0
   -0.9351    0.8934   -1.5182 H   0  0  0  0  0  0  0  0  0  0  0  0
    0.9738    1.6526   -1.0675 C   0  0  0  0  0  0  0  0  0  0  0  0
    2.1991    1.9563   -1.6181 N   0  0  0  0  0  0  0  0  0  0  0  0
    2.7374    1.3700   -2.2524 H   0  0  0  0  0  0  0  0  0  0  0  0
    2.6324    3.1570   -1.0866 C   0  0  0  0  0  0  0  0  0  0  0  0
    3.5804    3.6352   -1.3158 H   0  0  0  0  0  0  0  0  0  0  0  0
    1.7293    3.6435   -0.2703 N   0  0  0  0  0  0  0  0  0  0  0  0
    0.6919    2.7190   -0.2509 C   0  0  0  0  0  0  0  0  0  0  0  0
   -0.2260    2.8383    0.3165 H   0  0  0  0  0  0  0  0  0  0  0  0
    0.4651   -0.2480    1.0382 C   0  0  0  0  0  0  0  0  0  0  0  0
    1.6301   -0.3588    1.3983 O   0  0  0  0  0  0  0  0  0  0  0  0
   -0.4410    0.3971    1.8628 N   0  0  0  0  0  0  0  0  0  0  0  0
   -1.4120    0.3919    1.5713 H   0  0  0  0  0  0  0  0  0  0  0  0
   -0.1070    0.8523    3.2065 C   0  0  0  0  0  0  0  0  0  0  0  0
    0.7158    1.5743    3.1713 H   0  0  0  0  0  0  0  0  0  0  0  0
   -0.9718    1.3378    3.6684 H   0  0  0  0  0  0  0  0  0  0  0  0
    0.1929    0.0062    3.8338 H   0  0  0  0  0  0  0  0  0  0  0  0
  1  2  1  0  0  0  0
  2  3  1  0  0  0  0
  2  4  1  0  0  0  0
  2  5  1  0  0  0  0
  5  6  2  0  0  0  0
  5  7  1  0  0  0  0
  7  8  1  0  0  0  0
  7  9  1  0  0  0  0
  9 10  1  0  0  0  0
  9 11  1  0  0  0  0
  9 22  1  0  0  0  0
 11 12  1  0  0  0  0
 11 13  1  0  0  0  0
 11 14  1  0  0  0  0
 14 15  1  0  0  0  0
 14 20  2  0  0  0  0
 15 16  1  0  0  0  0
 15 17  1  0  0  0  0
 17 18  1  0  0  0  0
 17 19  2  0  0  0  0
 19 20  1  0  0  0  0
 20 21  1  0  0  0  0
 22 23  2  0  0  0  0
 22 24  1  0  0  0  0
 24 25  1  0  0  0  0
 24 26  1  0  0  0  0
 26 27  1  0  0  0  0
 26 28  1  0  0  0  0
 26 29  1  0  0  0  0
M  END
$$$$

  -OEChem-03222214043D

 29 29  0     1  0  0  0  0  0999 V2000
   -3.1003   -3.9834    0.5757 H   0  0  0  0  0  0  0  0  0  0  0  0
   -3.0081   -3.0443    0.0224 C   0  0  0  0  0  0  0  0  0  0  0  0
   -3.7618   -2.3442    0.3905 H   0  0  0  0  0  0  0  0  0  0  0  0
   -3.1882   -3.2425   -1.0368 H   0  0  0  0  0  0  0  0  0  0  0  0
   -1.6202   -2.4619    0.2134 C   0  0  0  0  0  0  0  0  0  0  0  0
   -0.8219   -3.0277    0.9366 O   0  0  0  0  0  0  0  0  0  0  0  0
   -1.2706   -1.2950   -0.4392 N   0  0  0  0  0  0  0  0  0  0  0  0
   -1.9585   -0.9048   -1.0759 H   0  0  0  0  0  0  0  0  0  0  0  0
    0.0626   -0.6611   -0.3619 C   0  0  1  0  0  0  0  0  0  0  0  0
    0.8120   -1.3974   -0.6733 H   0  0  0  0  0  0  0  0  0  0  0  0
    0.1039    0.4961   -1.3928 C   0  0  0  0  0  0  0  0  0  0  0  0
    0.3945    0.0867   -2.3655 H   0  0  0  0  0  0  0  0  0  0  0  0
   -0.9080    0.8982   -1.5043 H   0  0  0  0  0  0  0  0  0  0  0  0
    0.9915    1.6757   -1.0654 C   0  0  0  0  0  0  0  0  0  0  0  0
    2.0573    2.1241   -1.8158 N   0  0  0  0  0  0  0  0  0  0  0  0
    2.4704    1.6529   -2.6175 H   0  0  0  0  0  0  0  0  0  0  0  0
    2.5289    3.2979   -1.2585 C   0  0  0  0  0  0  0  0  0  0  0  0
    3.3805    3.8649   -1.6235 H   0  0  0  0  0  0  0  0  0  0  0  0
    1.7931    3.6362   -0.2289 N   0  0  0  0  0  0  0  0  0  0  0  0
    0.8317    2.6405   -0.1002 C   0  0  0  0  0  0  0  0  0  0  0  0
    0.0399    2.6529    0.6415 H   0  0  0  0  0  0  0  0  0  0  0  0
    0.4586   -0.2635    1.0798 C   0  0  0  0  0  0  0  0  0  0  0  0
    1.6208   -0.3734    1.4474 O   0  0  0  0  0  0  0  0  0  0  0  0
   -0.4545    0.3707    1.9054 N   0  0  0  0  0  0  0  0  0  0  0  0
   -1.4241    0.3601    1.6090 H   0  0  0  0  0  0  0  0  0  0  0  0
   -0.1364    0.7866    3.2655 C   0  0  0  0  0  0  0  0  0  0  0  0
    0.6895    1.5060    3.2619 H   0  0  0  0  0  0  0  0  0  0  0  0
   -1.0055    1.2625    3.7295 H   0  0  0  0  0  0  0  0  0  0  0  0
    0.1518   -0.0785    3.8720 H   0  0  0  0  0  0  0  0  0  0  0  0
  1  2  1  0  0  0  0
  2  3  1  0  0  0  0
  2  4  1  0  0  0  0
  2  5  1  0  0  0  0
  5  6  2  0  0  0  0
  5  7  1  0  0  0  0
  7  8  1  0  0  0  0
  7  9  1  0  0  0  0
  9 10  1  0  0  0  0
  9 11  1  0  0  0  0
  9 22  1  0  0  0  0
 11 12  1  0  0  0  0
 11 13  1  0  0  0  0
 11 14  1  0  0  0  0
 14 15  1  0  0  0  0
 14 20  2  0  0  0  0
 15 16  1  0  0  0  0
 15 17  1  0  0  0  0
 17 18  1  0  0  0  0
 17 19  2  0  0  0  0
 19 20  1  0  0  0  0
 20 21  1  0  0  0  0
 22 23  2  0  0  0  0
 22 24  1  0  0  0  0
 24 25  1  0  0  0  0
 24 26  1  0  0  0  0
 26 27  1  0  0  0  0
 26 28  1  0  0  0  0
 26 29  1  0  0  0  0
M  END
$$$$

  -OEChem-03222214043D

 29 29  0     1  0  0  0  0  0999 V2000
   -3.1017   -3.9763    0.5421 H   0  0  0  0  0  0  0  0  0  0  0  0
   -3.0024   -3.0329   -0.0027 C   0  0  0  0  0  0  0  0  0  0  0  0
   -3.7567   -2.3338    0.3660 H   0  0  0  0  0  0  0  0  0  0  0  0
   -3.1756   -3.2217   -1.0647 H   0  0  0  0  0  0  0  0  0  0  0  0
   -1.6138   -2.4572    0.2032 C   0  0  0  0  0  0  0  0  0  0  0  0
   -0.8190   -3.0398    0.9168 O   0  0  0  0  0  0  0  0  0  0  0  0
   -1.2589   -1.2789   -0.4262 N   0  0  0  0  0  0  0  0  0  0  0  0
   -1.9460   -0.8713   -1.0527 H   0  0  0  0  0  0  0  0  0  0  0  0
    0.0742   -0.6459   -0.3286 C   0  0  1  0  0  0  0  0  0  0  0  0
    0.8266   -1.3811   -0.6361 H   0  0  0  0  0  0  0  0  0  0  0  0
    0.1310    0.5145   -1.3582 C   0  0  0  0  0  0  0  0  0  0  0  0
    0.4408    0.0882   -2.3175 H   0  0  0  0  0  0  0  0  0  0  0  0
   -0.8816    0.9064   -1.4963 H   0  0  0  0  0  0  0  0  0  0  0  0
    1.0029    1.7196   -1.0645 C   0  0  0  0  0  0  0  0  0  0  0  0
    1.8467    2.3078   -1.9838 N   0  0  0  0  0  0  0  0  0  0  0  0
    2.0561    1.9596   -2.9166 H   0  0  0  0  0  0  0  0  0  0  0  0
    2.4141    3.4330   -1.4179 C   0  0  0  0  0  0  0  0  0  0  0  0
    3.1338    4.0840   -1.9059 H   0  0  0  0  0  0  0  0  0  0  0  0
    1.9507    3.6079   -0.2067 N   0  0  0  0  0  0  0  0  0  0  0  0
    1.0738    2.5540    0.0273 C   0  0  0  0  0  0  0  0  0  0  0  0
    0.4985    2.4474    0.9395 H   0  0  0  0  0  0  0  0  0  0  0  0
    0.4437   -0.2798    1.1274 C   0  0  0  0  0  0  0  0  0  0  0  0
    1.6000   -0.3893    1.5123 O   0  0  0  0  0  0  0  0  0  0  0  0
   -0.4864    0.3342    1.9495 N   0  0  0  0  0  0  0  0  0  0  0  0
   -1.4499    0.3249    1.6336 H   0  0  0  0  0  0  0  0  0  0  0  0
   -0.2010    0.7012    3.3311 C   0  0  0  0  0  0  0  0  0  0  0  0
    0.6393    1.4022    3.3759 H   0  0  0  0  0  0  0  0  0  0  0  0
   -1.0737    1.1814    3.7833 H   0  0  0  0  0  0  0  0  0  0  0  0
    0.0507   -0.1881    3.9185 H   0  0  0  0  0  0  0  0  0  0  0  0
  1  2  1  0  0  0  0
  2  3  1  0  0  0  0
  2  4  1  0  0  0  0
  2  5  1  0  0  0  0
  5  6  2  0  0  0  0
  5  7  1  0  0  0  0
  7  8  1  0  0  0  0
  7  9  1  0  0  0  0
  9 10  1  0  0  0  0
  9 11  1  0  0  0  0
  9 22  1  0  0  0  0
 11 12  1  0  0  0  0
 11 13  1  0  0  0  0
 11 14  1  0  0  0  0
 14 15  1  0  0  0  0
 14 20  2  0  0  0  0
 15 16  1  0  0  0  0
 15 17  1  0  0  0  0
 17 18  1  0  0  0  0
 17 19  2  0  0  0  0
 19 20  1  0  0  0  0
 20 21  1  0  0  0  0
 22 23  2  0  0  0  0
 22 24  1  0  0  0  0
 24 25  1  0  0  0  0
 24 26  1  0  0  0  0
 26 27  1  0  0  0  0
 26 28  1  0  0  0  0
 26 29  1  0  0  0  0
M  END
$$$$

  -OEChem-03222214043D

 29 29  0     1  0  0  0  0  0999 V2000
   -3.1232   -3.9605    0.4899 H   0  0  0  0  0  0  0  0  0  0  0  0
   -3.0070   -3.0118   -0.0423 C   0  0  0  0  0  0  0  0  0  0  0  0
   -3.7642   -2.3119    0.3186 H   0  0  0  0  0  0  0  0  0  0  0  0
   -3.1600   -3.1882   -1.1096 H   0  0  0  0  0  0  0  0  0  0  0  0
   -1.6192   -2.4471    0.1973 C   0  0  0  0  0  0  0  0  0  0  0  0
   -0.8416   -3.0433    0.9185 O   0  0  0  0  0  0  0  0  0  0  0  0
   -1.2438   -1.2672   -0.4171 N   0  0  0  0  0  0  0  0  0  0  0  0
   -1.9178   -0.8497   -1.0512 H   0  0  0  0  0  0  0  0  0  0  0  0
    0.0936   -0.6466   -0.2956 C   0  0  1  0  0  0  0  0  0  0  0  0
    0.8487   -1.3783   -0.6042 H   0  0  0  0  0  0  0  0  0  0  0  0
    0.1506    0.5291   -1.3106 C   0  0  0  0  0  0  0  0  0  0  0  0
    0.4712    0.1008   -2.2655 H   0  0  0  0  0  0  0  0  0  0  0  0
   -0.8645    0.9112   -1.4579 H   0  0  0  0  0  0  0  0  0  0  0  0
    1.0089    1.7540   -1.0429 C   0  0  0  0  0  0  0  0  0  0  0  0
    1.5754    2.4950   -2.0608 N   0  0  0  0  0  0  0  0  0  0  0  0
    1.5202    2.2888   -3.0556 H   0  0  0  0  0  0  0  0  0  0  0  0
    2.2681    3.5587   -1.5178 C   0  0  0  0  0  0  0  0  0  0  0  0
    2.8167    4.3048   -2.0858 H   0  0  0  0  0  0  0  0  0  0  0  0
    2.1617    3.5412   -0.2148 N   0  0  0  0  0  0  0  0  0  0  0  0
    1.3938    2.4239    0.0985 C   0  0  0  0  0  0  0  0  0  0  0  0
    1.1264    2.1614    1.1148 H   0  0  0  0  0  0  0  0  0  0  0  0
    0.4350   -0.2999    1.1708 C   0  0  0  0  0  0  0  0  0  0  0  0
    1.5780   -0.4412    1.5842 O   0  0  0  0  0  0  0  0  0  0  0  0
   -0.5060    0.3134    1.9810 N   0  0  0  0  0  0  0  0  0  0  0  0
   -1.4598    0.3316    1.6373 H   0  0  0  0  0  0  0  0  0  0  0  0
   -0.2557    0.6359    3.3806 C   0  0  0  0  0  0  0  0  0  0  0  0
    0.5982    1.3156    3.4716 H   0  0  0  0  0  0  0  0  0  0  0  0
   -1.1312    1.1238    3.8193 H   0  0  0  0  0  0  0  0  0  0  0  0
   -0.0427   -0.2749    3.9501 H   0  0  0  0  0  0  0  0  0  0  0  0
  1  2  1  0  0  0  0
  2  3  1  0  0  0  0
  2  4  1  0  0  0  0
  2  5  1  0  0  0  0
  5  6  2  0  0  0  0
  5  7  1  0  0  0  0
  7  8  1  0  0  0  0
  7  9  1  0  0  0  0
  9 10  1  0  0  0  0
  9 11  1  0  0  0  0
  9 22  1  0  0  0  0
 11 12  1  0  0  0  0
 11 13  1  0  0  0  0
 11 14  1  0  0  0  0
 14 15  1  0  0  0  0
 14 20  2  0  0  0  0
 15 16  1  0  0  0  0
 15 17  1  0  0  0  0
 17 18  1  0  0  0  0
 17 19  2  0  0  0  0
 19 20  1  0  0  0  0
 20 21  1  0  0  0  0
 22 23  2  0  0  0  0
 22 24  1  0  0  0  0
 24 25  1  0  0  0  0
 24 26  1  0  0  0  0
 26 27  1  0  0  0  0
 26 28  1  0  0  0  0
 26 29  1  0  0  0  0
M  END
$$$$

  -OEChem-03222214043D

 29 29  0     1  0  0  0  0  0999 V2000
   -3.1612   -3.9308    0.4634 H   0  0  0  0  0  0  0  0  0  0  0  0
   -3.0269   -2.9804   -0.0615 C   0  0  0  0  0  0  0  0  0  0  0  0
   -3.7732   -2.2702    0.3020 H   0  0  0  0  0  0  0  0  0  0  0  0
   -3.1788   -3.1463   -1.1306 H   0  0  0  0  0  0  0  0  0  0  0  0
   -1.6309   -2.4415    0.1880 C   0  0  0  0  0  0  0  0  0  0  0  0
   -0.8684   -3.0555    0.9102 O   0  0  0  0  0  0  0  0  0  0  0  0
   -1.2317   -1.2658   -0.4193 N   0  0  0  0  0  0  0  0  0  0  0  0
   -1.8937   -0.8357   -1.0572 H   0  0  0  0  0  0  0  0  0  0  0  0
    0.1129   -0.6644   -0.2803 C   0  0  1  0  0  0  0  0  0  0  0  0
    0.8662   -1.3971   -0.5921 H   0  0  0  0  0  0  0  0  0  0  0  0
    0.1705    0.5255   -1.2795 C   0  0  0  0  0  0  0  0  0  0  0  0
    0.4816    0.1076   -2.2425 H   0  0  0  0  0  0  0  0  0  0  0  0
   -0.8457    0.9102   -1.4105 H   0  0  0  0  0  0  0  0  0  0  0  0
    1.0271    1.7543   -1.0174 C   0  0  0  0  0  0  0  0  0  0  0  0
    1.3167    2.6567   -2.0219 N   0  0  0  0  0  0  0  0  0  0  0  0
    1.0234    2.5871   -2.9936 H   0  0  0  0  0  0  0  0  0  0  0  0
    2.1001    3.6722   -1.5118 C   0  0  0  0  0  0  0  0  0  0  0  0
    2.4787    4.5178   -2.0789 H   0  0  0  0  0  0  0  0  0  0  0  0
    2.3179    3.4688   -0.2394 N   0  0  0  0  0  0  0  0  0  0  0  0
    1.6718    2.2794    0.0836 C   0  0  0  0  0  0  0  0  0  0  0  0
    1.6820    1.8663    1.0843 H   0  0  0  0  0  0  0  0  0  0  0  0
    0.4393   -0.3263    1.1906 C   0  0  0  0  0  0  0  0  0  0  0  0
    1.5599   -0.5409    1.6334 O   0  0  0  0  0  0  0  0  0  0  0  0
   -0.4988    0.2993    1.9937 N   0  0  0  0  0  0  0  0  0  0  0  0
   -1.4387    0.3842    1.6230 H   0  0  0  0  0  0  0  0  0  0  0  0
   -0.2627    0.6005    3.3999 C   0  0  0  0  0  0  0  0  0  0  0  0
    0.5898    1.2792    3.5082 H   0  0  0  0  0  0  0  0  0  0  0  0
   -1.1429    1.0801    3.8379 H   0  0  0  0  0  0  0  0  0  0  0  0
   -0.0542   -0.3187    3.9576 H   0  0  0  0  0  0  0  0  0  0  0  0
  1  2  1  0  0  0  0
  2  3  1  0  0  0  0
  2  4  1  0  0  0  0
  2  5  1  0  0  0  0
  5  6  2  0  0  0  0
  5  7  1  0  0  0  0
  7  8  1  0  0  0  0
  7  9  1  0  0  0  0
  9 10  1  0  0  0  0
  9 11  1  0  0  0  0
  9 22  1  0  0  0  0
 11 12  1  0  0  0  0
 11 13  1  0  0  0  0
 11 14  1  0  0  0  0
 14 15  1  0  0  0  0
 14 20  2  0  0  0  0
 15 16  1  0  0  0  0
 15 17  1  0  0  0  0
 17 18  1  0  0  0  0
 17 19  2  0  0  0  0
 19 20  1  0  0  0  0
 20 21  1  0  0  0  0
 22 23  2  0  0  0  0
 22 24  1  0  0  0  0
 24 25  1  0  0  0  0
 24 26  1  0  0  0  0
 26 27  1  0  0  0  0
 26 28  1  0  0  0  0
 26 29  1  0  0  0  0
M  END
$$$$

  -OEChem-03222214043D

 29 29  0     1  0  0  0  0  0999 V2000
   -3.1775   -3.8729    0.5746 H   0  0  0  0  0  0  0  0  0  0  0  0
   -3.0196   -2.9586   -0.0048 C   0  0  0  0  0  0  0  0  0  0  0  0
   -3.7665   -2.2199    0.2949 H   0  0  0  0  0  0  0  0  0  0  0  0
   -3.1468   -3.1893   -1.0650 H   0  0  0  0  0  0  0  0  0  0  0  0
   -1.6242   -2.4184    0.2458 C   0  0  0  0  0  0  0  0  0  0  0  0
   -0.8866   -2.9959    1.0215 O   0  0  0  0  0  0  0  0  0  0  0  0
   -1.1997   -1.2859   -0.4240 N   0  0  0  0  0  0  0  0  0  0  0  0
   -1.8330   -0.9109   -1.1230 H   0  0  0  0  0  0  0  0  0  0  0  0
    0.1535   -0.6982   -0.3086 C   0  0  1  0  0  0  0  0  0  0  0  0
    0.9130   -1.4267   -0.6136 H   0  0  0  0  0  0  0  0  0  0  0  0
    0.1627    0.4974   -1.2930 C   0  0  0  0  0  0  0  0  0  0  0  0
    0.1670    0.0920   -2.3098 H   0  0  0  0  0  0  0  0  0  0  0  0
   -0.7766    1.0450   -1.1620 H   0  0  0  0  0  0  0  0  0  0  0  0
    1.2643    1.5355   -1.2040 C   0  0  0  0  0  0  0  0  0  0  0  0
    1.3311    2.6263   -2.0472 N   0  0  0  0  0  0  0  0  0  0  0  0
    0.6539    2.8742   -2.7647 H   0  0  0  0  0  0  0  0  0  0  0  0
    2.4782    3.3430   -1.7697 C   0  0  0  0  0  0  0  0  0  0  0  0
    2.7824    4.2582   -2.2695 H   0  0  0  0  0  0  0  0  0  0  0  0
    3.1502    2.7549   -0.8150 N   0  0  0  0  0  0  0  0  0  0  0  0
    2.4231    1.6210   -0.4636 C   0  0  0  0  0  0  0  0  0  0  0  0
    2.7677    0.9026    0.2695 H   0  0  0  0  0  0  0  0  0  0  0  0
    0.4573   -0.2859    1.1534 C   0  0  0  0  0  0  0  0  0  0  0  0
    1.5303   -0.5678    1.6688 O   0  0  0  0  0  0  0  0  0  0  0  0
   -0.4892    0.3947    1.9005 N   0  0  0  0  0  0  0  0  0  0  0  0
   -1.4127    0.4877    1.4931 H   0  0  0  0  0  0  0  0  0  0  0  0
   -0.3066    0.7085    3.3121 C   0  0  0  0  0  0  0  0  0  0  0  0
    0.5885    1.3232    3.4553 H   0  0  0  0  0  0  0  0  0  0  0  0
   -1.1694    1.2637    3.6919 H   0  0  0  0  0  0  0  0  0  0  0  0
   -0.1994   -0.2115    3.8966 H   0  0  0  0  0  0  0  0  0  0  0  0
  1  2  1  0  0  0  0
  2  3  1  0  0  0  0
  2  4  1  0  0  0  0
  2  5  1  0  0  0  0
  5  6  2  0  0  0  0
  5  7  1  0  0  0  0
  7  8  1  0  0  0  0
  7  9  1  0  0  0  0
  9 10  1  0  0  0  0
  9 11  1  0  0  0  0
  9 22  1  0  0  0  0
 11 12  1  0  0  0  0
 11 13  1  0  0  0  0
 11 14  1  0  0  0  0
 14 15  1  0  0  0  0
 14 20  2  0  0  0  0
 15 16  1  0  0  0  0
 15 17  1  0  0  0  0
 17 18  1  0  0  0  0
 17 19  2  0  0  0  0
 19 20  1  0  0  0  0
 20 21  1  0  0  0  0
 22 23  2  0  0  0  0
 22 24  1  0  0  0  0
 24 25  1  0  0  0  0
 24 26  1  0  0  0  0
 26 27  1  0  0  0  0
 26 28  1  0  0  0  0
 26 29  1  0  0  0  0
M  END
$$$$

  -OEChem-03222214043D

 29 29  0     1  0  0  0  0  0999 V2000
   -3.1553   -3.9054    0.5925 H   0  0  0  0  0  0  0  0  0  0  0  0
   -3.0137   -2.9926    0.0065 C   0  0  0  0  0  0  0  0  0  0  0  0
   -3.7786   -2.2678    0.2948 H   0  0  0  0  0  0  0  0  0  0  0  0
   -3.1286   -3.2352   -1.0526 H   0  0  0  0  0  0  0  0  0  0  0  0
   -1.6325   -2.4193    0.2620 C   0  0  0  0  0  0  0  0  0  0  0  0
   -0.8927   -2.9658    1.0579 O   0  0  0  0  0  0  0  0  0  0  0  0
   -1.2249   -1.2893   -0.4222 N   0  0  0  0  0  0  0  0  0  0  0  0
   -1.8541   -0.9474   -1.1416 H   0  0  0  0  0  0  0  0  0  0  0  0
    0.1261   -0.6937   -0.3288 C   0  0  1  0  0  0  0  0  0  0  0  0
    0.8826   -1.4227   -0.6398 H   0  0  0  0  0  0  0  0  0  0  0  0
    0.1298    0.4994   -1.3139 C   0  0  0  0  0  0  0  0  0  0  0  0
    0.1221    0.1070   -2.3357 H   0  0  0  0  0  0  0  0  0  0  0  0
   -0.8025    1.0543   -1.1675 H   0  0  0  0  0  0  0  0  0  0  0  0
    1.2489    1.5131   -1.2041 C   0  0  0  0  0  0  0  0  0  0  0  0
    1.2291    2.7604   -1.7934 N   0  0  0  0  0  0  0  0  0  0  0  0
    0.4598    3.1662   -2.3211 H   0  0  0  0  0  0  0  0  0  0  0  0
    2.4381    3.3854   -1.5565 C   0  0  0  0  0  0  0  0  0  0  0  0
    2.7035    4.3838   -1.8922 H   0  0  0  0  0  0  0  0  0  0  0  0
    3.2236    2.5957   -0.8708 N   0  0  0  0  0  0  0  0  0  0  0  0
    2.5058    1.4235   -0.6504 C   0  0  0  0  0  0  0  0  0  0  0  0
    2.9114    0.5527   -0.1467 H   0  0  0  0  0  0  0  0  0  0  0  0
    0.4565   -0.2659    1.1240 C   0  0  0  0  0  0  0  0  0  0  0  0
    1.5559   -0.5011    1.6064 O   0  0  0  0  0  0  0  0  0  0  0  0
   -0.4795    0.4173    1.8820 N   0  0  0  0  0  0  0  0  0  0  0  0
   -1.4192    0.4690    1.5056 H   0  0  0  0  0  0  0  0  0  0  0  0
   -0.2633    0.7587    3.2825 C   0  0  0  0  0  0  0  0  0  0  0  0
    0.6246    1.3909    3.3902 H   0  0  0  0  0  0  0  0  0  0  0  0
   -1.1249    1.3057    3.6767 H   0  0  0  0  0  0  0  0  0  0  0  0
   -0.1241   -0.1488    3.8796 H   0  0  0  0  0  0  0  0  0  0  0  0
  1  2  1  0  0  0  0
  2  3  1  0  0  0  0
  2  4  1  0  0  0  0
  2  5  1  0  0  0  0
  5  6  2  0  0  0  0
  5  7  1  0  0  0  0
  7  8  1  0  0  0  0
  7  9  1  0  0  0  0
  9 10  1  0  0  0  0
  9 11  1  0  0  0  0
  9 22  1  0  0  0  0
 11 12  1  0  0  0  0
 11 13  1  0  0  0  0
 11 14  1  0  0  0  0
 14 15  1  0  0  0  0
 14 20  2  0  0  0  0
 15 16  1  0  0  0  0
 15 17  1  0  0  0  0
 17 18  1  0  0  0  0
 17 19  2  0  0  0  0
 19 20  1  0  0  0  0
 20 21  1  0  0  0  0
 22 23  2  0  0  0  0
 22 24  1  0  0  0  0
 24 25  1  0  0  0  0
 24 26  1  0  0  0  0
 26 27  1  0  0  0  0
 26 28  1  0  0  0  0
 26 29  1  0  0  0  0
M  END
$$$$

  -OEChem-03222214043D

 29 29  0     1  0  0  0  0  0999 V2000
   -3.1357   -3.9325    0.6150 H   0  0  0  0  0  0  0  0  0  0  0  0
   -3.0083   -3.0264    0.0155 C   0  0  0  0  0  0  0  0  0  0  0  0
   -3.7840   -2.3092    0.2938 H   0  0  0  0  0  0  0  0  0  0  0  0
   -3.1201   -3.2864   -1.0397 H   0  0  0  0  0  0  0  0  0  0  0  0
   -1.6353   -2.4294    0.2613 C   0  0  0  0  0  0  0  0  0  0  0  0
   -0.8846   -2.9576    1.0594 O   0  0  0  0  0  0  0  0  0  0  0  0
   -1.2476   -1.2970   -0.4304 N   0  0  0  0  0  0  0  0  0  0  0  0
   -1.8823   -0.9721   -1.1529 H   0  0  0  0  0  0  0  0  0  0  0  0
    0.0990   -0.6901   -0.3537 C   0  0  1  0  0  0  0  0  0  0  0  0
    0.8531   -1.4193   -0.6701 H   0  0  0  0  0  0  0  0  0  0  0  0
    0.0989    0.4983   -1.3430 C   0  0  0  0  0  0  0  0  0  0  0  0
    0.0937    0.1108   -2.3667 H   0  0  0  0  0  0  0  0  0  0  0  0
   -0.8313    1.0569   -1.1981 H   0  0  0  0  0  0  0  0  0  0  0  0
    1.2300    1.4927   -1.2107 C   0  0  0  0  0  0  0  0  0  0  0  0
    1.1620    2.8359   -1.5160 N   0  0  0  0  0  0  0  0  0  0  0  0
    0.3404    3.3422   -1.8373 H   0  0  0  0  0  0  0  0  0  0  0  0
    2.4079    3.3987   -1.3136 C   0  0  0  0  0  0  0  0  0  0  0  0
    2.6546    4.4450   -1.4694 H   0  0  0  0  0  0  0  0  0  0  0  0
    3.2544    2.4852   -0.9117 N   0  0  0  0  0  0  0  0  0  0  0  0
    2.5384    1.2936   -0.8375 C   0  0  0  0  0  0  0  0  0  0  0  0
    2.9658    0.3377   -0.5490 H   0  0  0  0  0  0  0  0  0  0  0  0
    0.4591   -0.2512    1.0882 C   0  0  0  0  0  0  0  0  0  0  0  0
    1.5831   -0.4449    1.5315 O   0  0  0  0  0  0  0  0  0  0  0  0
   -0.4648    0.4302    1.8622 N   0  0  0  0  0  0  0  0  0  0  0  0
   -1.4184    0.4484    1.5189 H   0  0  0  0  0  0  0  0  0  0  0  0
   -0.2074    0.8078    3.2461 C   0  0  0  0  0  0  0  0  0  0  0  0
    0.6790    1.4479    3.3100 H   0  0  0  0  0  0  0  0  0  0  0  0
   -1.0597    1.3596    3.6536 H   0  0  0  0  0  0  0  0  0  0  0  0
   -0.0432   -0.0836    3.8606 H   0  0  0  0  0  0  0  0  0  0  0  0
  1  2  1  0  0  0  0
  2  3  1  0  0  0  0
  2  4  1  0  0  0  0
  2  5  1  0  0  0  0
  5  6  2  0  0  0  0
  5  7  1  0  0  0  0
  7  8  1  0  0  0  0
  7  9  1  0  0  0  0
  9 10  1  0  0  0  0
  9 11  1  0  0  0  0
  9 22  1  0  0  0  0
 11 12  1  0  0  0  0
 11 13  1  0  0  0  0
 11 14  1  0  0  0  0
 14 15  1  0  0  0  0
 14 20  2  0  0  0  0
 15 16  1  0  0  0  0
 15 17  1  0  0  0  0
 17 18  1  0  0  0  0
 17 19  2  0  0  0  0
 19 20  1  0  0  0  0
 20 21  1  0  0  0  0
 22 23  2  0  0  0  0
 22 24  1  0  0  0  0
 24 25  1  0  0  0  0
 24 26  1  0  0  0  0
 26 27  1  0  0  0  0
 26 28  1  0  0  0  0
 26 29  1  0  0  0  0
M  END
$$$$

  -OEChem-03222214043D

 29 29  0     1  0  0  0  0  0999 V2000
   -3.1055   -3.9671    0.6055 H   0  0  0  0  0  0  0  0  0  0  0  0
   -3.0002   -3.0496    0.0191 C   0  0  0  0  0  0  0  0  0  0  0  0
   -3.7862   -2.3512    0.3157 H   0  0  0  0  0  0  0  0  0  0  0  0
   -3.1179   -3.2954   -1.0390 H   0  0  0  0  0  0  0  0  0  0  0  0
   -1.6357   -2.4316    0.2612 C   0  0  0  0  0  0  0  0  0  0  0  0
   -0.8776   -2.9429    1.0635 O   0  0  0  0  0  0  0  0  0  0  0  0
   -1.2640   -1.2977   -0.4363 N   0  0  0  0  0  0  0  0  0  0  0  0
   -1.9032   -0.9847   -1.1602 H   0  0  0  0  0  0  0  0  0  0  0  0
    0.0778   -0.6802   -0.3704 C   0  0  1  0  0  0  0  0  0  0  0  0
    0.8303   -1.4111   -0.6863 H   0  0  0  0  0  0  0  0  0  0  0  0
    0.0770    0.4982   -1.3689 C   0  0  0  0  0  0  0  0  0  0  0  0
    0.0835    0.1042   -2.3901 H   0  0  0  0  0  0  0  0  0  0  0  0
   -0.8538    1.0593   -1.2386 H   0  0  0  0  0  0  0  0  0  0  0  0
    1.2159    1.4782   -1.2181 C   0  0  0  0  0  0  0  0  0  0  0  0
    1.1283    2.8537   -1.2338 N   0  0  0  0  0  0  0  0  0  0  0  0
    0.2790    3.4054   -1.3269 H   0  0  0  0  0  0  0  0  0  0  0  0
    2.4000    3.3758   -1.0889 C   0  0  0  0  0  0  0  0  0  0  0  0
    2.6424    4.4343   -1.0648 H   0  0  0  0  0  0  0  0  0  0  0  0
    3.2770    2.4085   -0.9922 N   0  0  0  0  0  0  0  0  0  0  0  0
    2.5553    1.2200   -1.0545 C   0  0  0  0  0  0  0  0  0  0  0  0
    2.9937    0.2280   -0.9960 H   0  0  0  0  0  0  0  0  0  0  0  0
    0.4603   -0.2299    1.0617 C   0  0  0  0  0  0  0  0  0  0  0  0
    1.6010   -0.3920    1.4745 O   0  0  0  0  0  0  0  0  0  0  0  0
   -0.4545    0.4508    1.8474 N   0  0  0  0  0  0  0  0  0  0  0  0
   -1.4182    0.4338    1.5332 H   0  0  0  0  0  0  0  0  0  0  0  0
   -0.1717    0.8380    3.2239 C   0  0  0  0  0  0  0  0  0  0  0  0
    0.7010    1.4986    3.2641 H   0  0  0  0  0  0  0  0  0  0  0  0
   -1.0263    1.3707    3.6515 H   0  0  0  0  0  0  0  0  0  0  0  0
    0.0285   -0.0475    3.8365 H   0  0  0  0  0  0  0  0  0  0  0  0
  1  2  1  0  0  0  0
  2  3  1  0  0  0  0
  2  4  1  0  0  0  0
  2  5  1  0  0  0  0
  5  6  2  0  0  0  0
  5  7  1  0  0  0  0
  7  8  1  0  0  0  0
  7  9  1  0  0  0  0
  9 10  1  0  0  0  0
  9 11  1  0  0  0  0
  9 22  1  0  0  0  0
 11 12  1  0  0  0  0
 11 13  1  0  0  0  0
 11 14  1  0  0  0  0
 14 15  1  0  0  0  0
 14 20  2  0  0  0  0
 15 16  1  0  0  0  0
 15 17  1  0  0  0  0
 17 18  1  0  0  0  0
 17 19  2  0  0  0  0
 19 20  1  0  0  0  0
 20 21  1  0  0  0  0
 22 23  2  0  0  0  0
 22 24  1  0  0  0  0
 24 25  1  0  0  0  0
 24 26  1  0  0  0  0
 26 27  1  0  0  0  0
 26 28  1  0  0  0  0
 26 29  1  0  0  0  0
M  END
$$$$

  -OEChem-03222214043D

 29 29  0     1  0  0  0  0  0999 V2000
   -3.0908   -3.9797    0.6153 H   0  0  0  0  0  0  0  0  0  0  0  0
   -2.9889   -3.0700    0.0162 C   0  0  0  0  0  0  0  0  0  0  0  0
   -3.7884   -2.3778    0.2904 H   0  0  0  0  0  0  0  0  0  0  0  0
   -3.0878   -3.3336   -1.0396 H   0  0  0  0  0  0  0  0  0  0  0  0
   -1.6369   -2.4293    0.2678 C   0  0  0  0  0  0  0  0  0  0  0  0
   -0.8811   -2.9205    1.0845 O   0  0  0  0  0  0  0  0  0  0  0  0
   -1.2739   -1.2968   -0.4364 N   0  0  0  0  0  0  0  0  0  0  0  0
   -1.9076   -1.0047   -1.1738 H   0  0  0  0  0  0  0  0  0  0  0  0
    0.0656   -0.6741   -0.3786 C   0  0  1  0  0  0  0  0  0  0  0  0
    0.8187   -1.4033   -0.6969 H   0  0  0  0  0  0  0  0  0  0  0  0
    0.0599    0.5027   -1.3771 C   0  0  0  0  0  0  0  0  0  0  0  0
    0.0787    0.1050   -2.3968 H   0  0  0  0  0  0  0  0  0  0  0  0
   -0.8710    1.0666   -1.2601 H   0  0  0  0  0  0  0  0  0  0  0  0
    1.2063    1.4676   -1.2086 C   0  0  0  0  0  0  0  0  0  0  0  0
    1.1356    2.8142   -0.9251 N   0  0  0  0  0  0  0  0  0  0  0  0
    0.2917    3.3522   -0.7447 H   0  0  0  0  0  0  0  0  0  0  0  0
    2.4220    3.3190   -0.8843 C   0  0  0  0  0  0  0  0  0  0  0  0
    2.6806    4.3532   -0.6765 H   0  0  0  0  0  0  0  0  0  0  0  0
    3.2888    2.3712   -1.1413 N   0  0  0  0  0  0  0  0  0  0  0  0
    2.5485    1.2079   -1.3269 C   0  0  0  0  0  0  0  0  0  0  0  0
    2.9740    0.2338   -1.5489 H   0  0  0  0  0  0  0  0  0  0  0  0
    0.4604   -0.2138    1.0466 C   0  0  0  0  0  0  0  0  0  0  0  0
    1.6090   -0.3566    1.4443 O   0  0  0  0  0  0  0  0  0  0  0  0
   -0.4506    0.4690    1.8350 N   0  0  0  0  0  0  0  0  0  0  0  0
   -1.4185    0.4292    1.5359 H   0  0  0  0  0  0  0  0  0  0  0  0
   -0.1577    0.8623    3.2075 C   0  0  0  0  0  0  0  0  0  0  0  0
    0.7191    1.5177    3.2394 H   0  0  0  0  0  0  0  0  0  0  0  0
   -1.0069    1.4026    3.6365 H   0  0  0  0  0  0  0  0  0  0  0  0
    0.0408   -0.0212    3.8237 H   0  0  0  0  0  0  0  0  0  0  0  0
  1  2  1  0  0  0  0
  2  3  1  0  0  0  0
  2  4  1  0  0  0  0
  2  5  1  0  0  0  0
  5  6  2  0  0  0  0
  5  7  1  0  0  0  0
  7  8  1  0  0  0  0
  7  9  1  0  0  0  0
  9 10  1  0  0  0  0
  9 11  1  0  0  0  0
  9 22  1  0  0  0  0
 11 12  1  0  0  0  0
 11 13  1  0  0  0  0
 11 14  1  0  0  0  0
 14 15  1  0  0  0  0
 14 20  2  0  0  0  0
 15 16  1  0  0  0  0
 15 17  1  0  0  0  0
 17 18  1  0  0  0  0
 17 19  2  0  0  0  0
 19 20  1  0  0  0  0
 20 21  1  0  0  0  0
 22 23  2  0  0  0  0
 22 24  1  0  0  0  0
 24 25  1  0  0  0  0
 24 26  1  0  0  0  0
 26 27  1  0  0  0  0
 26 28  1  0  0  0  0
 26 29  1  0  0  0  0
M  END
$$$$

  -OEChem-03222214043D

 29 29  0     1  0  0  0  0  0999 V2000
   -3.0846   -3.9828    0.6097 H   0  0  0  0  0  0  0  0  0  0  0  0
   -2.9870   -3.0675    0.0187 C   0  0  0  0  0  0  0  0  0  0  0  0
   -3.7897   -2.3812    0.2984 H   0  0  0  0  0  0  0  0  0  0  0  0
   -3.0846   -3.3223   -1.0393 H   0  0  0  0  0  0  0  0  0  0  0  0
   -1.6379   -2.4231    0.2769 C   0  0  0  0  0  0  0  0  0  0  0  0
   -0.8919   -2.9011    1.1105 O   0  0  0  0  0  0  0  0  0  0  0  0
   -1.2713   -1.2956   -0.4332 N   0  0  0  0  0  0  0  0  0  0  0  0
   -1.8954   -1.0187   -1.1848 H   0  0  0  0  0  0  0  0  0  0  0  0
    0.0695   -0.6755   -0.3777 C   0  0  1  0  0  0  0  0  0  0  0  0
    0.8230   -1.4060   -0.6918 H   0  0  0  0  0  0  0  0  0  0  0  0
    0.0650    0.4987   -1.3784 C   0  0  0  0  0  0  0  0  0  0  0  0
    0.0915    0.0931   -2.3950 H   0  0  0  0  0  0  0  0  0  0  0  0
   -0.8641    1.0682   -1.2755 H   0  0  0  0  0  0  0  0  0  0  0  0
    1.2186    1.4513   -1.2000 C   0  0  0  0  0  0  0  0  0  0  0  0
    1.1973    2.7105   -0.6417 N   0  0  0  0  0  0  0  0  0  0  0  0
    0.4072    3.1550   -0.1805 H   0  0  0  0  0  0  0  0  0  0  0  0
    2.4697    3.2447   -0.7274 C   0  0  0  0  0  0  0  0  0  0  0  0
    2.7633    4.2211   -0.3532 H   0  0  0  0  0  0  0  0  0  0  0  0
    3.2740    2.4065   -1.3341 N   0  0  0  0  0  0  0  0  0  0  0  0
    2.5117    1.2797   -1.6227 C   0  0  0  0  0  0  0  0  0  0  0  0
    2.8863    0.3944   -2.1275 H   0  0  0  0  0  0  0  0  0  0  0  0
    0.4613   -0.2090    1.0468 C   0  0  0  0  0  0  0  0  0  0  0  0
    1.6114   -0.3345    1.4463 O   0  0  0  0  0  0  0  0  0  0  0  0
   -0.4542    0.4787    1.8260 N   0  0  0  0  0  0  0  0  0  0  0  0
   -1.4225    0.4077    1.5331 H   0  0  0  0  0  0  0  0  0  0  0  0
   -0.1712    0.8636    3.2032 C   0  0  0  0  0  0  0  0  0  0  0  0
    0.7054    1.5187    3.2459 H   0  0  0  0  0  0  0  0  0  0  0  0
   -1.0236    1.4011    3.6292 H   0  0  0  0  0  0  0  0  0  0  0  0
    0.0221   -0.0238    3.8154 H   0  0  0  0  0  0  0  0  0  0  0  0
  1  2  1  0  0  0  0
  2  3  1  0  0  0  0
  2  4  1  0  0  0  0
  2  5  1  0  0  0  0
  5  6  2  0  0  0  0
  5  7  1  0  0  0  0
  7  8  1  0  0  0  0
  7  9  1  0  0  0  0
  9 10  1  0  0  0  0
  9 11  1  0  0  0  0
  9 22  1  0  0  0  0
 11 12  1  0  0  0  0
 11 13  1  0  0  0  0
 11 14  1  0  0  0  0
 14 15  1  0  0  0  0
 14 20  2  0  0  0  0
 15 16  1  0  0  0  0
 15 17  1  0  0  0  0
 17 18  1  0  0  0  0
 17 19  2  0  0  0  0
 19 20  1  0  0  0  0
 20 21  1  0  0  0  0
 22 23  2  0  0  0  0
 22 24  1  0  0  0  0
 24 25  1  0  0  0  0
 24 26  1  0  0  0  0
 26 27  1  0  0  0  0
 26 28  1  0  0  0  0
 26 29  1  0  0  0  0
M  END
$$$$

  -OEChem-03222214043D

 29 29  0     1  0  0  0  0  0999 V2000
   -3.1132   -3.9516    0.6439 H   0  0  0  0  0  0  0  0  0  0  0  0
   -2.9924   -3.0624    0.0183 C   0  0  0  0  0  0  0  0  0  0  0  0
   -3.7949   -2.3581    0.2500 H   0  0  0  0  0  0  0  0  0  0  0  0
   -3.0667   -3.3599   -1.0305 H   0  0  0  0  0  0  0  0  0  0  0  0
   -1.6437   -2.4195    0.2821 C   0  0  0  0  0  0  0  0  0  0  0  0
   -0.9039   -2.8956    1.1224 O   0  0  0  0  0  0  0  0  0  0  0  0
   -1.2690   -1.2971   -0.4324 N   0  0  0  0  0  0  0  0  0  0  0  0
   -1.8883   -1.0214   -1.1885 H   0  0  0  0  0  0  0  0  0  0  0  0
    0.0760   -0.6859   -0.3778 C   0  0  1  0  0  0  0  0  0  0  0  0
    0.8268   -1.4197   -0.6909 H   0  0  0  0  0  0  0  0  0  0  0  0
    0.0745    0.4892   -1.3781 C   0  0  0  0  0  0  0  0  0  0  0  0
    0.0946    0.0812   -2.3939 H   0  0  0  0  0  0  0  0  0  0  0  0
   -0.8503    1.0653   -1.2729 H   0  0  0  0  0  0  0  0  0  0  0  0
    1.2334    1.4365   -1.2035 C   0  0  0  0  0  0  0  0  0  0  0  0
    1.2972    2.5597   -0.4077 N   0  0  0  0  0  0  0  0  0  0  0  0
    0.6102    2.8469    0.2858 H   0  0  0  0  0  0  0  0  0  0  0  0
    2.5310    3.1545   -0.5948 C   0  0  0  0  0  0  0  0  0  0  0  0
    2.8795    4.0440   -0.0779 H   0  0  0  0  0  0  0  0  0  0  0  0
    3.2217    2.4942   -1.4925 N   0  0  0  0  0  0  0  0  0  0  0  0
    2.4285    1.4181   -1.8744 C   0  0  0  0  0  0  0  0  0  0  0  0
    2.7126    0.6744   -2.6128 H   0  0  0  0  0  0  0  0  0  0  0  0
    0.4657   -0.2179    1.0466 C   0  0  0  0  0  0  0  0  0  0  0  0
    1.6156   -0.3357    1.4491 O   0  0  0  0  0  0  0  0  0  0  0  0
   -0.4504    0.4780    1.8185 N   0  0  0  0  0  0  0  0  0  0  0  0
   -1.4189    0.3962    1.5276 H   0  0  0  0  0  0  0  0  0  0  0  0
   -0.1713    0.8628    3.1967 C   0  0  0  0  0  0  0  0  0  0  0  0
    0.7218    1.4947    3.2460 H   0  0  0  0  0  0  0  0  0  0  0  0
   -1.0133    1.4251    3.6111 H   0  0  0  0  0  0  0  0  0  0  0  0
   -0.0073   -0.0261    3.8151 H   0  0  0  0  0  0  0  0  0  0  0  0
  1  2  1  0  0  0  0
  2  3  1  0  0  0  0
  2  4  1  0  0  0  0
  2  5  1  0  0  0  0
  5  6  2  0  0  0  0
  5  7  1  0  0  0  0
  7  8  1  0  0  0  0
  7  9  1  0  0  0  0
  9 10  1  0  0  0  0
  9 11  1  0  0  0  0
  9 22  1  0  0  0  0
 11 12  1  0  0  0  0
 11 13  1  0  0  0  0
 11 14  1  0  0  0  0
 14 15  1  0  0  0  0
 14 20  2  0  0  0  0
 15 16  1  0  0  0  0
 15 17  1  0  0  0  0
 17 18  1  0  0  0  0
 17 19  2  0  0  0  0
 19 20  1  0  0  0  0
 20 21  1  0  0  0  0
 22 23  2  0  0  0  0
 22 24  1  0  0  0  0
 24 25  1  0  0  0  0
 24 26  1  0  0  0  0
 26 27  1  0  0  0  0
 26 28  1  0  0  0  0
 26 29  1  0  0  0  0
M  END
$$$$

  -OEChem-03222214043D

 29 29  0     1  0  0  0  0  0999 V2000
   -3.1241   -3.9455    0.6325 H   0  0  0  0  0  0  0  0  0  0  0  0
   -2.9998   -3.0511    0.0152 C   0  0  0  0  0  0  0  0  0  0  0  0
   -3.8008   -2.3469    0.2516 H   0  0  0  0  0  0  0  0  0  0  0  0
   -3.0727   -3.3386   -1.0363 H   0  0  0  0  0  0  0  0  0  0  0  0
   -1.6499   -2.4146    0.2875 C   0  0  0  0  0  0  0  0  0  0  0  0
   -0.9191   -2.8915    1.1354 O   0  0  0  0  0  0  0  0  0  0  0  0
   -1.2637   -1.2966   -0.4274 N   0  0  0  0  0  0  0  0  0  0  0  0
   -1.8766   -1.0210   -1.1888 H   0  0  0  0  0  0  0  0  0  0  0  0
    0.0863   -0.6959   -0.3701 C   0  0  1  0  0  0  0  0  0  0  0  0
    0.8344   -1.4342   -0.6791 H   0  0  0  0  0  0  0  0  0  0  0  0
    0.0916    0.4772   -1.3751 C   0  0  0  0  0  0  0  0  0  0  0  0
    0.0992    0.0664   -2.3900 H   0  0  0  0  0  0  0  0  0  0  0  0
   -0.8300    1.0568   -1.2616 H   0  0  0  0  0  0  0  0  0  0  0  0
    1.2495    1.4322   -1.2199 C   0  0  0  0  0  0  0  0  0  0  0  0
    1.4422    2.3940   -0.2512 N   0  0  0  0  0  0  0  0  0  0  0  0
    0.9027    2.4971    0.6066 H   0  0  0  0  0  0  0  0  0  0  0  0
    2.6201    3.0616   -0.5280 C   0  0  0  0  0  0  0  0  0  0  0  0
    3.0490    3.8494    0.0845 H   0  0  0  0  0  0  0  0  0  0  0  0
    3.1483    2.6073   -1.6389 N   0  0  0  0  0  0  0  0  0  0  0  0
    2.3079    1.5902   -2.0766 C   0  0  0  0  0  0  0  0  0  0  0  0
    2.4655    1.0082   -2.9797 H   0  0  0  0  0  0  0  0  0  0  0  0
    0.4681   -0.2311    1.0575 C   0  0  0  0  0  0  0  0  0  0  0  0
    1.6163   -0.3411    1.4669 O   0  0  0  0  0  0  0  0  0  0  0  0
   -0.4493    0.4711    1.8223 N   0  0  0  0  0  0  0  0  0  0  0  0
   -1.4156    0.3954    1.5215 H   0  0  0  0  0  0  0  0  0  0  0  0
   -0.1848    0.8434    3.2070 C   0  0  0  0  0  0  0  0  0  0  0  0
    0.7102    1.4709    3.2734 H   0  0  0  0  0  0  0  0  0  0  0  0
   -1.0293    1.4059    3.6163 H   0  0  0  0  0  0  0  0  0  0  0  0
   -0.0322   -0.0515    3.8197 H   0  0  0  0  0  0  0  0  0  0  0  0
  1  2  1  0  0  0  0
  2  3  1  0  0  0  0
  2  4  1  0  0  0  0
  2  5  1  0  0  0  0
  5  6  2  0  0  0  0
  5  7  1  0  0  0  0
  7  8  1  0  0  0  0
  7  9  1  0  0  0  0
  9 10  1  0  0  0  0
  9 11  1  0  0  0  0
  9 22  1  0  0  0  0
 11 12  1  0  0  0  0
 11 13  1  0  0  0  0
 11 14  1  0  0  0  0
 14 15  1  0  0  0  0
 14 20  2  0  0  0  0
 15 16  1  0  0  0  0
 15 17  1  0  0  0  0
 17 18  1  0  0  0  0
 17 19  2  0  0  0  0
 19 20  1  0  0  0  0
 20 21  1  0  0  0  0
 22 23  2  0  0  0  0
 22 24  1  0  0  0  0
 24 25  1  0  0  0  0
 24 26  1  0  0  0  0
 26 27  1  0  0  0  0
 26 28  1  0  0  0  0
 26 29  1  0  0  0  0
M  END
$$$$

  -OEChem-03222214043D

 29 29  0     1  0  0  0  0  0999 V2000
   -3.1509   -3.9241    0.6344 H   0  0  0  0  0  0  0  0  0  0  0  0
   -3.0095   -3.0383    0.0083 C   0  0  0  0  0  0  0  0  0  0  0  0
   -3.8020   -2.3202    0.2311 H   0  0  0  0  0  0  0  0  0  0  0  0
   -3.0791   -3.3365   -1.0405 H   0  0  0  0  0  0  0  0  0  0  0  0
   -1.6529   -2.4174    0.2832 C   0  0  0  0  0  0  0  0  0  0  0  0
   -0.9261   -2.9073    1.1271 O   0  0  0  0  0  0  0  0  0  0  0  0
   -1.2562   -1.2981   -0.4243 N   0  0  0  0  0  0  0  0  0  0  0  0
   -1.8687   -1.0081   -1.1808 H   0  0  0  0  0  0  0  0  0  0  0  0
    0.0977   -0.7061   -0.3606 C   0  0  1  0  0  0  0  0  0  0  0  0
    0.8436   -1.4469   -0.6687 H   0  0  0  0  0  0  0  0  0  0  0  0
    0.1106    0.4700   -1.3655 C   0  0  0  0  0  0  0  0  0  0  0  0
    0.1015    0.0607   -2.3811 H   0  0  0  0  0  0  0  0  0  0  0  0
   -0.8083    1.0514   -1.2379 H   0  0  0  0  0  0  0  0  0  0  0  0
    1.2633    1.4389   -1.2325 C   0  0  0  0  0  0  0  0  0  0  0  0
    1.6267    2.2229   -0.1578 N   0  0  0  0  0  0  0  0  0  0  0  0
    1.2725    2.1286    0.7940 H   0  0  0  0  0  0  0  0  0  0  0  0
    2.7339    2.9687   -0.5122 C   0  0  0  0  0  0  0  0  0  0  0  0
    3.2639    3.6496    0.1476 H   0  0  0  0  0  0  0  0  0  0  0  0
    3.0569    2.7335   -1.7611 N   0  0  0  0  0  0  0  0  0  0  0  0
    2.1542    1.7803   -2.2174 C   0  0  0  0  0  0  0  0  0  0  0  0
    2.1533    1.3679   -3.2219 H   0  0  0  0  0  0  0  0  0  0  0  0
    0.4658   -0.2560    1.0751 C   0  0  0  0  0  0  0  0  0  0  0  0
    1.6143   -0.3468    1.4889 O   0  0  0  0  0  0  0  0  0  0  0  0
   -0.4567    0.4433    1.8357 N   0  0  0  0  0  0  0  0  0  0  0  0
   -1.4201    0.3771    1.5230 H   0  0  0  0  0  0  0  0  0  0  0  0
   -0.2054    0.8195    3.2221 C   0  0  0  0  0  0  0  0  0  0  0  0
    0.6854    1.4521    3.2955 H   0  0  0  0  0  0  0  0  0  0  0  0
   -1.0568    1.3783    3.6224 H   0  0  0  0  0  0  0  0  0  0  0  0
   -0.0541   -0.0736    3.8378 H   0  0  0  0  0  0  0  0  0  0  0  0
  1  2  1  0  0  0  0
  2  3  1  0  0  0  0
  2  4  1  0  0  0  0
  2  5  1  0  0  0  0
  5  6  2  0  0  0  0
  5  7  1  0  0  0  0
  7  8  1  0  0  0  0
  7  9  1  0  0  0  0
  9 10  1  0  0  0  0
  9 11  1  0  0  0  0
  9 22  1  0  0  0  0
 11 12  1  0  0  0  0
 11 13  1  0  0  0  0
 11 14  1  0  0  0  0
 14 15  1  0  0  0  0
 14 20  2  0  0  0  0
 15 16  1  0  0  0  0
 15 17  1  0  0  0  0
 17 18  1  0  0  0  0
 17 19  2  0  0  0  0
 19 20  1  0  0  0  0
 20 21  1  0  0  0  0
 22 23  2  0  0  0  0
 22 24  1  0  0  0  0
 24 25  1  0  0  0  0
 24 26  1  0  0  0  0
 26 27  1  0  0  0  0
 26 28  1  0  0  0  0
 26 29  1  0  0  0  0
M  END
$$$$

  -OEChem-03222214043D

 29 29  0     1  0  0  0  0  0999 V2000
   -3.1687   -3.9148    0.6244 H   0  0  0  0  0  0  0  0  0  0  0  0
   -3.0232   -3.0211    0.0107 C   0  0  0  0  0  0  0  0  0  0  0  0
   -3.8009   -2.2947    0.2581 H   0  0  0  0  0  0  0  0  0  0  0  0
   -3.1140   -3.3004   -1.0417 H   0  0  0  0  0  0  0  0  0  0  0  0
   -1.6528   -2.4257    0.2739 C   0  0  0  0  0  0  0  0  0  0  0  0
   -0.9201   -2.9395    1.0984 O   0  0  0  0  0  0  0  0  0  0  0  0
   -1.2476   -1.3039   -0.4252 N   0  0  0  0  0  0  0  0  0  0  0  0
   -1.8676   -0.9888   -1.1652 H   0  0  0  0  0  0  0  0  0  0  0  0
    0.1096   -0.7194   -0.3565 C   0  0  1  0  0  0  0  0  0  0  0  0
    0.8545   -1.4608   -0.6657 H   0  0  0  0  0  0  0  0  0  0  0  0
    0.1314    0.4648   -1.3545 C   0  0  0  0  0  0  0  0  0  0  0  0
    0.1072    0.0635   -2.3730 H   0  0  0  0  0  0  0  0  0  0  0  0
   -0.7839    1.0479   -1.2113 H   0  0  0  0  0  0  0  0  0  0  0  0
    1.2820    1.4426   -1.2367 C   0  0  0  0  0  0  0  0  0  0  0  0
    1.8416    2.0351   -0.1238 N   0  0  0  0  0  0  0  0  0  0  0  0
    1.6876    1.7395    0.8429 H   0  0  0  0  0  0  0  0  0  0  0  0
    2.8641    2.8687   -0.5309 C   0  0  0  0  0  0  0  0  0  0  0  0
    3.5066    3.4381    0.1348 H   0  0  0  0  0  0  0  0  0  0  0  0
    2.9535    2.8663   -1.8389 N   0  0  0  0  0  0  0  0  0  0  0  0
    1.9812    1.9804   -2.2870 C   0  0  0  0  0  0  0  0  0  0  0  0
    1.7988    1.7495   -3.3323 H   0  0  0  0  0  0  0  0  0  0  0  0
    0.4590   -0.2869    1.0897 C   0  0  0  0  0  0  0  0  0  0  0  0
    1.6065   -0.3598    1.5121 O   0  0  0  0  0  0  0  0  0  0  0  0
   -0.4726    0.4053    1.8446 N   0  0  0  0  0  0  0  0  0  0  0  0
   -1.4308    0.3602    1.5136 H   0  0  0  0  0  0  0  0  0  0  0  0
   -0.2333    0.8043    3.2264 C   0  0  0  0  0  0  0  0  0  0  0  0
    0.6316    1.4730    3.2902 H   0  0  0  0  0  0  0  0  0  0  0  0
   -1.1057    1.3322    3.6231 H   0  0  0  0  0  0  0  0  0  0  0  0
   -0.0451   -0.0758    3.8507 H   0  0  0  0  0  0  0  0  0  0  0  0
  1  2  1  0  0  0  0
  2  3  1  0  0  0  0
  2  4  1  0  0  0  0
  2  5  1  0  0  0  0
  5  6  2  0  0  0  0
  5  7  1  0  0  0  0
  7  8  1  0  0  0  0
  7  9  1  0  0  0  0
  9 10  1  0  0  0  0
  9 11  1  0  0  0  0
  9 22  1  0  0  0  0
 11 12  1  0  0  0  0
 11 13  1  0  0  0  0
 11 14  1  0  0  0  0
 14 15  1  0  0  0  0
 14 20  2  0  0  0  0
 15 16  1  0  0  0  0
 15 17  1  0  0  0  0
 17 18  1  0  0  0  0
 17 19  2  0  0  0  0
 19 20  1  0  0  0  0
 20 21  1  0  0  0  0
 22 23  2  0  0  0  0
 22 24  1  0  0  0  0
 24 25  1  0  0  0  0
 24 26  1  0  0  0  0
 26 27  1  0  0  0  0
 26 28  1  0  0  0  0
 26 29  1  0  0  0  0
M  END
$$$$

  -OEChem-03222214043D

 29 29  0     1  0  0  0  0  0999 V2000
   -3.1849   -3.9067    0.6079 H   0  0  0  0  0  0  0  0  0  0  0  0
   -3.0374   -3.0044    0.0074 C   0  0  0  0  0  0  0  0  0  0  0  0
   -3.8050   -2.2744    0.2746 H   0  0  0  0  0  0  0  0  0  0  0  0
   -3.1424   -3.2657   -1.0483 H   0  0  0  0  0  0  0  0  0  0  0  0
   -1.6585   -2.4273    0.2657 C   0  0  0  0  0  0  0  0  0  0  0  0
   -0.9238   -2.9601    1.0763 O   0  0  0  0  0  0  0  0  0  0  0  0
   -1.2455   -1.3044   -0.4268 N   0  0  0  0  0  0  0  0  0  0  0  0
   -1.8678   -0.9732   -1.1579 H   0  0  0  0  0  0  0  0  0  0  0  0
    0.1149   -0.7281   -0.3528 C   0  0  1  0  0  0  0  0  0  0  0  0
    0.8561   -1.4733   -0.6615 H   0  0  0  0  0  0  0  0  0  0  0  0
    0.1453    0.4577   -1.3499 C   0  0  0  0  0  0  0  0  0  0  0  0
    0.1172    0.0567   -2.3684 H   0  0  0  0  0  0  0  0  0  0  0  0
   -0.7686    1.0425   -1.2035 H   0  0  0  0  0  0  0  0  0  0  0  0
    1.2943    1.4403   -1.2435 C   0  0  0  0  0  0  0  0  0  0  0  0
    2.0459    1.8437   -0.1595 N   0  0  0  0  0  0  0  0  0  0  0  0
    2.0383    1.4020    0.7650 H   0  0  0  0  0  0  0  0  0  0  0  0
    2.9823    2.7657   -0.5815 C   0  0  0  0  0  0  0  0  0  0  0  0
    3.7289    3.2331    0.0544 H   0  0  0  0  0  0  0  0  0  0  0  0
    2.8448    2.9884   -1.8663 N   0  0  0  0  0  0  0  0  0  0  0  0
    1.8055    2.1676   -2.2879 C   0  0  0  0  0  0  0  0  0  0  0  0
    1.4454    2.1128   -3.3109 H   0  0  0  0  0  0  0  0  0  0  0  0
    0.4574   -0.3069    1.0993 C   0  0  0  0  0  0  0  0  0  0  0  0
    1.6021   -0.3983    1.5293 O   0  0  0  0  0  0  0  0  0  0  0  0
   -0.4738    0.3847    1.8547 N   0  0  0  0  0  0  0  0  0  0  0  0
   -1.4285    0.3685    1.5115 H   0  0  0  0  0  0  0  0  0  0  0  0
   -0.2351    0.7928    3.2337 C   0  0  0  0  0  0  0  0  0  0  0  0
    0.6197    1.4746    3.2904 H   0  0  0  0  0  0  0  0  0  0  0  0
   -1.1136    1.3088    3.6325 H   0  0  0  0  0  0  0  0  0  0  0  0
   -0.0315   -0.0815    3.8610 H   0  0  0  0  0  0  0  0  0  0  0  0
  1  2  1  0  0  0  0
  2  3  1  0  0  0  0
  2  4  1  0  0  0  0
  2  5  1  0  0  0  0
  5  6  2  0  0  0  0
  5  7  1  0  0  0  0
  7  8  1  0  0  0  0
  7  9  1  0  0  0  0
  9 10  1  0  0  0  0
  9 11  1  0  0  0  0
  9 22  1  0  0  0  0
 11 12  1  0  0  0  0
 11 13  1  0  0  0  0
 11 14  1  0  0  0  0
 14 15  1  0  0  0  0
 14 20  2  0  0  0  0
 15 16  1  0  0  0  0
 15 17  1  0  0  0  0
 17 18  1  0  0  0  0
 17 19  2  0  0  0  0
 19 20  1  0  0  0  0
 20 21  1  0  0  0  0
 22 23  2  0  0  0  0
 22 24  1  0  0  0  0
 24 25  1  0  0  0  0
 24 26  1  0  0  0  0
 26 27  1  0  0  0  0
 26 28  1  0  0  0  0
 26 29  1  0  0  0  0
M  END
$$$$

  -OEChem-03222214043D

 29 29  0     1  0  0  0  0  0999 V2000
   -3.2040   -3.8895    0.6157 H   0  0  0  0  0  0  0  0  0  0  0  0
   -3.0492   -2.9929    0.0088 C   0  0  0  0  0  0  0  0  0  0  0  0
   -3.8089   -2.2539    0.2738 H   0  0  0  0  0  0  0  0  0  0  0  0
   -3.1596   -3.2597   -1.0451 H   0  0  0  0  0  0  0  0  0  0  0  0
   -1.6638   -2.4277    0.2589 C   0  0  0  0  0  0  0  0  0  0  0  0
   -0.9261   -2.9700    1.0604 O   0  0  0  0  0  0  0  0  0  0  0  0
   -1.2475   -1.3052   -0.4318 N   0  0  0  0  0  0  0  0  0  0  0  0
   -1.8744   -0.9622   -1.1533 H   0  0  0  0  0  0  0  0  0  0  0  0
    0.1140   -0.7329   -0.3564 C   0  0  1  0  0  0  0  0  0  0  0  0
    0.8522   -1.4811   -0.6656 H   0  0  0  0  0  0  0  0  0  0  0  0
    0.1467    0.4482   -1.3586 C   0  0  0  0  0  0  0  0  0  0  0  0
    0.1242    0.0414   -2.3748 H   0  0  0  0  0  0  0  0  0  0  0  0
   -0.7688    1.0326   -1.2198 H   0  0  0  0  0  0  0  0  0  0  0  0
    1.2941    1.4327   -1.2584 C   0  0  0  0  0  0  0  0  0  0  0  0
    2.2178    1.6514   -0.2581 N   0  0  0  0  0  0  0  0  0  0  0  0
    2.3095    1.1004    0.6021 H   0  0  0  0  0  0  0  0  0  0  0  0
    3.0737    2.6614   -0.6469 C   0  0  0  0  0  0  0  0  0  0  0  0
    3.9078    3.0345   -0.0597 H   0  0  0  0  0  0  0  0  0  0  0  0
    2.7335    3.1021   -1.8343 N   0  0  0  0  0  0  0  0  0  0  0  0
    1.6355    2.3442   -2.2246 C   0  0  0  0  0  0  0  0  0  0  0  0
    1.1168    2.4607   -3.1715 H   0  0  0  0  0  0  0  0  0  0  0  0
    0.4635   -0.3126    1.0940 C   0  0  0  0  0  0  0  0  0  0  0  0
    1.6045   -0.4432    1.5258 O   0  0  0  0  0  0  0  0  0  0  0  0
   -0.4585    0.3829    1.8565 N   0  0  0  0  0  0  0  0  0  0  0  0
   -1.4109    0.4013    1.5075 H   0  0  0  0  0  0  0  0  0  0  0  0
   -0.2081    0.7901    3.2334 C   0  0  0  0  0  0  0  0  0  0  0  0
    0.6582    1.4579    3.2844 H   0  0  0  0  0  0  0  0  0  0  0  0
   -1.0761    1.3218    3.6344 H   0  0  0  0  0  0  0  0  0  0  0  0
   -0.0162   -0.0857    3.8623 H   0  0  0  0  0  0  0  0  0  0  0  0
  1  2  1  0  0  0  0
  2  3  1  0  0  0  0
  2  4  1  0  0  0  0
  2  5  1  0  0  0  0
  5  6  2  0  0  0  0
  5  7  1  0  0  0  0
  7  8  1  0  0  0  0
  7  9  1  0  0  0  0
  9 10  1  0  0  0  0
  9 11  1  0  0  0  0
  9 22  1  0  0  0  0
 11 12  1  0  0  0  0
 11 13  1  0  0  0  0
 11 14  1  0  0  0  0
 14 15  1  0  0  0  0
 14 20  2  0  0  0  0
 15 16  1  0  0  0  0
 15 17  1  0  0  0  0
 17 18  1  0  0  0  0
 17 19  2  0  0  0  0
 19 20  1  0  0  0  0
 20 21  1  0  0  0  0
 22 23  2  0  0  0  0
 22 24  1  0  0  0  0
 24 25  1  0  0  0  0
 24 26  1  0  0  0  0
 26 27  1  0  0  0  0
 26 28  1  0  0  0  0
 26 29  1  0  0  0  0
M  END
$$$$

  -OEChem-03222214043D

 29 29  0     1  0  0  0  0  0999 V2000
   -3.1945   -3.9027    0.6114 H   0  0  0  0  0  0  0  0  0  0  0  0
   -3.0546   -2.9941    0.0186 C   0  0  0  0  0  0  0  0  0  0  0  0
   -3.8137   -2.2643    0.3100 H   0  0  0  0  0  0  0  0  0  0  0  0
   -3.1815   -3.2425   -1.0379 H   0  0  0  0  0  0  0  0  0  0  0  0
   -1.6682   -2.4257    0.2564 C   0  0  0  0  0  0  0  0  0  0  0  0
   -0.9212   -2.9680    1.0495 O   0  0  0  0  0  0  0  0  0  0  0  0
   -1.2593   -1.3025   -0.4376 N   0  0  0  0  0  0  0  0  0  0  0  0
   -1.8936   -0.9576   -1.1518 H   0  0  0  0  0  0  0  0  0  0  0  0
    0.1012   -0.7276   -0.3687 C   0  0  1  0  0  0  0  0  0  0  0  0
    0.8346   -1.4802   -0.6785 H   0  0  0  0  0  0  0  0  0  0  0  0
    0.1355    0.4433   -1.3820 C   0  0  0  0  0  0  0  0  0  0  0  0
    0.1290    0.0231   -2.3930 H   0  0  0  0  0  0  0  0  0  0  0  0
   -0.7832    1.0272   -1.2637 H   0  0  0  0  0  0  0  0  0  0  0  0
    1.2854    1.4230   -1.2809 C   0  0  0  0  0  0  0  0  0  0  0  0
    2.3564    1.4656   -0.4136 N   0  0  0  0  0  0  0  0  0  0  0  0
    2.5244    0.8172    0.3636 H   0  0  0  0  0  0  0  0  0  0  0  0
    3.1449    2.5544   -0.7248 C   0  0  0  0  0  0  0  0  0  0  0  0
    4.0537    2.8382   -0.2017 H   0  0  0  0  0  0  0  0  0  0  0  0
    2.6324    3.1989   -1.7458 N   0  0  0  0  0  0  0  0  0  0  0  0
    1.4811    2.5049   -2.1004 C   0  0  0  0  0  0  0  0  0  0  0  0
    0.8243    2.7850   -2.9186 H   0  0  0  0  0  0  0  0  0  0  0  0
    0.4704   -0.3011    1.0750 C   0  0  0  0  0  0  0  0  0  0  0  0
    1.6128   -0.4593    1.4953 O   0  0  0  0  0  0  0  0  0  0  0  0
   -0.4378    0.3977    1.8507 N   0  0  0  0  0  0  0  0  0  0  0  0
   -1.3920    0.4364    1.5088 H   0  0  0  0  0  0  0  0  0  0  0  0
   -0.1658    0.8039    3.2237 C   0  0  0  0  0  0  0  0  0  0  0  0
    0.6984    1.4752    3.2609 H   0  0  0  0  0  0  0  0  0  0  0  0
   -1.0292    1.3313    3.6401 H   0  0  0  0  0  0  0  0  0  0  0  0
    0.0402   -0.0720    3.8478 H   0  0  0  0  0  0  0  0  0  0  0  0
  1  2  1  0  0  0  0
  2  3  1  0  0  0  0
  2  4  1  0  0  0  0
  2  5  1  0  0  0  0
  5  6  2  0  0  0  0
  5  7  1  0  0  0  0
  7  8  1  0  0  0  0
  7  9  1  0  0  0  0
  9 10  1  0  0  0  0
  9 11  1  0  0  0  0
  9 22  1  0  0  0  0
 11 12  1  0  0  0  0
 11 13  1  0  0  0  0
 11 14  1  0  0  0  0
 14 15  1  0  0  0  0
 14 20  2  0  0  0  0
 15 16  1  0  0  0  0
 15 17  1  0  0  0  0
 17 18  1  0  0  0  0
 17 19  2  0  0  0  0
 19 20  1  0  0  0  0
 20 21  1  0  0  0  0
 22 23  2  0  0  0  0
 22 24  1  0  0  0  0
 24 25  1  0  0  0  0
 24 26  1  0  0  0  0
 26 27  1  0  0  0  0
 26 28  1  0  0  0  0
 26 29  1  0  0  0  0
M  END
$$$$

  -OEChem-03222214043D

 29 29  0     1  0  0  0  0  0999 V2000
   -3.1717   -3.9228    0.6178 H   0  0  0  0  0  0  0  0  0  0  0  0
   -3.0499   -3.0058    0.0338 C   0  0  0  0  0  0  0  0  0  0  0  0
   -3.8052   -2.2835    0.3520 H   0  0  0  0  0  0  0  0  0  0  0  0
   -3.2001   -3.2412   -1.0226 H   0  0  0  0  0  0  0  0  0  0  0  0
   -1.6614   -2.4328    0.2468 C   0  0  0  0  0  0  0  0  0  0  0  0
   -0.8975   -2.9730    1.0250 O   0  0  0  0  0  0  0  0  0  0  0  0
   -1.2706   -1.3053   -0.4500 N   0  0  0  0  0  0  0  0  0  0  0  0
   -1.9197   -0.9558   -1.1484 H   0  0  0  0  0  0  0  0  0  0  0  0
    0.0833   -0.7164   -0.3894 C   0  0  1  0  0  0  0  0  0  0  0  0
    0.8170   -1.4683   -0.7004 H   0  0  0  0  0  0  0  0  0  0  0  0
    0.1116    0.4427   -1.4141 C   0  0  0  0  0  0  0  0  0  0  0  0
    0.1277    0.0083   -2.4189 H   0  0  0  0  0  0  0  0  0  0  0  0
   -0.8141    1.0202   -1.3209 H   0  0  0  0  0  0  0  0  0  0  0  0
    1.2606    1.4197   -1.3022 C   0  0  0  0  0  0  0  0  0  0  0  0
    2.4478    1.3066   -0.6107 N   0  0  0  0  0  0  0  0  0  0  0  0
    2.6766    0.5679    0.0628 H   0  0  0  0  0  0  0  0  0  0  0  0
    3.1873    2.4558   -0.8048 C   0  0  0  0  0  0  0  0  0  0  0  0
    4.1583    2.6559   -0.3606 H   0  0  0  0  0  0  0  0  0  0  0  0
    2.5403    3.2766   -1.5979 N   0  0  0  0  0  0  0  0  0  0  0  0
    1.3429    2.6445   -1.9124 C   0  0  0  0  0  0  0  0  0  0  0  0
    0.5761    3.0670   -2.5550 H   0  0  0  0  0  0  0  0  0  0  0  0
    0.4772   -0.2793    1.0439 C   0  0  0  0  0  0  0  0  0  0  0  0
    1.6261   -0.4482    1.4426 O   0  0  0  0  0  0  0  0  0  0  0  0
   -0.4182    0.4164    1.8368 N   0  0  0  0  0  0  0  0  0  0  0  0
   -1.3779    0.4605    1.5117 H   0  0  0  0  0  0  0  0  0  0  0  0
   -0.1144    0.8355    3.1991 C   0  0  0  0  0  0  0  0  0  0  0  0
    0.7457    1.5133    3.2078 H   0  0  0  0  0  0  0  0  0  0  0  0
   -0.9706    1.3600    3.6338 H   0  0  0  0  0  0  0  0  0  0  0  0
    0.1146   -0.0336    3.8250 H   0  0  0  0  0  0  0  0  0  0  0  0
  1  2  1  0  0  0  0
  2  3  1  0  0  0  0
  2  4  1  0  0  0  0
  2  5  1  0  0  0  0
  5  6  2  0  0  0  0
  5  7  1  0  0  0  0
  7  8  1  0  0  0  0
  7  9  1  0  0  0  0
  9 10  1  0  0  0  0
  9 11  1  0  0  0  0
  9 22  1  0  0  0  0
 11 12  1  0  0  0  0
 11 13  1  0  0  0  0
 11 14  1  0  0  0  0
 14 15  1  0  0  0  0
 14 20  2  0  0  0  0
 15 16  1  0  0  0  0
 15 17  1  0  0  0  0
 17 18  1  0  0  0  0
 17 19  2  0  0  0  0
 19 20  1  0  0  0  0
 20 21  1  0  0  0  0
 22 23  2  0  0  0  0
 22 24  1  0  0  0  0
 24 25  1  0  0  0  0
 24 26  1  0  0  0  0
 26 27  1  0  0  0  0
 26 28  1  0  0  0  0
 26 29  1  0  0  0  0
M  END
$$$$

  -OEChem-03222214043D

 29 29  0     1  0  0  0  0  0999 V2000
   -3.1406   -3.9436    0.6349 H   0  0  0  0  0  0  0  0  0  0  0  0
   -3.0365   -3.0273    0.0467 C   0  0  0  0  0  0  0  0  0  0  0  0
   -3.7931   -2.3111    0.3755 H   0  0  0  0  0  0  0  0  0  0  0  0
   -3.2020   -3.2668   -1.0063 H   0  0  0  0  0  0  0  0  0  0  0  0
   -1.6493   -2.4426    0.2355 C   0  0  0  0  0  0  0  0  0  0  0  0
   -0.8659   -2.9784    0.9973 O   0  0  0  0  0  0  0  0  0  0  0  0
   -1.2813   -1.3088   -0.4633 N   0  0  0  0  0  0  0  0  0  0  0  0
   -1.9490   -0.9554   -1.1418 H   0  0  0  0  0  0  0  0  0  0  0  0
    0.0636   -0.7003   -0.4125 C   0  0  1  0  0  0  0  0  0  0  0  0
    0.7997   -1.4478   -0.7285 H   0  0  0  0  0  0  0  0  0  0  0  0
    0.0798    0.4513   -1.4431 C   0  0  0  0  0  0  0  0  0  0  0  0
    0.1115    0.0134   -2.4459 H   0  0  0  0  0  0  0  0  0  0  0  0
   -0.8514    1.0216   -1.3610 H   0  0  0  0  0  0  0  0  0  0  0  0
    1.2271    1.4244   -1.3116 C   0  0  0  0  0  0  0  0  0  0  0  0
    2.5027    1.1956   -0.8421 N   0  0  0  0  0  0  0  0  0  0  0  0
    2.8005    0.3679   -0.3192 H   0  0  0  0  0  0  0  0  0  0  0  0
    3.2094    2.3807   -0.8985 C   0  0  0  0  0  0  0  0  0  0  0  0
    4.2324    2.5127   -0.5579 H   0  0  0  0  0  0  0  0  0  0  0  0
    2.4616    3.3292   -1.4112 N   0  0  0  0  0  0  0  0  0  0  0  0
    1.2261    2.7474   -1.6693 C   0  0  0  0  0  0  0  0  0  0  0  0
    0.3765    3.2725   -2.0953 H   0  0  0  0  0  0  0  0  0  0  0  0
    0.4835   -0.2512    1.0087 C   0  0  0  0  0  0  0  0  0  0  0  0
    1.6409   -0.4172    1.3822 O   0  0  0  0  0  0  0  0  0  0  0  0
   -0.4018    0.4381    1.8182 N   0  0  0  0  0  0  0  0  0  0  0  0
   -1.3671    0.4812    1.5101 H   0  0  0  0  0  0  0  0  0  0  0  0
   -0.0707    0.8728    3.1691 C   0  0  0  0  0  0  0  0  0  0  0  0
    0.7873    1.5533    3.1529 H   0  0  0  0  0  0  0  0  0  0  0  0
   -0.9193    1.3995    3.6157 H   0  0  0  0  0  0  0  0  0  0  0  0
    0.1743    0.0107    3.7985 H   0  0  0  0  0  0  0  0  0  0  0  0
  1  2  1  0  0  0  0
  2  3  1  0  0  0  0
  2  4  1  0  0  0  0
  2  5  1  0  0  0  0
  5  6  2  0  0  0  0
  5  7  1  0  0  0  0
  7  8  1  0  0  0  0
  7  9  1  0  0  0  0
  9 10  1  0  0  0  0
  9 11  1  0  0  0  0
  9 22  1  0  0  0  0
 11 12  1  0  0  0  0
 11 13  1  0  0  0  0
 11 14  1  0  0  0  0
 14 15  1  0  0  0  0
 14 20  2  0  0  0  0
 15 16  1  0  0  0  0
 15 17  1  0  0  0  0
 17 18  1  0  0  0  0
 17 19  2  0  0  0  0
 19 20  1  0  0  0  0
 20 21  1  0  0  0  0
 22 23  2  0  0  0  0
 22 24  1  0  0  0  0
 24 25  1  0  0  0  0
 24 26  1  0  0  0  0
 26 27  1  0  0  0  0
 26 28  1  0  0  0  0
 26 29  1  0  0  0  0
M  END
$$$$

  -OEChem-03222214043D

 29 29  0     1  0  0  0  0  0999 V2000
   -3.1058   -3.9615    0.6517 H   0  0  0  0  0  0  0  0  0  0  0  0
   -3.0169   -3.0462    0.0595 C   0  0  0  0  0  0  0  0  0  0  0  0
   -3.7741   -2.3346    0.3970 H   0  0  0  0  0  0  0  0  0  0  0  0
   -3.1948   -3.2895   -0.9907 H   0  0  0  0  0  0  0  0  0  0  0  0
   -1.6323   -2.4499    0.2281 C   0  0  0  0  0  0  0  0  0  0  0  0
   -0.8323   -2.9794    0.9770 O   0  0  0  0  0  0  0  0  0  0  0  0
   -1.2861   -1.3115   -0.4740 N   0  0  0  0  0  0  0  0  0  0  0  0
   -1.9671   -0.9619   -1.1413 H   0  0  0  0  0  0  0  0  0  0  0  0
    0.0500   -0.6845   -0.4322 C   0  0  1  0  0  0  0  0  0  0  0  0
    0.7912   -1.4246   -0.7530 H   0  0  0  0  0  0  0  0  0  0  0  0
    0.0499    0.4658   -1.4613 C   0  0  0  0  0  0  0  0  0  0  0  0
    0.0854    0.0353   -2.4672 H   0  0  0  0  0  0  0  0  0  0  0  0
   -0.8846    1.0297   -1.3747 H   0  0  0  0  0  0  0  0  0  0  0  0
    1.1957    1.4345   -1.3090 C   0  0  0  0  0  0  0  0  0  0  0  0
    2.5275    1.1487   -1.1020 N   0  0  0  0  0  0  0  0  0  0  0  0
    2.9061    0.2400   -0.8341 H   0  0  0  0  0  0  0  0  0  0  0  0
    3.2193    2.3416   -1.0152 C   0  0  0  0  0  0  0  0  0  0  0  0
    4.2832    2.4313   -0.8155 H   0  0  0  0  0  0  0  0  0  0  0  0
    2.4044    3.3534   -1.2001 N   0  0  0  0  0  0  0  0  0  0  0  0
    1.1416    2.8020   -1.3788 C   0  0  0  0  0  0  0  0  0  0  0  0
    0.2372    3.3784   -1.5486 H   0  0  0  0  0  0  0  0  0  0  0  0
    0.4835   -0.2251    0.9809 C   0  0  0  0  0  0  0  0  0  0  0  0
    1.6459   -0.3795    1.3404 O   0  0  0  0  0  0  0  0  0  0  0  0
   -0.3998    0.4560    1.7996 N   0  0  0  0  0  0  0  0  0  0  0  0
   -1.3696    0.4858    1.5048 H   0  0  0  0  0  0  0  0  0  0  0  0
   -0.0537    0.9061    3.1415 C   0  0  0  0  0  0  0  0  0  0  0  0
    0.7989    1.5926    3.1067 H   0  0  0  0  0  0  0  0  0  0  0  0
   -0.8997    1.4308    3.5951 H   0  0  0  0  0  0  0  0  0  0  0  0
    0.2062    0.0524    3.7762 H   0  0  0  0  0  0  0  0  0  0  0  0
  1  2  1  0  0  0  0
  2  3  1  0  0  0  0
  2  4  1  0  0  0  0
  2  5  1  0  0  0  0
  5  6  2  0  0  0  0
  5  7  1  0  0  0  0
  7  8  1  0  0  0  0
  7  9  1  0  0  0  0
  9 10  1  0  0  0  0
  9 11  1  0  0  0  0
  9 22  1  0  0  0  0
 11 12  1  0  0  0  0
 11 13  1  0  0  0  0
 11 14  1  0  0  0  0
 14 15  1  0  0  0  0
 14 20  2  0  0  0  0
 15 16  1  0  0  0  0
 15 17  1  0  0  0  0
 17 18  1  0  0  0  0
 17 19  2  0  0  0  0
 19 20  1  0  0  0  0
 20 21  1  0  0  0  0
 22 23  2  0  0  0  0
 22 24  1  0  0  0  0
 24 25  1  0  0  0  0
 24 26  1  0  0  0  0
 26 27  1  0  0  0  0
 26 28  1  0  0  0  0
 26 29  1  0  0  0  0
M  END
$$$$

  -OEChem-03222214043D

 29 29  0     1  0  0  0  0  0999 V2000
   -3.0874   -3.9768    0.6502 H   0  0  0  0  0  0  0  0  0  0  0  0
   -3.0056   -3.0611    0.0575 C   0  0  0  0  0  0  0  0  0  0  0  0
   -3.7666   -2.3543    0.3967 H   0  0  0  0  0  0  0  0  0  0  0  0
   -3.1848   -3.3057   -0.9922 H   0  0  0  0  0  0  0  0  0  0  0  0
   -1.6240   -2.4561    0.2225 C   0  0  0  0  0  0  0  0  0  0  0  0
   -0.8178   -2.9833    0.9662 O   0  0  0  0  0  0  0  0  0  0  0  0
   -1.2875   -1.3142   -0.4785 N   0  0  0  0  0  0  0  0  0  0  0  0
   -1.9741   -0.9658   -1.1405 H   0  0  0  0  0  0  0  0  0  0  0  0
    0.0436   -0.6761   -0.4377 C   0  0  1  0  0  0  0  0  0  0  0  0
    0.7909   -1.4088   -0.7614 H   0  0  0  0  0  0  0  0  0  0  0  0
    0.0312    0.4777   -1.4616 C   0  0  0  0  0  0  0  0  0  0  0  0
    0.0615    0.0596   -2.4726 H   0  0  0  0  0  0  0  0  0  0  0  0
   -0.9046    1.0374   -1.3621 H   0  0  0  0  0  0  0  0  0  0  0  0
    1.1745    1.4445   -1.2943 C   0  0  0  0  0  0  0  0  0  0  0  0
    2.5230    1.1753   -1.3673 N   0  0  0  0  0  0  0  0  0  0  0  0
    2.9498    0.2510   -1.3996 H   0  0  0  0  0  0  0  0  0  0  0  0
    3.2122    2.3556   -1.1616 C   0  0  0  0  0  0  0  0  0  0  0  0
    4.2941    2.4476   -1.1294 H   0  0  0  0  0  0  0  0  0  0  0  0
    2.3720    3.3519   -1.0091 N   0  0  0  0  0  0  0  0  0  0  0  0
    1.1004    2.7966   -1.0833 C   0  0  0  0  0  0  0  0  0  0  0  0
    0.1765    3.3591   -0.9890 H   0  0  0  0  0  0  0  0  0  0  0  0
    0.4806   -0.2124    0.9733 C   0  0  0  0  0  0  0  0  0  0  0  0
    1.6466   -0.3492    1.3253 O   0  0  0  0  0  0  0  0  0  0  0  0
   -0.4042    0.4626    1.7961 N   0  0  0  0  0  0  0  0  0  0  0  0
   -1.3774    0.4761    1.5123 H   0  0  0  0  0  0  0  0  0  0  0  0
   -0.0480    0.9296    3.1299 C   0  0  0  0  0  0  0  0  0  0  0  0
    0.8034    1.6169    3.0800 H   0  0  0  0  0  0  0  0  0  0  0  0
   -0.8910    1.4590    3.5839 H   0  0  0  0  0  0  0  0  0  0  0  0
    0.2186    0.0839    3.7726 H   0  0  0  0  0  0  0  0  0  0  0  0
  1  2  1  0  0  0  0
  2  3  1  0  0  0  0
  2  4  1  0  0  0  0
  2  5  1  0  0  0  0
  5  6  2  0  0  0  0
  5  7  1  0  0  0  0
  7  8  1  0  0  0  0
  7  9  1  0  0  0  0
  9 10  1  0  0  0  0
  9 11  1  0  0  0  0
  9 22  1  0  0  0  0
 11 12  1  0  0  0  0
 11 13  1  0  0  0  0
 11 14  1  0  0  0  0
 14 15  1  0  0  0  0
 14 20  2  0  0  0  0
 15 16  1  0  0  0  0
 15 17  1  0  0  0  0
 17 18  1  0  0  0  0
 17 19  2  0  0  0  0
 19 20  1  0  0  0  0
 20 21  1  0  0  0  0
 22 23  2  0  0  0  0
 22 24  1  0  0  0  0
 24 25  1  0  0  0  0
 24 26  1  0  0  0  0
 26 27  1  0  0  0  0
 26 28  1  0  0  0  0
 26 29  1  0  0  0  0
M  END
$$$$

  -OEChem-03222214043D

 29 29  0     1  0  0  0  0  0999 V2000
   -3.0816   -3.9797    0.6467 H   0  0  0  0  0  0  0  0  0  0  0  0
   -2.9996   -3.0626    0.0560 C   0  0  0  0  0  0  0  0  0  0  0  0
   -3.7623   -2.3573    0.3943 H   0  0  0  0  0  0  0  0  0  0  0  0
   -3.1756   -3.3053   -0.9947 H   0  0  0  0  0  0  0  0  0  0  0  0
   -1.6194   -2.4560    0.2258 C   0  0  0  0  0  0  0  0  0  0  0  0
   -0.8145   -2.9832    0.9707 O   0  0  0  0  0  0  0  0  0  0  0  0
   -1.2829   -1.3135   -0.4742 N   0  0  0  0  0  0  0  0  0  0  0  0
   -1.9696   -0.9648   -1.1357 H   0  0  0  0  0  0  0  0  0  0  0  0
    0.0477   -0.6740   -0.4330 C   0  0  1  0  0  0  0  0  0  0  0  0
    0.7985   -1.4018   -0.7597 H   0  0  0  0  0  0  0  0  0  0  0  0
    0.0280    0.4858   -1.4498 C   0  0  0  0  0  0  0  0  0  0  0  0
    0.0442    0.0805   -2.4662 H   0  0  0  0  0  0  0  0  0  0  0  0
   -0.9061    1.0451   -1.3321 H   0  0  0  0  0  0  0  0  0  0  0  0
    1.1703    1.4526   -1.2798 C   0  0  0  0  0  0  0  0  0  0  0  0
    2.4886    1.2662   -1.6304 N   0  0  0  0  0  0  0  0  0  0  0  0
    2.9118    0.3954   -1.9448 H   0  0  0  0  0  0  0  0  0  0  0  0
    3.1840    2.4237   -1.3342 C   0  0  0  0  0  0  0  0  0  0  0  0
    4.2520    2.5627   -1.4758 H   0  0  0  0  0  0  0  0  0  0  0  0
    2.3682    3.3353   -0.8604 N   0  0  0  0  0  0  0  0  0  0  0  0
    1.1126    2.7414   -0.8162 C   0  0  0  0  0  0  0  0  0  0  0  0
    0.2095    3.2353   -0.4706 H   0  0  0  0  0  0  0  0  0  0  0  0
    0.4791   -0.2125    0.9801 C   0  0  0  0  0  0  0  0  0  0  0  0
    1.6438   -0.3417    1.3366 O   0  0  0  0  0  0  0  0  0  0  0  0
   -0.4120    0.4593    1.7990 N   0  0  0  0  0  0  0  0  0  0  0  0
   -1.3856    0.4584    1.5161 H   0  0  0  0  0  0  0  0  0  0  0  0
   -0.0632    0.9253    3.1351 C   0  0  0  0  0  0  0  0  0  0  0  0
    0.7873    1.6140    3.0899 H   0  0  0  0  0  0  0  0  0  0  0  0
   -0.9093    1.4529    3.5854 H   0  0  0  0  0  0  0  0  0  0  0  0
    0.2024    0.0797    3.7783 H   0  0  0  0  0  0  0  0  0  0  0  0
  1  2  1  0  0  0  0
  2  3  1  0  0  0  0
  2  4  1  0  0  0  0
  2  5  1  0  0  0  0
  5  6  2  0  0  0  0
  5  7  1  0  0  0  0
  7  8  1  0  0  0  0
  7  9  1  0  0  0  0
  9 10  1  0  0  0  0
  9 11  1  0  0  0  0
  9 22  1  0  0  0  0
 11 12  1  0  0  0  0
 11 13  1  0  0  0  0
 11 14  1  0  0  0  0
 14 15  1  0  0  0  0
 14 20  2  0  0  0  0
 15 16  1  0  0  0  0
 15 17  1  0  0  0  0
 17 18  1  0  0  0  0
 17 19  2  0  0  0  0
 19 20  1  0  0  0  0
 20 21  1  0  0  0  0
 22 23  2  0  0  0  0
 22 24  1  0  0  0  0
 24 25  1  0  0  0  0
 24 26  1  0  0  0  0
 26 27  1  0  0  0  0
 26 28  1  0  0  0  0
 26 29  1  0  0  0  0
M  END
$$$$

  -OEChem-03222214043D

 29 29  0     1  0  0  0  0  0999 V2000
   -3.0845   -3.9724    0.6471 H   0  0  0  0  0  0  0  0  0  0  0  0
   -2.9989   -3.0536    0.0597 C   0  0  0  0  0  0  0  0  0  0  0  0
   -3.7572   -2.3455    0.4020 H   0  0  0  0  0  0  0  0  0  0  0  0
   -3.1780   -3.2916   -0.9915 H   0  0  0  0  0  0  0  0  0  0  0  0
   -1.6152   -2.4550    0.2292 C   0  0  0  0  0  0  0  0  0  0  0  0
   -0.8136   -2.9863    0.9746 O   0  0  0  0  0  0  0  0  0  0  0  0
   -1.2737   -1.3128   -0.4690 N   0  0  0  0  0  0  0  0  0  0  0  0
   -1.9587   -0.9612   -1.1307 H   0  0  0  0  0  0  0  0  0  0  0  0
    0.0581   -0.6755   -0.4238 C   0  0  1  0  0  0  0  0  0  0  0  0
    0.8113   -1.4017   -0.7488 H   0  0  0  0  0  0  0  0  0  0  0  0
    0.0389    0.4880   -1.4369 C   0  0  0  0  0  0  0  0  0  0  0  0
    0.0448    0.0883   -2.4558 H   0  0  0  0  0  0  0  0  0  0  0  0
   -0.8932    1.0483   -1.3086 H   0  0  0  0  0  0  0  0  0  0  0  0
    1.1789    1.4596   -1.2722 C   0  0  0  0  0  0  0  0  0  0  0  0
    2.4182    1.4066   -1.8699 N   0  0  0  0  0  0  0  0  0  0  0  0
    2.7884    0.6394   -2.4266 H   0  0  0  0  0  0  0  0  0  0  0  0
    3.1276    2.5344   -1.5006 C   0  0  0  0  0  0  0  0  0  0  0  0
    4.1482    2.7550   -1.7999 H   0  0  0  0  0  0  0  0  0  0  0  0
    2.3888    3.3075   -0.7419 N   0  0  0  0  0  0  0  0  0  0  0  0
    1.1748    2.6486   -0.5882 C   0  0  0  0  0  0  0  0  0  0  0  0
    0.3334    3.0323   -0.0190 H   0  0  0  0  0  0  0  0  0  0  0  0
    0.4780   -0.2185    0.9942 C   0  0  0  0  0  0  0  0  0  0  0  0
    1.6395   -0.3425    1.3606 O   0  0  0  0  0  0  0  0  0  0  0  0
   -0.4217    0.4513    1.8056 N   0  0  0  0  0  0  0  0  0  0  0  0
   -1.3940    0.4369    1.5186 H   0  0  0  0  0  0  0  0  0  0  0  0
   -0.0892    0.9015    3.1513 C   0  0  0  0  0  0  0  0  0  0  0  0
    0.7589    1.5942    3.1244 H   0  0  0  0  0  0  0  0  0  0  0  0
   -0.9424    1.4195    3.5995 H   0  0  0  0  0  0  0  0  0  0  0  0
    0.1727    0.0482    3.7859 H   0  0  0  0  0  0  0  0  0  0  0  0
  1  2  1  0  0  0  0
  2  3  1  0  0  0  0
  2  4  1  0  0  0  0
  2  5  1  0  0  0  0
  5  6  2  0  0  0  0
  5  7  1  0  0  0  0
  7  8  1  0  0  0  0
  7  9  1  0  0  0  0
  9 10  1  0  0  0  0
  9 11  1  0  0  0  0
  9 22  1  0  0  0  0
 11 12  1  0  0  0  0
 11 13  1  0  0  0  0
 11 14  1  0  0  0  0
 14 15  1  0  0  0  0
 14 20  2  0  0  0  0
 15 16  1  0  0  0  0
 15 17  1  0  0  0  0
 17 18  1  0  0  0  0
 17 19  2  0  0  0  0
 19 20  1  0  0  0  0
 20 21  1  0  0  0  0
 22 23  2  0  0  0  0
 22 24  1  0  0  0  0
 24 25  1  0  0  0  0
 24 26  1  0  0  0  0
 26 27  1  0  0  0  0
 26 28  1  0  0  0  0
 26 29  1  0  0  0  0
M  END
$$$$

  -OEChem-03222214043D

 29 29  0     1  0  0  0  0  0999 V2000
   -3.0957   -3.9728    0.6196 H   0  0  0  0  0  0  0  0  0  0  0  0
   -3.0033   -3.0484    0.0419 C   0  0  0  0  0  0  0  0  0  0  0  0
   -3.7663   -2.3442    0.3816 H   0  0  0  0  0  0  0  0  0  0  0  0
   -3.1695   -3.2764   -1.0137 H   0  0  0  0  0  0  0  0  0  0  0  0
   -1.6221   -2.4513    0.2341 C   0  0  0  0  0  0  0  0  0  0  0  0
   -0.8335   -2.9854    0.9911 O   0  0  0  0  0  0  0  0  0  0  0  0
   -1.2688   -1.3081   -0.4568 N   0  0  0  0  0  0  0  0  0  0  0  0
   -1.9447   -0.9541   -1.1265 H   0  0  0  0  0  0  0  0  0  0  0  0
    0.0668   -0.6784   -0.4012 C   0  0  1  0  0  0  0  0  0  0  0  0
    0.8184   -1.4080   -0.7223 H   0  0  0  0  0  0  0  0  0  0  0  0
    0.0595    0.4847   -1.4167 C   0  0  0  0  0  0  0  0  0  0  0  0
    0.0621    0.0794   -2.4333 H   0  0  0  0  0  0  0  0  0  0  0  0
   -0.8715    1.0474   -1.2915 H   0  0  0  0  0  0  0  0  0  0  0  0
    1.1951    1.4668   -1.2657 C   0  0  0  0  0  0  0  0  0  0  0  0
    2.3103    1.5774   -2.0670 N   0  0  0  0  0  0  0  0  0  0  0  0
    2.5872    0.9382   -2.8086 H   0  0  0  0  0  0  0  0  0  0  0  0
    3.0414    2.6749   -1.6514 C   0  0  0  0  0  0  0  0  0  0  0  0
    3.9845    2.9967   -2.0837 H   0  0  0  0  0  0  0  0  0  0  0  0
    2.4274    3.2808   -0.6648 N   0  0  0  0  0  0  0  0  0  0  0  0
    1.2786    2.5395   -0.4128 C   0  0  0  0  0  0  0  0  0  0  0  0
    0.5360    2.7932    0.3378 H   0  0  0  0  0  0  0  0  0  0  0  0
    0.4754   -0.2321    1.0229 C   0  0  0  0  0  0  0  0  0  0  0  0
    1.6335   -0.3587    1.3978 O   0  0  0  0  0  0  0  0  0  0  0  0
   -0.4282    0.4374    1.8304 N   0  0  0  0  0  0  0  0  0  0  0  0
   -1.3991    0.4227    1.5385 H   0  0  0  0  0  0  0  0  0  0  0  0
   -0.1053    0.8704    3.1841 C   0  0  0  0  0  0  0  0  0  0  0  0
    0.7449    1.5610    3.1727 H   0  0  0  0  0  0  0  0  0  0  0  0
   -0.9604    1.3850    3.6324 H   0  0  0  0  0  0  0  0  0  0  0  0
    0.1495    0.0085    3.8099 H   0  0  0  0  0  0  0  0  0  0  0  0
  1  2  1  0  0  0  0
  2  3  1  0  0  0  0
  2  4  1  0  0  0  0
  2  5  1  0  0  0  0
  5  6  2  0  0  0  0
  5  7  1  0  0  0  0
  7  8  1  0  0  0  0
  7  9  1  0  0  0  0
  9 10  1  0  0  0  0
  9 11  1  0  0  0  0
  9 22  1  0  0  0  0
 11 12  1  0  0  0  0
 11 13  1  0  0  0  0
 11 14  1  0  0  0  0
 14 15  1  0  0  0  0
 14 20  2  0  0  0  0
 15 16  1  0  0  0  0
 15 17  1  0  0  0  0
 17 18  1  0  0  0  0
 17 19  2  0  0  0  0
 19 20  1  0  0  0  0
 20 21  1  0  0  0  0
 22 23  2  0  0  0  0
 22 24  1  0  0  0  0
 24 25  1  0  0  0  0
 24 26  1  0  0  0  0
 26 27  1  0  0  0  0
 26 28  1  0  0  0  0
 26 29  1  0  0  0  0
M  END
$$$$

  -OEChem-03222214043D

 29 29  0     1  0  0  0  0  0999 V2000
   -3.1004   -3.9630    0.6050 H   0  0  0  0  0  0  0  0  0  0  0  0
   -3.0012   -3.0361    0.0329 C   0  0  0  0  0  0  0  0  0  0  0  0
   -3.7613   -2.3293    0.3741 H   0  0  0  0  0  0  0  0  0  0  0  0
   -3.1651   -3.2584   -1.0241 H   0  0  0  0  0  0  0  0  0  0  0  0
   -1.6175   -2.4473    0.2323 C   0  0  0  0  0  0  0  0  0  0  0  0
   -0.8331   -2.9927    0.9855 O   0  0  0  0  0  0  0  0  0  0  0  0
   -1.2568   -1.2992   -0.4468 N   0  0  0  0  0  0  0  0  0  0  0  0
   -1.9297   -0.9341   -1.1136 H   0  0  0  0  0  0  0  0  0  0  0  0
    0.0809   -0.6743   -0.3785 C   0  0  1  0  0  0  0  0  0  0  0  0
    0.8338   -1.4052   -0.6942 H   0  0  0  0  0  0  0  0  0  0  0  0
    0.0877    0.4899   -1.3962 C   0  0  0  0  0  0  0  0  0  0  0  0
    0.0966    0.0720   -2.4075 H   0  0  0  0  0  0  0  0  0  0  0  0
   -0.8454    1.0517   -1.2844 H   0  0  0  0  0  0  0  0  0  0  0  0
    1.2144    1.4894   -1.2656 C   0  0  0  0  0  0  0  0  0  0  0  0
    2.1548    1.7775   -2.2317 N   0  0  0  0  0  0  0  0  0  0  0  0
    2.2819    1.2883   -3.1147 H   0  0  0  0  0  0  0  0  0  0  0  0
    2.9436    2.8208   -1.7848 C   0  0  0  0  0  0  0  0  0  0  0  0
    3.7804    3.2488   -2.3291 H   0  0  0  0  0  0  0  0  0  0  0  0
    2.5300    3.2285   -0.6112 N   0  0  0  0  0  0  0  0  0  0  0  0
    1.4560    2.4112   -0.2749 C   0  0  0  0  0  0  0  0  0  0  0  0
    0.8704    2.5171    0.6328 H   0  0  0  0  0  0  0  0  0  0  0  0
    0.4662   -0.2482    1.0575 C   0  0  0  0  0  0  0  0  0  0  0  0
    1.6200   -0.3693    1.4464 O   0  0  0  0  0  0  0  0  0  0  0  0
   -0.4513    0.4110    1.8579 N   0  0  0  0  0  0  0  0  0  0  0  0
   -1.4179    0.3915    1.5518 H   0  0  0  0  0  0  0  0  0  0  0  0
   -0.1542    0.8209    3.2246 C   0  0  0  0  0  0  0  0  0  0  0  0
    0.6952    1.5122    3.2414 H   0  0  0  0  0  0  0  0  0  0  0  0
   -1.0186    1.3273    3.6642 H   0  0  0  0  0  0  0  0  0  0  0  0
    0.0894   -0.0511    3.8410 H   0  0  0  0  0  0  0  0  0  0  0  0
  1  2  1  0  0  0  0
  2  3  1  0  0  0  0
  2  4  1  0  0  0  0
  2  5  1  0  0  0  0
  5  6  2  0  0  0  0
  5  7  1  0  0  0  0
  7  8  1  0  0  0  0
  7  9  1  0  0  0  0
  9 10  1  0  0  0  0
  9 11  1  0  0  0  0
  9 22  1  0  0  0  0
 11 12  1  0  0  0  0
 11 13  1  0  0  0  0
 11 14  1  0  0  0  0
 14 15  1  0  0  0  0
 14 20  2  0  0  0  0
 15 16  1  0  0  0  0
 15 17  1  0  0  0  0
 17 18  1  0  0  0  0
 17 19  2  0  0  0  0
 19 20  1  0  0  0  0
 20 21  1  0  0  0  0
 22 23  2  0  0  0  0
 22 24  1  0  0  0  0
 24 25  1  0  0  0  0
 24 26  1  0  0  0  0
 26 27  1  0  0  0  0
 26 28  1  0  0  0  0
 26 29  1  0  0  0  0
M  END
$$$$

  -OEChem-03222214043D

 29 29  0     1  0  0  0  0  0999 V2000
   -3.1221   -3.9445    0.5697 H   0  0  0  0  0  0  0  0  0  0  0  0
   -3.0041   -3.0174    0.0013 C   0  0  0  0  0  0  0  0  0  0  0  0
   -3.7634   -2.3044    0.3306 H   0  0  0  0  0  0  0  0  0  0  0  0
   -3.1516   -3.2356   -1.0592 H   0  0  0  0  0  0  0  0  0  0  0  0
   -1.6184   -2.4423    0.2269 C   0  0  0  0  0  0  0  0  0  0  0  0
   -0.8500   -3.0011    0.9867 O   0  0  0  0  0  0  0  0  0  0  0  0
   -1.2382   -1.2909   -0.4362 N   0  0  0  0  0  0  0  0  0  0  0  0
   -1.8995   -0.9138   -1.1080 H   0  0  0  0  0  0  0  0  0  0  0  0
    0.1028   -0.6749   -0.3428 C   0  0  1  0  0  0  0  0  0  0  0  0
    0.8575   -1.4072   -0.6505 H   0  0  0  0  0  0  0  0  0  0  0  0
    0.1222    0.4919   -1.3607 C   0  0  0  0  0  0  0  0  0  0  0  0
    0.1472    0.0560   -2.3645 H   0  0  0  0  0  0  0  0  0  0  0  0
   -0.8181    1.0454   -1.2709 H   0  0  0  0  0  0  0  0  0  0  0  0
    1.2317    1.5196   -1.2577 C   0  0  0  0  0  0  0  0  0  0  0  0
    1.9486    1.9969   -2.3355 N   0  0  0  0  0  0  0  0  0  0  0  0
    1.8757    1.6742   -3.2975 H   0  0  0  0  0  0  0  0  0  0  0  0
    2.8211    2.9741   -1.8969 C   0  0  0  0  0  0  0  0  0  0  0  0
    3.5203    3.5173   -2.5263 H   0  0  0  0  0  0  0  0  0  0  0  0
    2.6775    3.1584   -0.6097 N   0  0  0  0  0  0  0  0  0  0  0  0
    1.6969    2.2623   -0.1958 C   0  0  0  0  0  0  0  0  0  0  0  0
    1.3333    2.1999    0.8244 H   0  0  0  0  0  0  0  0  0  0  0  0
    0.4589   -0.2675    1.1053 C   0  0  0  0  0  0  0  0  0  0  0  0
    1.6006   -0.4093    1.5218 O   0  0  0  0  0  0  0  0  0  0  0  0
   -0.4716    0.3879    1.8940 N   0  0  0  0  0  0  0  0  0  0  0  0
   -1.4296    0.3863    1.5620 H   0  0  0  0  0  0  0  0  0  0  0  0
   -0.2081    0.7675    3.2765 C   0  0  0  0  0  0  0  0  0  0  0  0
    0.6482    1.4483    3.3312 H   0  0  0  0  0  0  0  0  0  0  0  0
   -1.0786    1.2754    3.7023 H   0  0  0  0  0  0  0  0  0  0  0  0
    0.0080   -0.1193    3.8819 H   0  0  0  0  0  0  0  0  0  0  0  0
  1  2  1  0  0  0  0
  2  3  1  0  0  0  0
  2  4  1  0  0  0  0
  2  5  1  0  0  0  0
  5  6  2  0  0  0  0
  5  7  1  0  0  0  0
  7  8  1  0  0  0  0
  7  9  1  0  0  0  0
  9 10  1  0  0  0  0
  9 11  1  0  0  0  0
  9 22  1  0  0  0  0
 11 12  1  0  0  0  0
 11 13  1  0  0  0  0
 11 14  1  0  0  0  0
 14 15  1  0  0  0  0
 14 20  2  0  0  0  0
 15 16  1  0  0  0  0
 15 17  1  0  0  0  0
 17 18  1  0  0  0  0
 17 19  2  0  0  0  0
 19 20  1  0  0  0  0
 20 21  1  0  0  0  0
 22 23  2  0  0  0  0
 22 24  1  0  0  0  0
 24 25  1  0  0  0  0
 24 26  1  0  0  0  0
 26 27  1  0  0  0  0
 26 28  1  0  0  0  0
 26 29  1  0  0  0  0
M  END
$$$$

  -OEChem-03222214043D

 29 29  0     1  0  0  0  0  0999 V2000
   -3.1522   -3.9175    0.5305 H   0  0  0  0  0  0  0  0  0  0  0  0
   -3.0098   -2.9931   -0.0368 C   0  0  0  0  0  0  0  0  0  0  0  0
   -3.7712   -2.2721    0.2698 H   0  0  0  0  0  0  0  0  0  0  0  0
   -3.1297   -3.2130   -1.1003 H   0  0  0  0  0  0  0  0  0  0  0  0
   -1.6253   -2.4303    0.2247 C   0  0  0  0  0  0  0  0  0  0  0  0
   -0.8780   -3.0027    0.9952 O   0  0  0  0  0  0  0  0  0  0  0  0
   -1.2206   -1.2800   -0.4261 N   0  0  0  0  0  0  0  0  0  0  0  0
   -1.8642   -0.8966   -1.1111 H   0  0  0  0  0  0  0  0  0  0  0  0
    0.1253   -0.6780   -0.3067 C   0  0  1  0  0  0  0  0  0  0  0  0
    0.8820   -1.4110   -0.6089 H   0  0  0  0  0  0  0  0  0  0  0  0
    0.1540    0.4943   -1.3201 C   0  0  0  0  0  0  0  0  0  0  0  0
    0.1938    0.0492   -2.3194 H   0  0  0  0  0  0  0  0  0  0  0  0
   -0.7922    1.0399   -1.2446 H   0  0  0  0  0  0  0  0  0  0  0  0
    1.2488    1.5427   -1.2382 C   0  0  0  0  0  0  0  0  0  0  0  0
    1.7172    2.2151   -2.3493 N   0  0  0  0  0  0  0  0  0  0  0  0
    1.4221    2.0644   -3.3111 H   0  0  0  0  0  0  0  0  0  0  0  0
    2.6833    3.1204   -1.9576 C   0  0  0  0  0  0  0  0  0  0  0  0
    3.2306    3.7808   -2.6241 H   0  0  0  0  0  0  0  0  0  0  0  0
    2.8409    3.0702   -0.6608 N   0  0  0  0  0  0  0  0  0  0  0  0
    1.9637    2.0942   -0.1967 C   0  0  0  0  0  0  0  0  0  0  0  0
    1.8569    1.8500    0.8536 H   0  0  0  0  0  0  0  0  0  0  0  0
    0.4547   -0.2827    1.1502 C   0  0  0  0  0  0  0  0  0  0  0  0
    1.5706   -0.4929    1.6065 O   0  0  0  0  0  0  0  0  0  0  0  0
   -0.4818    0.3779    1.9267 N   0  0  0  0  0  0  0  0  0  0  0  0
   -1.4260    0.4262    1.5604 H   0  0  0  0  0  0  0  0  0  0  0  0
   -0.2513    0.7137    3.3262 C   0  0  0  0  0  0  0  0  0  0  0  0
    0.6329    1.3522    3.4267 H   0  0  0  0  0  0  0  0  0  0  0  0
   -1.1123    1.2521    3.7336 H   0  0  0  0  0  0  0  0  0  0  0  0
   -0.0981   -0.1959    3.9166 H   0  0  0  0  0  0  0  0  0  0  0  0
  1  2  1  0  0  0  0
  2  3  1  0  0  0  0
  2  4  1  0  0  0  0
  2  5  1  0  0  0  0
  5  6  2  0  0  0  0
  5  7  1  0  0  0  0
  7  8  1  0  0  0  0
  7  9  1  0  0  0  0
  9 10  1  0  0  0  0
  9 11  1  0  0  0  0
  9 22  1  0  0  0  0
 11 12  1  0  0  0  0
 11 13  1  0  0  0  0
 11 14  1  0  0  0  0
 14 15  1  0  0  0  0
 14 20  2  0  0  0  0
 15 16  1  0  0  0  0
 15 17  1  0  0  0  0
 17 18  1  0  0  0  0
 17 19  2  0  0  0  0
 19 20  1  0  0  0  0
 20 21  1  0  0  0  0
 22 23  2  0  0  0  0
 22 24  1  0  0  0  0
 24 25  1  0  0  0  0
 24 26  1  0  0  0  0
 26 27  1  0  0  0  0
 26 28  1  0  0  0  0
 26 29  1  0  0  0  0
M  END
$$$$

  -OEChem-03222214043D

 29 29  0     1  0  0  0  0  0999 V2000
   -3.1731   -3.8824    0.5353 H   0  0  0  0  0  0  0  0  0  0  0  0
   -3.0172   -2.9605   -0.0325 C   0  0  0  0  0  0  0  0  0  0  0  0
   -3.7672   -2.2278    0.2744 H   0  0  0  0  0  0  0  0  0  0  0  0
   -3.1414   -3.1788   -1.0958 H   0  0  0  0  0  0  0  0  0  0  0  0
   -1.6241   -2.4193    0.2285 C   0  0  0  0  0  0  0  0  0  0  0  0
   -0.8866   -3.0049    0.9982 O   0  0  0  0  0  0  0  0  0  0  0  0
   -1.2003   -1.2767   -0.4240 N   0  0  0  0  0  0  0  0  0  0  0  0
   -1.8352   -0.8875   -1.1136 H   0  0  0  0  0  0  0  0  0  0  0  0
    0.1507   -0.6876   -0.2938 C   0  0  1  0  0  0  0  0  0  0  0  0
    0.9083   -1.4204   -0.5935 H   0  0  0  0  0  0  0  0  0  0  0  0
    0.1770    0.4948   -1.2955 C   0  0  0  0  0  0  0  0  0  0  0  0
    0.2076    0.0601   -2.2997 H   0  0  0  0  0  0  0  0  0  0  0  0
   -0.7689    1.0383   -1.2040 H   0  0  0  0  0  0  0  0  0  0  0  0
    1.2675    1.5489   -1.2215 C   0  0  0  0  0  0  0  0  0  0  0  0
    1.5013    2.4294   -2.2594 N   0  0  0  0  0  0  0  0  0  0  0  0
    0.9937    2.4679   -3.1401 H   0  0  0  0  0  0  0  0  0  0  0  0
    2.5576    3.2539   -1.9279 C   0  0  0  0  0  0  0  0  0  0  0  0
    2.9585    4.0437   -2.5568 H   0  0  0  0  0  0  0  0  0  0  0  0
    3.0065    2.9442   -0.7403 N   0  0  0  0  0  0  0  0  0  0  0  0
    2.2284    1.8813   -0.2903 C   0  0  0  0  0  0  0  0  0  0  0  0
    2.3857    1.4095    0.6706 H   0  0  0  0  0  0  0  0  0  0  0  0
    0.4562   -0.2915    1.1698 C   0  0  0  0  0  0  0  0  0  0  0  0
    1.5357   -0.5739    1.6720 O   0  0  0  0  0  0  0  0  0  0  0  0
   -0.4874    0.3799    1.9282 N   0  0  0  0  0  0  0  0  0  0  0  0
   -1.4121    0.4790    1.5250 H   0  0  0  0  0  0  0  0  0  0  0  0
   -0.2997    0.6772    3.3427 C   0  0  0  0  0  0  0  0  0  0  0  0
    0.5985    1.2860    3.4907 H   0  0  0  0  0  0  0  0  0  0  0  0
   -1.1588    1.2326    3.7306 H   0  0  0  0  0  0  0  0  0  0  0  0
   -0.1957   -0.2495    3.9171 H   0  0  0  0  0  0  0  0  0  0  0  0
  1  2  1  0  0  0  0
  2  3  1  0  0  0  0
  2  4  1  0  0  0  0
  2  5  1  0  0  0  0
  5  6  2  0  0  0  0
  5  7  1  0  0  0  0
  7  8  1  0  0  0  0
  7  9  1  0  0  0  0
  9 10  1  0  0  0  0
  9 11  1  0  0  0  0
  9 22  1  0  0  0  0
 11 12  1  0  0  0  0
 11 13  1  0  0  0  0
 11 14  1  0  0  0  0
 14 15  1  0  0  0  0
 14 20  2  0  0  0  0
 15 16  1  0  0  0  0
 15 17  1  0  0  0  0
 17 18  1  0  0  0  0
 17 19  2  0  0  0  0
 19 20  1  0  0  0  0
 20 21  1  0  0  0  0
 22 23  2  0  0  0  0
 22 24  1  0  0  0  0
 24 25  1  0  0  0  0
 24 26  1  0  0  0  0
 26 27  1  0  0  0  0
 26 28  1  0  0  0  0
 26 29  1  0  0  0  0
M  END
$$$$
