default_name
  -OEChem-02102213163D

 29 29  0     1  0  0  0  0  0999 V2000
   -3.6042   -3.5728    1.4576 H   0  0  0  0  0  0  0  0  0  0  0  0
   -3.5202   -2.6488    0.8866 C   0  0  0  0  0  0  0  0  0  0  0  0
   -4.2052   -1.9048    1.2896 H   0  0  0  0  0  0  0  0  0  0  0  0
   -3.7552   -2.8428   -0.1584 H   0  0  0  0  0  0  0  0  0  0  0  0
   -2.1052   -2.1358    0.9946 C   0  0  0  0  0  0  0  0  0  0  0  0
   -1.2852   -2.7288    1.6826 O   0  0  0  0  0  0  0  0  0  0  0  0
   -1.8202   -1.0288    0.3146 N   0  0  0  0  0  0  0  0  0  0  0  0
   -2.5542   -0.5788   -0.2104 H   0  0  0  0  0  0  0  0  0  0  0  0
   -0.5102   -0.3728    0.3086 C   0  0  1  0  0  0  0  0  0  0  0  0
    0.2354   -1.0844   -0.0490 H   0  0  0  0  0  0  0  0  0  0  0  0
   -0.5452    0.8158   -0.6698 C   0  0  0  0  0  0  0  0  0  0  0  0
   -0.8015    0.4511   -1.6661 H   0  0  0  0  0  0  0  0  0  0  0  0
   -1.3254    1.5118   -0.3563 H   0  0  0  0  0  0  0  0  0  0  0  0
    0.7586    1.5662   -0.7548 C   0  0  0  0  0  0  0  0  0  0  0  0
    1.0167    2.6665   -1.5440 N   0  0  0  0  0  0  0  0  0  0  0  0
    0.3916    3.0691   -2.2261 H   0  0  0  0  0  0  0  0  0  0  0  0
    2.2512    3.1082   -1.2503 C   0  0  0  0  0  0  0  0  0  0  0  0
    2.7386    3.9578   -1.7126 H   0  0  0  0  0  0  0  0  0  0  0  0
    2.8014    2.3468   -0.2932 N   0  0  0  0  0  0  0  0  0  0  0  0
    1.8642    1.3610    0.0268 C   0  0  0  0  0  0  0  0  0  0  0  0
    1.9759    0.5945    0.7826 H   0  0  0  0  0  0  0  0  0  0  0  0
   -0.1073    0.0565    1.7296 C   0  0  0  0  0  0  0  0  0  0  0  0
    1.0285   -0.1699    2.1459 O   0  0  0  0  0  0  0  0  0  0  0  0
   -1.0395    0.6588    2.4785 N   0  0  0  0  0  0  0  0  0  0  0  0
   -1.9636    0.7597    2.0849 H   0  0  0  0  0  0  0  0  0  0  0  0
   -0.8222    1.1334    3.8425 C   0  0  0  0  0  0  0  0  0  0  0  0
   -0.0212    1.8761    3.8521 H   0  0  0  0  0  0  0  0  0  0  0  0
   -1.7349    1.5853    4.2320 H   0  0  0  0  0  0  0  0  0  0  0  0
   -0.5312    0.2997    4.4834 H   0  0  0  0  0  0  0  0  0  0  0  0
  5  6  2  0  0  0  0
  5  7  1  0  0  0  0
  2  3  1  0  0  0  0
  2  4  1  0  0  0  0
  2  5  1  0  0  0  0
  1  2  1  0  0  0  0
 22 23  2  0  0  0  0
 22 24  1  0  0  0  0
 20 21  1  0  0  0  0
 19 20  1  0  0  0  0
 17 18  1  0  0  0  0
 17 19  2  0  0  0  0
 15 16  1  0  0  0  0
 15 17  1  0  0  0  0
 14 15  1  0  0  0  0
 14 20  2  0  0  0  0
 11 12  1  0  0  0  0
 11 13  1  0  0  0  0
 11 14  1  0  0  0  0
  9 10  1  0  0  0  0
  9 11  1  0  0  0  0
  9 22  1  0  0  0  0
  7  8  1  0  0  0  0
  7  9  1  0  0  0  0
 26 27  1  0  0  0  0
 26 28  1  0  0  0  0
 26 29  1  0  0  0  0
 24 25  1  0  0  0  0
 24 26  1  0  0  0  0
M  END
$$$$
default_name
  -OEChem-02102213163D

 29 29  0     1  0  0  0  0  0999 V2000
   -3.6042   -3.5728    1.4576 H   0  0  0  0  0  0  0  0  0  0  0  0
   -3.5202   -2.6488    0.8866 C   0  0  0  0  0  0  0  0  0  0  0  0
   -4.2052   -1.9048    1.2896 H   0  0  0  0  0  0  0  0  0  0  0  0
   -3.7552   -2.8428   -0.1584 H   0  0  0  0  0  0  0  0  0  0  0  0
   -2.1052   -2.1358    0.9946 C   0  0  0  0  0  0  0  0  0  0  0  0
   -1.2852   -2.7288    1.6826 O   0  0  0  0  0  0  0  0  0  0  0  0
   -1.8202   -1.0288    0.3146 N   0  0  0  0  0  0  0  0  0  0  0  0
   -2.5542   -0.5788   -0.2104 H   0  0  0  0  0  0  0  0  0  0  0  0
   -0.5102   -0.3728    0.3086 C   0  0  1  0  0  0  0  0  0  0  0  0
    0.2354   -1.0844   -0.0490 H   0  0  0  0  0  0  0  0  0  0  0  0
   -0.5452    0.8158   -0.6698 C   0  0  0  0  0  0  0  0  0  0  0  0
   -0.8015    0.4511   -1.6661 H   0  0  0  0  0  0  0  0  0  0  0  0
   -1.3254    1.5118   -0.3563 H   0  0  0  0  0  0  0  0  0  0  0  0
    0.7586    1.5662   -0.7548 C   0  0  0  0  0  0  0  0  0  0  0  0
    0.9463    2.8158   -1.3055 N   0  0  0  0  0  0  0  0  0  0  0  0
    0.2516    3.3615   -1.7931 H   0  0  0  0  0  0  0  0  0  0  0  0
    2.2206    3.1802   -1.0844 C   0  0  0  0  0  0  0  0  0  0  0  0
    2.6698    4.1121   -1.4052 H   0  0  0  0  0  0  0  0  0  0  0  0
    2.8655    2.2231   -0.4015 N   0  0  0  0  0  0  0  0  0  0  0  0
    1.9482    1.1906   -0.1899 C   0  0  0  0  0  0  0  0  0  0  0  0
    2.1326    0.2736    0.3548 H   0  0  0  0  0  0  0  0  0  0  0  0
   -0.1073    0.0565    1.7296 C   0  0  0  0  0  0  0  0  0  0  0  0
    1.0285   -0.1699    2.1459 O   0  0  0  0  0  0  0  0  0  0  0  0
   -1.0395    0.6588    2.4785 N   0  0  0  0  0  0  0  0  0  0  0  0
   -1.9636    0.7597    2.0849 H   0  0  0  0  0  0  0  0  0  0  0  0
   -0.8222    1.1334    3.8425 C   0  0  0  0  0  0  0  0  0  0  0  0
   -0.0212    1.8761    3.8521 H   0  0  0  0  0  0  0  0  0  0  0  0
   -1.7349    1.5853    4.2320 H   0  0  0  0  0  0  0  0  0  0  0  0
   -0.5312    0.2997    4.4834 H   0  0  0  0  0  0  0  0  0  0  0  0
  5  6  2  0  0  0  0
  5  7  1  0  0  0  0
  2  3  1  0  0  0  0
  2  4  1  0  0  0  0
  2  5  1  0  0  0  0
  1  2  1  0  0  0  0
 22 23  2  0  0  0  0
 22 24  1  0  0  0  0
 20 21  1  0  0  0  0
 19 20  1  0  0  0  0
 17 18  1  0  0  0  0
 17 19  2  0  0  0  0
 15 16  1  0  0  0  0
 15 17  1  0  0  0  0
 14 15  1  0  0  0  0
 14 20  2  0  0  0  0
 11 12  1  0  0  0  0
 11 13  1  0  0  0  0
 11 14  1  0  0  0  0
  9 10  1  0  0  0  0
  9 11  1  0  0  0  0
  9 22  1  0  0  0  0
  7  8  1  0  0  0  0
  7  9  1  0  0  0  0
 26 27  1  0  0  0  0
 26 28  1  0  0  0  0
 26 29  1  0  0  0  0
 24 25  1  0  0  0  0
 24 26  1  0  0  0  0
M  END
$$$$
default_name
  -OEChem-02102213163D

 29 29  0     1  0  0  0  0  0999 V2000
   -3.6042   -3.5728    1.4576 H   0  0  0  0  0  0  0  0  0  0  0  0
   -3.5202   -2.6488    0.8866 C   0  0  0  0  0  0  0  0  0  0  0  0
   -4.2052   -1.9048    1.2896 H   0  0  0  0  0  0  0  0  0  0  0  0
   -3.7552   -2.8428   -0.1584 H   0  0  0  0  0  0  0  0  0  0  0  0
   -2.1052   -2.1358    0.9946 C   0  0  0  0  0  0  0  0  0  0  0  0
   -1.2852   -2.7288    1.6826 O   0  0  0  0  0  0  0  0  0  0  0  0
   -1.8202   -1.0288    0.3146 N   0  0  0  0  0  0  0  0  0  0  0  0
   -2.5542   -0.5788   -0.2104 H   0  0  0  0  0  0  0  0  0  0  0  0
   -0.5102   -0.3728    0.3086 C   0  0  1  0  0  0  0  0  0  0  0  0
    0.2354   -1.0844   -0.0490 H   0  0  0  0  0  0  0  0  0  0  0  0
   -0.5452    0.8158   -0.6698 C   0  0  0  0  0  0  0  0  0  0  0  0
   -0.8015    0.4511   -1.6661 H   0  0  0  0  0  0  0  0  0  0  0  0
   -1.3254    1.5118   -0.3563 H   0  0  0  0  0  0  0  0  0  0  0  0
    0.7586    1.5662   -0.7548 C   0  0  0  0  0  0  0  0  0  0  0  0
    0.9112    2.9077   -1.0326 N   0  0  0  0  0  0  0  0  0  0  0  0
    0.1765    3.5490   -1.2912 H   0  0  0  0  0  0  0  0  0  0  0  0
    2.2134    3.2131   -0.9041 C   0  0  0  0  0  0  0  0  0  0  0  0
    2.6453    4.1934   -1.0649 H   0  0  0  0  0  0  0  0  0  0  0  0
    2.9117    2.1270   -0.5421 N   0  0  0  0  0  0  0  0  0  0  0  0
    1.9989    1.0732   -0.4481 C   0  0  0  0  0  0  0  0  0  0  0  0
    2.2242    0.0573   -0.1505 H   0  0  0  0  0  0  0  0  0  0  0  0
   -0.1073    0.0565    1.7296 C   0  0  0  0  0  0  0  0  0  0  0  0
    1.0285   -0.1699    2.1459 O   0  0  0  0  0  0  0  0  0  0  0  0
   -1.0395    0.6588    2.4785 N   0  0  0  0  0  0  0  0  0  0  0  0
   -1.9636    0.7597    2.0849 H   0  0  0  0  0  0  0  0  0  0  0  0
   -0.8222    1.1334    3.8425 C   0  0  0  0  0  0  0  0  0  0  0  0
   -0.0212    1.8761    3.8521 H   0  0  0  0  0  0  0  0  0  0  0  0
   -1.7349    1.5853    4.2320 H   0  0  0  0  0  0  0  0  0  0  0  0
   -0.5312    0.2997    4.4834 H   0  0  0  0  0  0  0  0  0  0  0  0
  5  6  2  0  0  0  0
  5  7  1  0  0  0  0
  2  3  1  0  0  0  0
  2  4  1  0  0  0  0
  2  5  1  0  0  0  0
  1  2  1  0  0  0  0
 22 23  2  0  0  0  0
 22 24  1  0  0  0  0
 20 21  1  0  0  0  0
 19 20  1  0  0  0  0
 17 18  1  0  0  0  0
 17 19  2  0  0  0  0
 15 16  1  0  0  0  0
 15 17  1  0  0  0  0
 14 15  1  0  0  0  0
 14 20  2  0  0  0  0
 11 12  1  0  0  0  0
 11 13  1  0  0  0  0
 11 14  1  0  0  0  0
  9 10  1  0  0  0  0
  9 11  1  0  0  0  0
  9 22  1  0  0  0  0
  7  8  1  0  0  0  0
  7  9  1  0  0  0  0
 26 27  1  0  0  0  0
 26 28  1  0  0  0  0
 26 29  1  0  0  0  0
 24 25  1  0  0  0  0
 24 26  1  0  0  0  0
M  END
$$$$
default_name
  -OEChem-02102213163D

 29 29  0     1  0  0  0  0  0999 V2000
   -3.6042   -3.5728    1.4576 H   0  0  0  0  0  0  0  0  0  0  0  0
   -3.5202   -2.6488    0.8866 C   0  0  0  0  0  0  0  0  0  0  0  0
   -4.2052   -1.9048    1.2896 H   0  0  0  0  0  0  0  0  0  0  0  0
   -3.7552   -2.8428   -0.1584 H   0  0  0  0  0  0  0  0  0  0  0  0
   -2.1052   -2.1358    0.9946 C   0  0  0  0  0  0  0  0  0  0  0  0
   -1.2852   -2.7288    1.6826 O   0  0  0  0  0  0  0  0  0  0  0  0
   -1.8202   -1.0288    0.3146 N   0  0  0  0  0  0  0  0  0  0  0  0
   -2.5542   -0.5788   -0.2104 H   0  0  0  0  0  0  0  0  0  0  0  0
   -0.5102   -0.3728    0.3086 C   0  0  1  0  0  0  0  0  0  0  0  0
    0.2354   -1.0844   -0.0490 H   0  0  0  0  0  0  0  0  0  0  0  0
   -0.5452    0.8158   -0.6698 C   0  0  0  0  0  0  0  0  0  0  0  0
   -0.8015    0.4511   -1.6661 H   0  0  0  0  0  0  0  0  0  0  0  0
   -1.3254    1.5118   -0.3563 H   0  0  0  0  0  0  0  0  0  0  0  0
    0.7586    1.5662   -0.7548 C   0  0  0  0  0  0  0  0  0  0  0  0
    0.9139    2.9358   -0.7439 N   0  0  0  0  0  0  0  0  0  0  0  0
    0.1713    3.6188   -0.7548 H   0  0  0  0  0  0  0  0  0  0  0  0
    2.2302    3.2046   -0.7217 C   0  0  0  0  0  0  0  0  0  0  0  0
    2.6666    4.1959   -0.7148 H   0  0  0  0  0  0  0  0  0  0  0  0
    2.9368    2.0649   -0.7053 N   0  0  0  0  0  0  0  0  0  0  0  0
    2.0129    1.0169   -0.7304 C   0  0  0  0  0  0  0  0  0  0  0  0
    2.2443   -0.0399   -0.6989 H   0  0  0  0  0  0  0  0  0  0  0  0
   -0.1073    0.0565    1.7296 C   0  0  0  0  0  0  0  0  0  0  0  0
    1.0285   -0.1699    2.1459 O   0  0  0  0  0  0  0  0  0  0  0  0
   -1.0395    0.6588    2.4785 N   0  0  0  0  0  0  0  0  0  0  0  0
   -1.9636    0.7597    2.0849 H   0  0  0  0  0  0  0  0  0  0  0  0
   -0.8222    1.1334    3.8425 C   0  0  0  0  0  0  0  0  0  0  0  0
   -0.0212    1.8761    3.8521 H   0  0  0  0  0  0  0  0  0  0  0  0
   -1.7349    1.5853    4.2320 H   0  0  0  0  0  0  0  0  0  0  0  0
   -0.5312    0.2997    4.4834 H   0  0  0  0  0  0  0  0  0  0  0  0
  5  6  2  0  0  0  0
  5  7  1  0  0  0  0
  2  3  1  0  0  0  0
  2  4  1  0  0  0  0
  2  5  1  0  0  0  0
  1  2  1  0  0  0  0
 22 23  2  0  0  0  0
 22 24  1  0  0  0  0
 20 21  1  0  0  0  0
 19 20  1  0  0  0  0
 17 18  1  0  0  0  0
 17 19  2  0  0  0  0
 15 16  1  0  0  0  0
 15 17  1  0  0  0  0
 14 15  1  0  0  0  0
 14 20  2  0  0  0  0
 11 12  1  0  0  0  0
 11 13  1  0  0  0  0
 11 14  1  0  0  0  0
  9 10  1  0  0  0  0
  9 11  1  0  0  0  0
  9 22  1  0  0  0  0
  7  8  1  0  0  0  0
  7  9  1  0  0  0  0
 26 27  1  0  0  0  0
 26 28  1  0  0  0  0
 26 29  1  0  0  0  0
 24 25  1  0  0  0  0
 24 26  1  0  0  0  0
M  END
$$$$
default_name
  -OEChem-02102213163D

 29 29  0     1  0  0  0  0  0999 V2000
   -3.6042   -3.5728    1.4576 H   0  0  0  0  0  0  0  0  0  0  0  0
   -3.5202   -2.6488    0.8866 C   0  0  0  0  0  0  0  0  0  0  0  0
   -4.2052   -1.9048    1.2896 H   0  0  0  0  0  0  0  0  0  0  0  0
   -3.7552   -2.8428   -0.1584 H   0  0  0  0  0  0  0  0  0  0  0  0
   -2.1052   -2.1358    0.9946 C   0  0  0  0  0  0  0  0  0  0  0  0
   -1.2852   -2.7288    1.6826 O   0  0  0  0  0  0  0  0  0  0  0  0
   -1.8202   -1.0288    0.3146 N   0  0  0  0  0  0  0  0  0  0  0  0
   -2.5542   -0.5788   -0.2104 H   0  0  0  0  0  0  0  0  0  0  0  0
   -0.5102   -0.3728    0.3086 C   0  0  1  0  0  0  0  0  0  0  0  0
    0.2354   -1.0844   -0.0490 H   0  0  0  0  0  0  0  0  0  0  0  0
   -0.5452    0.8158   -0.6698 C   0  0  0  0  0  0  0  0  0  0  0  0
   -0.8015    0.4511   -1.6661 H   0  0  0  0  0  0  0  0  0  0  0  0
   -1.3254    1.5118   -0.3563 H   0  0  0  0  0  0  0  0  0  0  0  0
    0.7586    1.5662   -0.7548 C   0  0  0  0  0  0  0  0  0  0  0  0
    0.9541    2.8982   -0.4591 N   0  0  0  0  0  0  0  0  0  0  0  0
    0.2364    3.5661   -0.2204 H   0  0  0  0  0  0  0  0  0  0  0  0
    2.2698    3.1553   -0.5495 C   0  0  0  0  0  0  0  0  0  0  0  0
    2.7324    4.1197   -0.3788 H   0  0  0  0  0  0  0  0  0  0  0  0
    2.9390    2.0412   -0.8801 N   0  0  0  0  0  0  0  0  0  0  0  0
    1.9892    1.0256   -1.0175 C   0  0  0  0  0  0  0  0  0  0  0  0
    2.1917   -0.0112   -1.2529 H   0  0  0  0  0  0  0  0  0  0  0  0
   -0.1073    0.0565    1.7296 C   0  0  0  0  0  0  0  0  0  0  0  0
    1.0285   -0.1699    2.1459 O   0  0  0  0  0  0  0  0  0  0  0  0
   -1.0395    0.6588    2.4785 N   0  0  0  0  0  0  0  0  0  0  0  0
   -1.9636    0.7597    2.0849 H   0  0  0  0  0  0  0  0  0  0  0  0
   -0.8222    1.1334    3.8425 C   0  0  0  0  0  0  0  0  0  0  0  0
   -0.0212    1.8761    3.8521 H   0  0  0  0  0  0  0  0  0  0  0  0
   -1.7349    1.5853    4.2320 H   0  0  0  0  0  0  0  0  0  0  0  0
   -0.5312    0.2997    4.4834 H   0  0  0  0  0  0  0  0  0  0  0  0
  5  6  2  0  0  0  0
  5  7  1  0  0  0  0
  2  3  1  0  0  0  0
  2  4  1  0  0  0  0
  2  5  1  0  0  0  0
  1  2  1  0  0  0  0
 22 23  2  0  0  0  0
 22 24  1  0  0  0  0
 20 21  1  0  0  0  0
 19 20  1  0  0  0  0
 17 18  1  0  0  0  0
 17 19  2  0  0  0  0
 15 16  1  0  0  0  0
 15 17  1  0  0  0  0
 14 15  1  0  0  0  0
 14 20  2  0  0  0  0
 11 12  1  0  0  0  0
 11 13  1  0  0  0  0
 11 14  1  0  0  0  0
  9 10  1  0  0  0  0
  9 11  1  0  0  0  0
  9 22  1  0  0  0  0
  7  8  1  0  0  0  0
  7  9  1  0  0  0  0
 26 27  1  0  0  0  0
 26 28  1  0  0  0  0
 26 29  1  0  0  0  0
 24 25  1  0  0  0  0
 24 26  1  0  0  0  0
M  END
$$$$
default_name
  -OEChem-02102213163D

 29 29  0     1  0  0  0  0  0999 V2000
   -3.6042   -3.5728    1.4576 H   0  0  0  0  0  0  0  0  0  0  0  0
   -3.5202   -2.6488    0.8866 C   0  0  0  0  0  0  0  0  0  0  0  0
   -4.2052   -1.9048    1.2896 H   0  0  0  0  0  0  0  0  0  0  0  0
   -3.7552   -2.8428   -0.1584 H   0  0  0  0  0  0  0  0  0  0  0  0
   -2.1052   -2.1358    0.9946 C   0  0  0  0  0  0  0  0  0  0  0  0
   -1.2852   -2.7288    1.6826 O   0  0  0  0  0  0  0  0  0  0  0  0
   -1.8202   -1.0288    0.3146 N   0  0  0  0  0  0  0  0  0  0  0  0
   -2.5542   -0.5788   -0.2104 H   0  0  0  0  0  0  0  0  0  0  0  0
   -0.5102   -0.3728    0.3086 C   0  0  1  0  0  0  0  0  0  0  0  0
    0.2354   -1.0844   -0.0490 H   0  0  0  0  0  0  0  0  0  0  0  0
   -0.5452    0.8158   -0.6698 C   0  0  0  0  0  0  0  0  0  0  0  0
   -0.8015    0.4511   -1.6661 H   0  0  0  0  0  0  0  0  0  0  0  0
   -1.3254    1.5118   -0.3563 H   0  0  0  0  0  0  0  0  0  0  0  0
    0.7586    1.5662   -0.7548 C   0  0  0  0  0  0  0  0  0  0  0  0
    1.0290    2.7976   -0.1976 N   0  0  0  0  0  0  0  0  0  0  0  0
    0.3675    3.3946    0.2757 H   0  0  0  0  0  0  0  0  0  0  0  0
    2.3295    3.0685   -0.3994 C   0  0  0  0  0  0  0  0  0  0  0  0
    2.8382    3.9698   -0.0798 H   0  0  0  0  0  0  0  0  0  0  0  0
    2.9183    2.0574   -1.0546 N   0  0  0  0  0  0  0  0  0  0  0  0
    1.9294    1.0986   -1.2897 C   0  0  0  0  0  0  0  0  0  0  0  0
    2.0699    0.1414   -1.7748 H   0  0  0  0  0  0  0  0  0  0  0  0
   -0.1073    0.0565    1.7296 C   0  0  0  0  0  0  0  0  0  0  0  0
    1.0285   -0.1699    2.1459 O   0  0  0  0  0  0  0  0  0  0  0  0
   -1.0395    0.6588    2.4785 N   0  0  0  0  0  0  0  0  0  0  0  0
   -1.9636    0.7597    2.0849 H   0  0  0  0  0  0  0  0  0  0  0  0
   -0.8222    1.1334    3.8425 C   0  0  0  0  0  0  0  0  0  0  0  0
   -0.0212    1.8761    3.8521 H   0  0  0  0  0  0  0  0  0  0  0  0
   -1.7349    1.5853    4.2320 H   0  0  0  0  0  0  0  0  0  0  0  0
   -0.5312    0.2997    4.4834 H   0  0  0  0  0  0  0  0  0  0  0  0
  5  6  2  0  0  0  0
  5  7  1  0  0  0  0
  2  3  1  0  0  0  0
  2  4  1  0  0  0  0
  2  5  1  0  0  0  0
  1  2  1  0  0  0  0
 22 23  2  0  0  0  0
 22 24  1  0  0  0  0
 20 21  1  0  0  0  0
 19 20  1  0  0  0  0
 17 18  1  0  0  0  0
 17 19  2  0  0  0  0
 15 16  1  0  0  0  0
 15 17  1  0  0  0  0
 14 15  1  0  0  0  0
 14 20  2  0  0  0  0
 11 12  1  0  0  0  0
 11 13  1  0  0  0  0
 11 14  1  0  0  0  0
  9 10  1  0  0  0  0
  9 11  1  0  0  0  0
  9 22  1  0  0  0  0
  7  8  1  0  0  0  0
  7  9  1  0  0  0  0
 26 27  1  0  0  0  0
 26 28  1  0  0  0  0
 26 29  1  0  0  0  0
 24 25  1  0  0  0  0
 24 26  1  0  0  0  0
M  END
$$$$
default_name
  -OEChem-02102213163D

 29 29  0     1  0  0  0  0  0999 V2000
   -3.6042   -3.5728    1.4576 H   0  0  0  0  0  0  0  0  0  0  0  0
   -3.5202   -2.6488    0.8866 C   0  0  0  0  0  0  0  0  0  0  0  0
   -4.2052   -1.9048    1.2896 H   0  0  0  0  0  0  0  0  0  0  0  0
   -3.7552   -2.8428   -0.1584 H   0  0  0  0  0  0  0  0  0  0  0  0
   -2.1052   -2.1358    0.9946 C   0  0  0  0  0  0  0  0  0  0  0  0
   -1.2852   -2.7288    1.6826 O   0  0  0  0  0  0  0  0  0  0  0  0
   -1.8202   -1.0288    0.3146 N   0  0  0  0  0  0  0  0  0  0  0  0
   -2.5542   -0.5788   -0.2104 H   0  0  0  0  0  0  0  0  0  0  0  0
   -0.5102   -0.3728    0.3086 C   0  0  1  0  0  0  0  0  0  0  0  0
    0.2354   -1.0844   -0.0490 H   0  0  0  0  0  0  0  0  0  0  0  0
   -0.5452    0.8158   -0.6698 C   0  0  0  0  0  0  0  0  0  0  0  0
   -0.8015    0.4511   -1.6661 H   0  0  0  0  0  0  0  0  0  0  0  0
   -1.3254    1.5118   -0.3563 H   0  0  0  0  0  0  0  0  0  0  0  0
    0.7586    1.5662   -0.7548 C   0  0  0  0  0  0  0  0  0  0  0  0
    1.1337    2.6407    0.0228 N   0  0  0  0  0  0  0  0  0  0  0  0
    0.5555    3.1160    0.6995 H   0  0  0  0  0  0  0  0  0  0  0  0
    2.4053    2.9502   -0.2815 C   0  0  0  0  0  0  0  0  0  0  0  0
    2.9767    3.7565    0.1618 H   0  0  0  0  0  0  0  0  0  0  0  0
    2.8761    2.1124   -1.2168 N   0  0  0  0  0  0  0  0  0  0  0  0
    1.8376    1.2310   -1.5287 C   0  0  0  0  0  0  0  0  0  0  0  0
    1.8871    0.4074   -2.2291 H   0  0  0  0  0  0  0  0  0  0  0  0
   -0.1073    0.0565    1.7296 C   0  0  0  0  0  0  0  0  0  0  0  0
    1.0285   -0.1699    2.1459 O   0  0  0  0  0  0  0  0  0  0  0  0
   -1.0395    0.6588    2.4785 N   0  0  0  0  0  0  0  0  0  0  0  0
   -1.9636    0.7597    2.0849 H   0  0  0  0  0  0  0  0  0  0  0  0
   -0.8222    1.1334    3.8425 C   0  0  0  0  0  0  0  0  0  0  0  0
   -0.0212    1.8761    3.8521 H   0  0  0  0  0  0  0  0  0  0  0  0
   -1.7349    1.5853    4.2320 H   0  0  0  0  0  0  0  0  0  0  0  0
   -0.5312    0.2997    4.4834 H   0  0  0  0  0  0  0  0  0  0  0  0
  5  6  2  0  0  0  0
  5  7  1  0  0  0  0
  2  3  1  0  0  0  0
  2  4  1  0  0  0  0
  2  5  1  0  0  0  0
  1  2  1  0  0  0  0
 22 23  2  0  0  0  0
 22 24  1  0  0  0  0
 20 21  1  0  0  0  0
 19 20  1  0  0  0  0
 17 18  1  0  0  0  0
 17 19  2  0  0  0  0
 15 16  1  0  0  0  0
 15 17  1  0  0  0  0
 14 15  1  0  0  0  0
 14 20  2  0  0  0  0
 11 12  1  0  0  0  0
 11 13  1  0  0  0  0
 11 14  1  0  0  0  0
  9 10  1  0  0  0  0
  9 11  1  0  0  0  0
  9 22  1  0  0  0  0
  7  8  1  0  0  0  0
  7  9  1  0  0  0  0
 26 27  1  0  0  0  0
 26 28  1  0  0  0  0
 26 29  1  0  0  0  0
 24 25  1  0  0  0  0
 24 26  1  0  0  0  0
M  END
$$$$
default_name
  -OEChem-02102213163D

 29 29  0     1  0  0  0  0  0999 V2000
   -3.6042   -3.5728    1.4576 H   0  0  0  0  0  0  0  0  0  0  0  0
   -3.5202   -2.6488    0.8866 C   0  0  0  0  0  0  0  0  0  0  0  0
   -4.2052   -1.9048    1.2896 H   0  0  0  0  0  0  0  0  0  0  0  0
   -3.7552   -2.8428   -0.1584 H   0  0  0  0  0  0  0  0  0  0  0  0
   -2.1052   -2.1358    0.9946 C   0  0  0  0  0  0  0  0  0  0  0  0
   -1.2852   -2.7288    1.6826 O   0  0  0  0  0  0  0  0  0  0  0  0
   -1.8202   -1.0288    0.3146 N   0  0  0  0  0  0  0  0  0  0  0  0
   -2.5542   -0.5788   -0.2104 H   0  0  0  0  0  0  0  0  0  0  0  0
   -0.5102   -0.3728    0.3086 C   0  0  1  0  0  0  0  0  0  0  0  0
    0.2354   -1.0844   -0.0490 H   0  0  0  0  0  0  0  0  0  0  0  0
   -0.5452    0.8158   -0.6698 C   0  0  0  0  0  0  0  0  0  0  0  0
   -0.8015    0.4511   -1.6661 H   0  0  0  0  0  0  0  0  0  0  0  0
   -1.3254    1.5118   -0.3563 H   0  0  0  0  0  0  0  0  0  0  0  0
    0.7586    1.5662   -0.7548 C   0  0  0  0  0  0  0  0  0  0  0  0
    1.2609    2.4383    0.1871 N   0  0  0  0  0  0  0  0  0  0  0  0
    0.7877    2.7491    1.0223 H   0  0  0  0  0  0  0  0  0  0  0  0
    2.4920    2.8084   -0.2040 C   0  0  0  0  0  0  0  0  0  0  0  0
    3.1385    3.4944    0.3296 H   0  0  0  0  0  0  0  0  0  0  0  0
    2.8152    2.2025   -1.3558 N   0  0  0  0  0  0  0  0  0  0  0  0
    1.7201    1.4137   -1.7180 C   0  0  0  0  0  0  0  0  0  0  0  0
    1.6560    0.7688   -2.5848 H   0  0  0  0  0  0  0  0  0  0  0  0
   -0.1073    0.0565    1.7296 C   0  0  0  0  0  0  0  0  0  0  0  0
    1.0285   -0.1699    2.1459 O   0  0  0  0  0  0  0  0  0  0  0  0
   -1.0395    0.6588    2.4785 N   0  0  0  0  0  0  0  0  0  0  0  0
   -1.9636    0.7597    2.0849 H   0  0  0  0  0  0  0  0  0  0  0  0
   -0.8222    1.1334    3.8425 C   0  0  0  0  0  0  0  0  0  0  0  0
   -0.0212    1.8761    3.8521 H   0  0  0  0  0  0  0  0  0  0  0  0
   -1.7349    1.5853    4.2320 H   0  0  0  0  0  0  0  0  0  0  0  0
   -0.5312    0.2997    4.4834 H   0  0  0  0  0  0  0  0  0  0  0  0
  5  6  2  0  0  0  0
  5  7  1  0  0  0  0
  2  3  1  0  0  0  0
  2  4  1  0  0  0  0
  2  5  1  0  0  0  0
  1  2  1  0  0  0  0
 22 23  2  0  0  0  0
 22 24  1  0  0  0  0
 20 21  1  0  0  0  0
 19 20  1  0  0  0  0
 17 18  1  0  0  0  0
 17 19  2  0  0  0  0
 15 16  1  0  0  0  0
 15 17  1  0  0  0  0
 14 15  1  0  0  0  0
 14 20  2  0  0  0  0
 11 12  1  0  0  0  0
 11 13  1  0  0  0  0
 11 14  1  0  0  0  0
  9 10  1  0  0  0  0
  9 11  1  0  0  0  0
  9 22  1  0  0  0  0
  7  8  1  0  0  0  0
  7  9  1  0  0  0  0
 26 27  1  0  0  0  0
 26 28  1  0  0  0  0
 26 29  1  0  0  0  0
 24 25  1  0  0  0  0
 24 26  1  0  0  0  0
M  END
$$$$
default_name
  -OEChem-02102213163D

 29 29  0     1  0  0  0  0  0999 V2000
   -3.6042   -3.5728    1.4576 H   0  0  0  0  0  0  0  0  0  0  0  0
   -3.5202   -2.6488    0.8866 C   0  0  0  0  0  0  0  0  0  0  0  0
   -4.2052   -1.9048    1.2896 H   0  0  0  0  0  0  0  0  0  0  0  0
   -3.7552   -2.8428   -0.1584 H   0  0  0  0  0  0  0  0  0  0  0  0
   -2.1052   -2.1358    0.9946 C   0  0  0  0  0  0  0  0  0  0  0  0
   -1.2852   -2.7288    1.6826 O   0  0  0  0  0  0  0  0  0  0  0  0
   -1.8202   -1.0288    0.3146 N   0  0  0  0  0  0  0  0  0  0  0  0
   -2.5542   -0.5788   -0.2104 H   0  0  0  0  0  0  0  0  0  0  0  0
   -0.5102   -0.3728    0.3086 C   0  0  1  0  0  0  0  0  0  0  0  0
    0.2354   -1.0844   -0.0490 H   0  0  0  0  0  0  0  0  0  0  0  0
   -0.5452    0.8158   -0.6698 C   0  0  0  0  0  0  0  0  0  0  0  0
   -0.8015    0.4511   -1.6661 H   0  0  0  0  0  0  0  0  0  0  0  0
   -1.3254    1.5118   -0.3563 H   0  0  0  0  0  0  0  0  0  0  0  0
    0.7586    1.5662   -0.7548 C   0  0  0  0  0  0  0  0  0  0  0  0
    1.4020    2.2041    0.2840 N   0  0  0  0  0  0  0  0  0  0  0  0
    1.0481    2.3191    1.2219 H   0  0  0  0  0  0  0  0  0  0  0  0
    2.5836    2.6528   -0.1719 C   0  0  0  0  0  0  0  0  0  0  0  0
    3.3125    3.2013    0.4121 H   0  0  0  0  0  0  0  0  0  0  0  0
    2.7398    2.3215   -1.4620 N   0  0  0  0  0  0  0  0  0  0  0  0
    1.5849    1.6344   -1.8448 C   0  0  0  0  0  0  0  0  0  0  0  0
    1.3921    1.2009   -2.8176 H   0  0  0  0  0  0  0  0  0  0  0  0
   -0.1073    0.0565    1.7296 C   0  0  0  0  0  0  0  0  0  0  0  0
    1.0285   -0.1699    2.1459 O   0  0  0  0  0  0  0  0  0  0  0  0
   -1.0395    0.6588    2.4785 N   0  0  0  0  0  0  0  0  0  0  0  0
   -1.9636    0.7597    2.0849 H   0  0  0  0  0  0  0  0  0  0  0  0
   -0.8222    1.1334    3.8425 C   0  0  0  0  0  0  0  0  0  0  0  0
   -0.0212    1.8761    3.8521 H   0  0  0  0  0  0  0  0  0  0  0  0
   -1.7349    1.5853    4.2320 H   0  0  0  0  0  0  0  0  0  0  0  0
   -0.5312    0.2997    4.4834 H   0  0  0  0  0  0  0  0  0  0  0  0
  5  6  2  0  0  0  0
  5  7  1  0  0  0  0
  2  3  1  0  0  0  0
  2  4  1  0  0  0  0
  2  5  1  0  0  0  0
  1  2  1  0  0  0  0
 22 23  2  0  0  0  0
 22 24  1  0  0  0  0
 20 21  1  0  0  0  0
 19 20  1  0  0  0  0
 17 18  1  0  0  0  0
 17 19  2  0  0  0  0
 15 16  1  0  0  0  0
 15 17  1  0  0  0  0
 14 15  1  0  0  0  0
 14 20  2  0  0  0  0
 11 12  1  0  0  0  0
 11 13  1  0  0  0  0
 11 14  1  0  0  0  0
  9 10  1  0  0  0  0
  9 11  1  0  0  0  0
  9 22  1  0  0  0  0
  7  8  1  0  0  0  0
  7  9  1  0  0  0  0
 26 27  1  0  0  0  0
 26 28  1  0  0  0  0
 26 29  1  0  0  0  0
 24 25  1  0  0  0  0
 24 26  1  0  0  0  0
M  END
$$$$
default_name
  -OEChem-02102213163D

 29 29  0     1  0  0  0  0  0999 V2000
   -3.6042   -3.5728    1.4576 H   0  0  0  0  0  0  0  0  0  0  0  0
   -3.5202   -2.6488    0.8866 C   0  0  0  0  0  0  0  0  0  0  0  0
   -4.2052   -1.9048    1.2896 H   0  0  0  0  0  0  0  0  0  0  0  0
   -3.7552   -2.8428   -0.1584 H   0  0  0  0  0  0  0  0  0  0  0  0
   -2.1052   -2.1358    0.9946 C   0  0  0  0  0  0  0  0  0  0  0  0
   -1.2852   -2.7288    1.6826 O   0  0  0  0  0  0  0  0  0  0  0  0
   -1.8202   -1.0288    0.3146 N   0  0  0  0  0  0  0  0  0  0  0  0
   -2.5542   -0.5788   -0.2104 H   0  0  0  0  0  0  0  0  0  0  0  0
   -0.5102   -0.3728    0.3086 C   0  0  1  0  0  0  0  0  0  0  0  0
    0.2354   -1.0844   -0.0490 H   0  0  0  0  0  0  0  0  0  0  0  0
   -0.5452    0.8158   -0.6698 C   0  0  0  0  0  0  0  0  0  0  0  0
   -0.8015    0.4511   -1.6661 H   0  0  0  0  0  0  0  0  0  0  0  0
   -1.3254    1.5118   -0.3563 H   0  0  0  0  0  0  0  0  0  0  0  0
    0.7586    1.5662   -0.7548 C   0  0  0  0  0  0  0  0  0  0  0  0
    1.5473    1.9542    0.3070 N   0  0  0  0  0  0  0  0  0  0  0  0
    1.3192    1.8552    1.2849 H   0  0  0  0  0  0  0  0  0  0  0  0
    2.6740    2.4940   -0.1877 C   0  0  0  0  0  0  0  0  0  0  0  0
    3.4870    2.8971    0.4037 H   0  0  0  0  0  0  0  0  0  0  0  0
    2.6550    2.4613   -1.5281 N   0  0  0  0  0  0  0  0  0  0  0  0
    1.4411    1.8778   -1.9004 C   0  0  0  0  0  0  0  0  0  0  0  0
    1.1136    1.6742   -2.9117 H   0  0  0  0  0  0  0  0  0  0  0  0
   -0.1073    0.0565    1.7296 C   0  0  0  0  0  0  0  0  0  0  0  0
    1.0285   -0.1699    2.1459 O   0  0  0  0  0  0  0  0  0  0  0  0
   -1.0395    0.6588    2.4785 N   0  0  0  0  0  0  0  0  0  0  0  0
   -1.9636    0.7597    2.0849 H   0  0  0  0  0  0  0  0  0  0  0  0
   -0.8222    1.1334    3.8425 C   0  0  0  0  0  0  0  0  0  0  0  0
   -0.0212    1.8761    3.8521 H   0  0  0  0  0  0  0  0  0  0  0  0
   -1.7349    1.5853    4.2320 H   0  0  0  0  0  0  0  0  0  0  0  0
   -0.5312    0.2997    4.4834 H   0  0  0  0  0  0  0  0  0  0  0  0
  5  6  2  0  0  0  0
  5  7  1  0  0  0  0
  2  3  1  0  0  0  0
  2  4  1  0  0  0  0
  2  5  1  0  0  0  0
  1  2  1  0  0  0  0
 22 23  2  0  0  0  0
 22 24  1  0  0  0  0
 20 21  1  0  0  0  0
 19 20  1  0  0  0  0
 17 18  1  0  0  0  0
 17 19  2  0  0  0  0
 15 16  1  0  0  0  0
 15 17  1  0  0  0  0
 14 15  1  0  0  0  0
 14 20  2  0  0  0  0
 11 12  1  0  0  0  0
 11 13  1  0  0  0  0
 11 14  1  0  0  0  0
  9 10  1  0  0  0  0
  9 11  1  0  0  0  0
  9 22  1  0  0  0  0
  7  8  1  0  0  0  0
  7  9  1  0  0  0  0
 26 27  1  0  0  0  0
 26 28  1  0  0  0  0
 26 29  1  0  0  0  0
 24 25  1  0  0  0  0
 24 26  1  0  0  0  0
M  END
$$$$
default_name
  -OEChem-02102213163D

 29 29  0     1  0  0  0  0  0999 V2000
   -3.6042   -3.5728    1.4576 H   0  0  0  0  0  0  0  0  0  0  0  0
   -3.5202   -2.6488    0.8866 C   0  0  0  0  0  0  0  0  0  0  0  0
   -4.2052   -1.9048    1.2896 H   0  0  0  0  0  0  0  0  0  0  0  0
   -3.7552   -2.8428   -0.1584 H   0  0  0  0  0  0  0  0  0  0  0  0
   -2.1052   -2.1358    0.9946 C   0  0  0  0  0  0  0  0  0  0  0  0
   -1.2852   -2.7288    1.6826 O   0  0  0  0  0  0  0  0  0  0  0  0
   -1.8202   -1.0288    0.3146 N   0  0  0  0  0  0  0  0  0  0  0  0
   -2.5542   -0.5788   -0.2104 H   0  0  0  0  0  0  0  0  0  0  0  0
   -0.5102   -0.3728    0.3086 C   0  0  1  0  0  0  0  0  0  0  0  0
    0.2354   -1.0844   -0.0490 H   0  0  0  0  0  0  0  0  0  0  0  0
   -0.5452    0.8158   -0.6698 C   0  0  0  0  0  0  0  0  0  0  0  0
   -0.8015    0.4511   -1.6661 H   0  0  0  0  0  0  0  0  0  0  0  0
   -1.3254    1.5118   -0.3563 H   0  0  0  0  0  0  0  0  0  0  0  0
    0.7586    1.5662   -0.7548 C   0  0  0  0  0  0  0  0  0  0  0  0
    1.6870    1.7055    0.2545 N   0  0  0  0  0  0  0  0  0  0  0  0
    1.5824    1.3891    1.2069 H   0  0  0  0  0  0  0  0  0  0  0  0
    2.7569    2.3428   -0.2501 C   0  0  0  0  0  0  0  0  0  0  0  0
    3.6501    2.6026    0.3049 H   0  0  0  0  0  0  0  0  0  0  0  0
    2.5666    2.6125   -1.5498 N   0  0  0  0  0  0  0  0  0  0  0  0
    1.2987    2.1276   -1.8811 C   0  0  0  0  0  0  0  0  0  0  0  0
    0.8393    2.1566   -2.8607 H   0  0  0  0  0  0  0  0  0  0  0  0
   -0.1073    0.0565    1.7296 C   0  0  0  0  0  0  0  0  0  0  0  0
    1.0285   -0.1699    2.1459 O   0  0  0  0  0  0  0  0  0  0  0  0
   -1.0395    0.6588    2.4785 N   0  0  0  0  0  0  0  0  0  0  0  0
   -1.9636    0.7597    2.0849 H   0  0  0  0  0  0  0  0  0  0  0  0
   -0.8222    1.1334    3.8425 C   0  0  0  0  0  0  0  0  0  0  0  0
   -0.0212    1.8761    3.8521 H   0  0  0  0  0  0  0  0  0  0  0  0
   -1.7349    1.5853    4.2320 H   0  0  0  0  0  0  0  0  0  0  0  0
   -0.5312    0.2997    4.4834 H   0  0  0  0  0  0  0  0  0  0  0  0
  5  6  2  0  0  0  0
  5  7  1  0  0  0  0
  2  3  1  0  0  0  0
  2  4  1  0  0  0  0
  2  5  1  0  0  0  0
  1  2  1  0  0  0  0
 22 23  2  0  0  0  0
 22 24  1  0  0  0  0
 20 21  1  0  0  0  0
 19 20  1  0  0  0  0
 17 18  1  0  0  0  0
 17 19  2  0  0  0  0
 15 16  1  0  0  0  0
 15 17  1  0  0  0  0
 14 15  1  0  0  0  0
 14 20  2  0  0  0  0
 11 12  1  0  0  0  0
 11 13  1  0  0  0  0
 11 14  1  0  0  0  0
  9 10  1  0  0  0  0
  9 11  1  0  0  0  0
  9 22  1  0  0  0  0
  7  8  1  0  0  0  0
  7  9  1  0  0  0  0
 26 27  1  0  0  0  0
 26 28  1  0  0  0  0
 26 29  1  0  0  0  0
 24 25  1  0  0  0  0
 24 26  1  0  0  0  0
M  END
$$$$
default_name
  -OEChem-02102213163D

 29 29  0     1  0  0  0  0  0999 V2000
   -3.6042   -3.5728    1.4576 H   0  0  0  0  0  0  0  0  0  0  0  0
   -3.5202   -2.6488    0.8866 C   0  0  0  0  0  0  0  0  0  0  0  0
   -4.2052   -1.9048    1.2896 H   0  0  0  0  0  0  0  0  0  0  0  0
   -3.7552   -2.8428   -0.1584 H   0  0  0  0  0  0  0  0  0  0  0  0
   -2.1052   -2.1358    0.9946 C   0  0  0  0  0  0  0  0  0  0  0  0
   -1.2852   -2.7288    1.6826 O   0  0  0  0  0  0  0  0  0  0  0  0
   -1.8202   -1.0288    0.3146 N   0  0  0  0  0  0  0  0  0  0  0  0
   -2.5542   -0.5788   -0.2104 H   0  0  0  0  0  0  0  0  0  0  0  0
   -0.5102   -0.3728    0.3086 C   0  0  1  0  0  0  0  0  0  0  0  0
    0.2354   -1.0844   -0.0490 H   0  0  0  0  0  0  0  0  0  0  0  0
   -0.5452    0.8158   -0.6698 C   0  0  0  0  0  0  0  0  0  0  0  0
   -0.8015    0.4511   -1.6661 H   0  0  0  0  0  0  0  0  0  0  0  0
   -1.3254    1.5118   -0.3563 H   0  0  0  0  0  0  0  0  0  0  0  0
    0.7586    1.5662   -0.7548 C   0  0  0  0  0  0  0  0  0  0  0  0
    1.8116    1.4750    0.1301 N   0  0  0  0  0  0  0  0  0  0  0  0
    1.8197    0.9524    0.9932 H   0  0  0  0  0  0  0  0  0  0  0  0
    2.8268    2.2095   -0.3549 C   0  0  0  0  0  0  0  0  0  0  0  0
    3.7905    2.3379    0.1226 H   0  0  0  0  0  0  0  0  0  0  0  0
    2.4806    2.7646   -1.5255 N   0  0  0  0  0  0  0  0  0  0  0  0
    1.1672    2.3666   -1.7882 C   0  0  0  0  0  0  0  0  0  0  0  0
    0.5880    2.6152   -2.6680 H   0  0  0  0  0  0  0  0  0  0  0  0
   -0.1073    0.0565    1.7296 C   0  0  0  0  0  0  0  0  0  0  0  0
    1.0285   -0.1699    2.1459 O   0  0  0  0  0  0  0  0  0  0  0  0
   -1.0395    0.6588    2.4785 N   0  0  0  0  0  0  0  0  0  0  0  0
   -1.9636    0.7597    2.0849 H   0  0  0  0  0  0  0  0  0  0  0  0
   -0.8222    1.1334    3.8425 C   0  0  0  0  0  0  0  0  0  0  0  0
   -0.0212    1.8761    3.8521 H   0  0  0  0  0  0  0  0  0  0  0  0
   -1.7349    1.5853    4.2320 H   0  0  0  0  0  0  0  0  0  0  0  0
   -0.5312    0.2997    4.4834 H   0  0  0  0  0  0  0  0  0  0  0  0
  5  6  2  0  0  0  0
  5  7  1  0  0  0  0
  2  3  1  0  0  0  0
  2  4  1  0  0  0  0
  2  5  1  0  0  0  0
  1  2  1  0  0  0  0
 22 23  2  0  0  0  0
 22 24  1  0  0  0  0
 20 21  1  0  0  0  0
 19 20  1  0  0  0  0
 17 18  1  0  0  0  0
 17 19  2  0  0  0  0
 15 16  1  0  0  0  0
 15 17  1  0  0  0  0
 14 15  1  0  0  0  0
 14 20  2  0  0  0  0
 11 12  1  0  0  0  0
 11 13  1  0  0  0  0
 11 14  1  0  0  0  0
  9 10  1  0  0  0  0
  9 11  1  0  0  0  0
  9 22  1  0  0  0  0
  7  8  1  0  0  0  0
  7  9  1  0  0  0  0
 26 27  1  0  0  0  0
 26 28  1  0  0  0  0
 26 29  1  0  0  0  0
 24 25  1  0  0  0  0
 24 26  1  0  0  0  0
M  END
$$$$
default_name
  -OEChem-02102213163D

 29 29  0     1  0  0  0  0  0999 V2000
   -3.6042   -3.5728    1.4576 H   0  0  0  0  0  0  0  0  0  0  0  0
   -3.5202   -2.6488    0.8866 C   0  0  0  0  0  0  0  0  0  0  0  0
   -4.2052   -1.9048    1.2896 H   0  0  0  0  0  0  0  0  0  0  0  0
   -3.7552   -2.8428   -0.1584 H   0  0  0  0  0  0  0  0  0  0  0  0
   -2.1052   -2.1358    0.9946 C   0  0  0  0  0  0  0  0  0  0  0  0
   -1.2852   -2.7288    1.6826 O   0  0  0  0  0  0  0  0  0  0  0  0
   -1.8202   -1.0288    0.3146 N   0  0  0  0  0  0  0  0  0  0  0  0
   -2.5542   -0.5788   -0.2104 H   0  0  0  0  0  0  0  0  0  0  0  0
   -0.5102   -0.3728    0.3086 C   0  0  1  0  0  0  0  0  0  0  0  0
    0.2354   -1.0844   -0.0490 H   0  0  0  0  0  0  0  0  0  0  0  0
   -0.5452    0.8158   -0.6698 C   0  0  0  0  0  0  0  0  0  0  0  0
   -0.8015    0.4511   -1.6661 H   0  0  0  0  0  0  0  0  0  0  0  0
   -1.3254    1.5118   -0.3563 H   0  0  0  0  0  0  0  0  0  0  0  0
    0.7586    1.5662   -0.7548 C   0  0  0  0  0  0  0  0  0  0  0  0
    1.9125    1.2783   -0.0578 N   0  0  0  0  0  0  0  0  0  0  0  0
    2.0151    0.5750    0.6584 H   0  0  0  0  0  0  0  0  0  0  0  0
    2.8788    2.1032   -0.4950 C   0  0  0  0  0  0  0  0  0  0  0  0
    3.8988    2.1210   -0.1309 H   0  0  0  0  0  0  0  0  0  0  0  0
    2.4029    2.9074   -1.4569 N   0  0  0  0  0  0  0  0  0  0  0  0
    1.0557    2.5785   -1.6279 C   0  0  0  0  0  0  0  0  0  0  0  0
    0.3767    3.0186   -2.3468 H   0  0  0  0  0  0  0  0  0  0  0  0
   -0.1073    0.0565    1.7296 C   0  0  0  0  0  0  0  0  0  0  0  0
    1.0285   -0.1699    2.1459 O   0  0  0  0  0  0  0  0  0  0  0  0
   -1.0395    0.6588    2.4785 N   0  0  0  0  0  0  0  0  0  0  0  0
   -1.9636    0.7597    2.0849 H   0  0  0  0  0  0  0  0  0  0  0  0
   -0.8222    1.1334    3.8425 C   0  0  0  0  0  0  0  0  0  0  0  0
   -0.0212    1.8761    3.8521 H   0  0  0  0  0  0  0  0  0  0  0  0
   -1.7349    1.5853    4.2320 H   0  0  0  0  0  0  0  0  0  0  0  0
   -0.5312    0.2997    4.4834 H   0  0  0  0  0  0  0  0  0  0  0  0
  5  6  2  0  0  0  0
  5  7  1  0  0  0  0
  2  3  1  0  0  0  0
  2  4  1  0  0  0  0
  2  5  1  0  0  0  0
  1  2  1  0  0  0  0
 22 23  2  0  0  0  0
 22 24  1  0  0  0  0
 20 21  1  0  0  0  0
 19 20  1  0  0  0  0
 17 18  1  0  0  0  0
 17 19  2  0  0  0  0
 15 16  1  0  0  0  0
 15 17  1  0  0  0  0
 14 15  1  0  0  0  0
 14 20  2  0  0  0  0
 11 12  1  0  0  0  0
 11 13  1  0  0  0  0
 11 14  1  0  0  0  0
  9 10  1  0  0  0  0
  9 11  1  0  0  0  0
  9 22  1  0  0  0  0
  7  8  1  0  0  0  0
  7  9  1  0  0  0  0
 26 27  1  0  0  0  0
 26 28  1  0  0  0  0
 26 29  1  0  0  0  0
 24 25  1  0  0  0  0
 24 26  1  0  0  0  0
M  END
$$$$
default_name
  -OEChem-02102213163D

 29 29  0     1  0  0  0  0  0999 V2000
   -3.6042   -3.5728    1.4576 H   0  0  0  0  0  0  0  0  0  0  0  0
   -3.5202   -2.6488    0.8866 C   0  0  0  0  0  0  0  0  0  0  0  0
   -4.2052   -1.9048    1.2896 H   0  0  0  0  0  0  0  0  0  0  0  0
   -3.7552   -2.8428   -0.1584 H   0  0  0  0  0  0  0  0  0  0  0  0
   -2.1052   -2.1358    0.9946 C   0  0  0  0  0  0  0  0  0  0  0  0
   -1.2852   -2.7288    1.6826 O   0  0  0  0  0  0  0  0  0  0  0  0
   -1.8202   -1.0288    0.3146 N   0  0  0  0  0  0  0  0  0  0  0  0
   -2.5542   -0.5788   -0.2104 H   0  0  0  0  0  0  0  0  0  0  0  0
   -0.5102   -0.3728    0.3086 C   0  0  1  0  0  0  0  0  0  0  0  0
    0.2354   -1.0844   -0.0490 H   0  0  0  0  0  0  0  0  0  0  0  0
   -0.5452    0.8158   -0.6698 C   0  0  0  0  0  0  0  0  0  0  0  0
   -0.8015    0.4511   -1.6661 H   0  0  0  0  0  0  0  0  0  0  0  0
   -1.3254    1.5118   -0.3563 H   0  0  0  0  0  0  0  0  0  0  0  0
    0.7586    1.5662   -0.7548 C   0  0  0  0  0  0  0  0  0  0  0  0
    1.9829    1.1290   -0.2963 N   0  0  0  0  0  0  0  0  0  0  0  0
    2.1551    0.2827    0.2254 H   0  0  0  0  0  0  0  0  0  0  0  0
    2.9094    2.0312   -0.6609 C   0  0  0  0  0  0  0  0  0  0  0  0
    3.9675    1.9667   -0.4383 H   0  0  0  0  0  0  0  0  0  0  0  0
    2.3388    3.0311   -1.3486 N   0  0  0  0  0  0  0  0  0  0  0  0
    0.9717    2.7490   -1.4113 C   0  0  0  0  0  0  0  0  0  0  0  0
    0.2200    3.3394   -1.9190 H   0  0  0  0  0  0  0  0  0  0  0  0
   -0.1073    0.0565    1.7296 C   0  0  0  0  0  0  0  0  0  0  0  0
    1.0285   -0.1699    2.1459 O   0  0  0  0  0  0  0  0  0  0  0  0
   -1.0395    0.6588    2.4785 N   0  0  0  0  0  0  0  0  0  0  0  0
   -1.9636    0.7597    2.0849 H   0  0  0  0  0  0  0  0  0  0  0  0
   -0.8222    1.1334    3.8425 C   0  0  0  0  0  0  0  0  0  0  0  0
   -0.0212    1.8761    3.8521 H   0  0  0  0  0  0  0  0  0  0  0  0
   -1.7349    1.5853    4.2320 H   0  0  0  0  0  0  0  0  0  0  0  0
   -0.5312    0.2997    4.4834 H   0  0  0  0  0  0  0  0  0  0  0  0
  5  6  2  0  0  0  0
  5  7  1  0  0  0  0
  2  3  1  0  0  0  0
  2  4  1  0  0  0  0
  2  5  1  0  0  0  0
  1  2  1  0  0  0  0
 22 23  2  0  0  0  0
 22 24  1  0  0  0  0
 20 21  1  0  0  0  0
 19 20  1  0  0  0  0
 17 18  1  0  0  0  0
 17 19  2  0  0  0  0
 15 16  1  0  0  0  0
 15 17  1  0  0  0  0
 14 15  1  0  0  0  0
 14 20  2  0  0  0  0
 11 12  1  0  0  0  0
 11 13  1  0  0  0  0
 11 14  1  0  0  0  0
  9 10  1  0  0  0  0
  9 11  1  0  0  0  0
  9 22  1  0  0  0  0
  7  8  1  0  0  0  0
  7  9  1  0  0  0  0
 26 27  1  0  0  0  0
 26 28  1  0  0  0  0
 26 29  1  0  0  0  0
 24 25  1  0  0  0  0
 24 26  1  0  0  0  0
M  END
$$$$
default_name
  -OEChem-02102213163D

 29 29  0     1  0  0  0  0  0999 V2000
   -3.6042   -3.5728    1.4576 H   0  0  0  0  0  0  0  0  0  0  0  0
   -3.5202   -2.6488    0.8866 C   0  0  0  0  0  0  0  0  0  0  0  0
   -4.2052   -1.9048    1.2896 H   0  0  0  0  0  0  0  0  0  0  0  0
   -3.7552   -2.8428   -0.1584 H   0  0  0  0  0  0  0  0  0  0  0  0
   -2.1052   -2.1358    0.9946 C   0  0  0  0  0  0  0  0  0  0  0  0
   -1.2852   -2.7288    1.6826 O   0  0  0  0  0  0  0  0  0  0  0  0
   -1.8202   -1.0288    0.3146 N   0  0  0  0  0  0  0  0  0  0  0  0
   -2.5542   -0.5788   -0.2104 H   0  0  0  0  0  0  0  0  0  0  0  0
   -0.5102   -0.3728    0.3086 C   0  0  1  0  0  0  0  0  0  0  0  0
    0.2354   -1.0844   -0.0490 H   0  0  0  0  0  0  0  0  0  0  0  0
   -0.5452    0.8158   -0.6698 C   0  0  0  0  0  0  0  0  0  0  0  0
   -0.8015    0.4511   -1.6661 H   0  0  0  0  0  0  0  0  0  0  0  0
   -1.3254    1.5118   -0.3563 H   0  0  0  0  0  0  0  0  0  0  0  0
    0.7586    1.5662   -0.7548 C   0  0  0  0  0  0  0  0  0  0  0  0
    2.0179    1.0372   -0.5692 N   0  0  0  0  0  0  0  0  0  0  0  0
    2.2303    0.0952   -0.2765 H   0  0  0  0  0  0  0  0  0  0  0  0
    2.9166    1.9983   -0.8412 C   0  0  0  0  0  0  0  0  0  0  0  0
    3.9921    1.8855   -0.7787 H   0  0  0  0  0  0  0  0  0  0  0  0
    2.2927    3.1272   -1.2080 N   0  0  0  0  0  0  0  0  0  0  0  0
    0.9210    2.8663   -1.1530 C   0  0  0  0  0  0  0  0  0  0  0  0
    0.1284    3.5558   -1.4136 H   0  0  0  0  0  0  0  0  0  0  0  0
   -0.1073    0.0565    1.7296 C   0  0  0  0  0  0  0  0  0  0  0  0
    1.0285   -0.1699    2.1459 O   0  0  0  0  0  0  0  0  0  0  0  0
   -1.0395    0.6588    2.4785 N   0  0  0  0  0  0  0  0  0  0  0  0
   -1.9636    0.7597    2.0849 H   0  0  0  0  0  0  0  0  0  0  0  0
   -0.8222    1.1334    3.8425 C   0  0  0  0  0  0  0  0  0  0  0  0
   -0.0212    1.8761    3.8521 H   0  0  0  0  0  0  0  0  0  0  0  0
   -1.7349    1.5853    4.2320 H   0  0  0  0  0  0  0  0  0  0  0  0
   -0.5312    0.2997    4.4834 H   0  0  0  0  0  0  0  0  0  0  0  0
  5  6  2  0  0  0  0
  5  7  1  0  0  0  0
  2  3  1  0  0  0  0
  2  4  1  0  0  0  0
  2  5  1  0  0  0  0
  1  2  1  0  0  0  0
 22 23  2  0  0  0  0
 22 24  1  0  0  0  0
 20 21  1  0  0  0  0
 19 20  1  0  0  0  0
 17 18  1  0  0  0  0
 17 19  2  0  0  0  0
 15 16  1  0  0  0  0
 15 17  1  0  0  0  0
 14 15  1  0  0  0  0
 14 20  2  0  0  0  0
 11 12  1  0  0  0  0
 11 13  1  0  0  0  0
 11 14  1  0  0  0  0
  9 10  1  0  0  0  0
  9 11  1  0  0  0  0
  9 22  1  0  0  0  0
  7  8  1  0  0  0  0
  7  9  1  0  0  0  0
 26 27  1  0  0  0  0
 26 28  1  0  0  0  0
 26 29  1  0  0  0  0
 24 25  1  0  0  0  0
 24 26  1  0  0  0  0
M  END
$$$$
default_name
  -OEChem-02102213163D

 29 29  0     1  0  0  0  0  0999 V2000
   -3.6042   -3.5728    1.4576 H   0  0  0  0  0  0  0  0  0  0  0  0
   -3.5202   -2.6488    0.8866 C   0  0  0  0  0  0  0  0  0  0  0  0
   -4.2052   -1.9048    1.2896 H   0  0  0  0  0  0  0  0  0  0  0  0
   -3.7552   -2.8428   -0.1584 H   0  0  0  0  0  0  0  0  0  0  0  0
   -2.1052   -2.1358    0.9946 C   0  0  0  0  0  0  0  0  0  0  0  0
   -1.2852   -2.7288    1.6826 O   0  0  0  0  0  0  0  0  0  0  0  0
   -1.8202   -1.0288    0.3146 N   0  0  0  0  0  0  0  0  0  0  0  0
   -2.5542   -0.5788   -0.2104 H   0  0  0  0  0  0  0  0  0  0  0  0
   -0.5102   -0.3728    0.3086 C   0  0  1  0  0  0  0  0  0  0  0  0
    0.2354   -1.0844   -0.0490 H   0  0  0  0  0  0  0  0  0  0  0  0
   -0.5452    0.8158   -0.6698 C   0  0  0  0  0  0  0  0  0  0  0  0
   -0.8015    0.4511   -1.6661 H   0  0  0  0  0  0  0  0  0  0  0  0
   -1.3254    1.5118   -0.3563 H   0  0  0  0  0  0  0  0  0  0  0  0
    0.7586    1.5662   -0.7548 C   0  0  0  0  0  0  0  0  0  0  0  0
    2.0153    1.0091   -0.8579 N   0  0  0  0  0  0  0  0  0  0  0  0
    2.2355    0.0254   -0.8129 H   0  0  0  0  0  0  0  0  0  0  0  0
    2.8998    2.0068   -1.0236 C   0  0  0  0  0  0  0  0  0  0  0  0
    3.9707    1.8830   -1.1288 H   0  0  0  0  0  0  0  0  0  0  0  0
    2.2676    3.1893   -1.0448 N   0  0  0  0  0  0  0  0  0  0  0  0
    0.9070    2.9226   -0.8707 C   0  0  0  0  0  0  0  0  0  0  0  0
    0.1083    3.6529   -0.8653 H   0  0  0  0  0  0  0  0  0  0  0  0
   -0.1073    0.0565    1.7296 C   0  0  0  0  0  0  0  0  0  0  0  0
    1.0285   -0.1699    2.1459 O   0  0  0  0  0  0  0  0  0  0  0  0
   -1.0395    0.6588    2.4785 N   0  0  0  0  0  0  0  0  0  0  0  0
   -1.9636    0.7597    2.0849 H   0  0  0  0  0  0  0  0  0  0  0  0
   -0.8222    1.1334    3.8425 C   0  0  0  0  0  0  0  0  0  0  0  0
   -0.0212    1.8761    3.8521 H   0  0  0  0  0  0  0  0  0  0  0  0
   -1.7349    1.5853    4.2320 H   0  0  0  0  0  0  0  0  0  0  0  0
   -0.5312    0.2997    4.4834 H   0  0  0  0  0  0  0  0  0  0  0  0
  5  6  2  0  0  0  0
  5  7  1  0  0  0  0
  2  3  1  0  0  0  0
  2  4  1  0  0  0  0
  2  5  1  0  0  0  0
  1  2  1  0  0  0  0
 22 23  2  0  0  0  0
 22 24  1  0  0  0  0
 20 21  1  0  0  0  0
 19 20  1  0  0  0  0
 17 18  1  0  0  0  0
 17 19  2  0  0  0  0
 15 16  1  0  0  0  0
 15 17  1  0  0  0  0
 14 15  1  0  0  0  0
 14 20  2  0  0  0  0
 11 12  1  0  0  0  0
 11 13  1  0  0  0  0
 11 14  1  0  0  0  0
  9 10  1  0  0  0  0
  9 11  1  0  0  0  0
  9 22  1  0  0  0  0
  7  8  1  0  0  0  0
  7  9  1  0  0  0  0
 26 27  1  0  0  0  0
 26 28  1  0  0  0  0
 26 29  1  0  0  0  0
 24 25  1  0  0  0  0
 24 26  1  0  0  0  0
M  END
$$$$
default_name
  -OEChem-02102213163D

 29 29  0     1  0  0  0  0  0999 V2000
   -3.6042   -3.5728    1.4576 H   0  0  0  0  0  0  0  0  0  0  0  0
   -3.5202   -2.6488    0.8866 C   0  0  0  0  0  0  0  0  0  0  0  0
   -4.2052   -1.9048    1.2896 H   0  0  0  0  0  0  0  0  0  0  0  0
   -3.7552   -2.8428   -0.1584 H   0  0  0  0  0  0  0  0  0  0  0  0
   -2.1052   -2.1358    0.9946 C   0  0  0  0  0  0  0  0  0  0  0  0
   -1.2852   -2.7288    1.6826 O   0  0  0  0  0  0  0  0  0  0  0  0
   -1.8202   -1.0288    0.3146 N   0  0  0  0  0  0  0  0  0  0  0  0
   -2.5542   -0.5788   -0.2104 H   0  0  0  0  0  0  0  0  0  0  0  0
   -0.5102   -0.3728    0.3086 C   0  0  1  0  0  0  0  0  0  0  0  0
    0.2354   -1.0844   -0.0490 H   0  0  0  0  0  0  0  0  0  0  0  0
   -0.5452    0.8158   -0.6698 C   0  0  0  0  0  0  0  0  0  0  0  0
   -0.8015    0.4511   -1.6661 H   0  0  0  0  0  0  0  0  0  0  0  0
   -1.3254    1.5118   -0.3563 H   0  0  0  0  0  0  0  0  0  0  0  0
    0.7586    1.5662   -0.7548 C   0  0  0  0  0  0  0  0  0  0  0  0
    1.9751    1.0466   -1.1427 N   0  0  0  0  0  0  0  0  0  0  0  0
    2.1703    0.0780   -1.3473 H   0  0  0  0  0  0  0  0  0  0  0  0
    2.8602    2.0561   -1.1957 C   0  0  0  0  0  0  0  0  0  0  0  0
    3.9049    1.9592   -1.4648 H   0  0  0  0  0  0  0  0  0  0  0  0
    2.2653    3.2130   -0.8700 N   0  0  0  0  0  0  0  0  0  0  0  0
    0.9308    2.9139   -0.5837 C   0  0  0  0  0  0  0  0  0  0  0  0
    0.1609    3.6243   -0.3113 H   0  0  0  0  0  0  0  0  0  0  0  0
   -0.1073    0.0565    1.7296 C   0  0  0  0  0  0  0  0  0  0  0  0
    1.0285   -0.1699    2.1459 O   0  0  0  0  0  0  0  0  0  0  0  0
   -1.0395    0.6588    2.4785 N   0  0  0  0  0  0  0  0  0  0  0  0
   -1.9636    0.7597    2.0849 H   0  0  0  0  0  0  0  0  0  0  0  0
   -0.8222    1.1334    3.8425 C   0  0  0  0  0  0  0  0  0  0  0  0
   -0.0212    1.8761    3.8521 H   0  0  0  0  0  0  0  0  0  0  0  0
   -1.7349    1.5853    4.2320 H   0  0  0  0  0  0  0  0  0  0  0  0
   -0.5312    0.2997    4.4834 H   0  0  0  0  0  0  0  0  0  0  0  0
  5  6  2  0  0  0  0
  5  7  1  0  0  0  0
  2  3  1  0  0  0  0
  2  4  1  0  0  0  0
  2  5  1  0  0  0  0
  1  2  1  0  0  0  0
 22 23  2  0  0  0  0
 22 24  1  0  0  0  0
 20 21  1  0  0  0  0
 19 20  1  0  0  0  0
 17 18  1  0  0  0  0
 17 19  2  0  0  0  0
 15 16  1  0  0  0  0
 15 17  1  0  0  0  0
 14 15  1  0  0  0  0
 14 20  2  0  0  0  0
 11 12  1  0  0  0  0
 11 13  1  0  0  0  0
 11 14  1  0  0  0  0
  9 10  1  0  0  0  0
  9 11  1  0  0  0  0
  9 22  1  0  0  0  0
  7  8  1  0  0  0  0
  7  9  1  0  0  0  0
 26 27  1  0  0  0  0
 26 28  1  0  0  0  0
 26 29  1  0  0  0  0
 24 25  1  0  0  0  0
 24 26  1  0  0  0  0
M  END
$$$$
default_name
  -OEChem-02102213163D

 29 29  0     1  0  0  0  0  0999 V2000
   -3.6042   -3.5728    1.4576 H   0  0  0  0  0  0  0  0  0  0  0  0
   -3.5202   -2.6488    0.8866 C   0  0  0  0  0  0  0  0  0  0  0  0
   -4.2052   -1.9048    1.2896 H   0  0  0  0  0  0  0  0  0  0  0  0
   -3.7552   -2.8428   -0.1584 H   0  0  0  0  0  0  0  0  0  0  0  0
   -2.1052   -2.1358    0.9946 C   0  0  0  0  0  0  0  0  0  0  0  0
   -1.2852   -2.7288    1.6826 O   0  0  0  0  0  0  0  0  0  0  0  0
   -1.8202   -1.0288    0.3146 N   0  0  0  0  0  0  0  0  0  0  0  0
   -2.5542   -0.5788   -0.2104 H   0  0  0  0  0  0  0  0  0  0  0  0
   -0.5102   -0.3728    0.3086 C   0  0  1  0  0  0  0  0  0  0  0  0
    0.2354   -1.0844   -0.0490 H   0  0  0  0  0  0  0  0  0  0  0  0
   -0.5452    0.8158   -0.6698 C   0  0  0  0  0  0  0  0  0  0  0  0
   -0.8015    0.4511   -1.6661 H   0  0  0  0  0  0  0  0  0  0  0  0
   -1.3254    1.5118   -0.3563 H   0  0  0  0  0  0  0  0  0  0  0  0
    0.7586    1.5662   -0.7548 C   0  0  0  0  0  0  0  0  0  0  0  0
    1.9001    1.1473   -1.4042 N   0  0  0  0  0  0  0  0  0  0  0  0
    2.0393    0.2495   -1.8434 H   0  0  0  0  0  0  0  0  0  0  0  0
    2.8005    2.1429   -1.3459 C   0  0  0  0  0  0  0  0  0  0  0  0
    3.7992    2.1091   -1.7638 H   0  0  0  0  0  0  0  0  0  0  0  0
    2.2860    3.1968   -0.6955 N   0  0  0  0  0  0  0  0  0  0  0  0
    0.9905    2.8409   -0.3114 C   0  0  0  0  0  0  0  0  0  0  0  0
    0.2828    3.4717    0.2107 H   0  0  0  0  0  0  0  0  0  0  0  0
   -0.1073    0.0565    1.7296 C   0  0  0  0  0  0  0  0  0  0  0  0
    1.0285   -0.1699    2.1459 O   0  0  0  0  0  0  0  0  0  0  0  0
   -1.0395    0.6588    2.4785 N   0  0  0  0  0  0  0  0  0  0  0  0
   -1.9636    0.7597    2.0849 H   0  0  0  0  0  0  0  0  0  0  0  0
   -0.8222    1.1334    3.8425 C   0  0  0  0  0  0  0  0  0  0  0  0
   -0.0212    1.8761    3.8521 H   0  0  0  0  0  0  0  0  0  0  0  0
   -1.7349    1.5853    4.2320 H   0  0  0  0  0  0  0  0  0  0  0  0
   -0.5312    0.2997    4.4834 H   0  0  0  0  0  0  0  0  0  0  0  0
  5  6  2  0  0  0  0
  5  7  1  0  0  0  0
  2  3  1  0  0  0  0
  2  4  1  0  0  0  0
  2  5  1  0  0  0  0
  1  2  1  0  0  0  0
 22 23  2  0  0  0  0
 22 24  1  0  0  0  0
 20 21  1  0  0  0  0
 19 20  1  0  0  0  0
 17 18  1  0  0  0  0
 17 19  2  0  0  0  0
 15 16  1  0  0  0  0
 15 17  1  0  0  0  0
 14 15  1  0  0  0  0
 14 20  2  0  0  0  0
 11 12  1  0  0  0  0
 11 13  1  0  0  0  0
 11 14  1  0  0  0  0
  9 10  1  0  0  0  0
  9 11  1  0  0  0  0
  9 22  1  0  0  0  0
  7  8  1  0  0  0  0
  7  9  1  0  0  0  0
 26 27  1  0  0  0  0
 26 28  1  0  0  0  0
 26 29  1  0  0  0  0
 24 25  1  0  0  0  0
 24 26  1  0  0  0  0
M  END
$$$$
default_name
  -OEChem-02102213163D

 29 29  0     1  0  0  0  0  0999 V2000
   -3.6042   -3.5728    1.4576 H   0  0  0  0  0  0  0  0  0  0  0  0
   -3.5202   -2.6488    0.8866 C   0  0  0  0  0  0  0  0  0  0  0  0
   -4.2052   -1.9048    1.2896 H   0  0  0  0  0  0  0  0  0  0  0  0
   -3.7552   -2.8428   -0.1584 H   0  0  0  0  0  0  0  0  0  0  0  0
   -2.1052   -2.1358    0.9946 C   0  0  0  0  0  0  0  0  0  0  0  0
   -1.2852   -2.7288    1.6826 O   0  0  0  0  0  0  0  0  0  0  0  0
   -1.8202   -1.0288    0.3146 N   0  0  0  0  0  0  0  0  0  0  0  0
   -2.5542   -0.5788   -0.2104 H   0  0  0  0  0  0  0  0  0  0  0  0
   -0.5102   -0.3728    0.3086 C   0  0  1  0  0  0  0  0  0  0  0  0
    0.2354   -1.0844   -0.0490 H   0  0  0  0  0  0  0  0  0  0  0  0
   -0.5452    0.8158   -0.6698 C   0  0  0  0  0  0  0  0  0  0  0  0
   -0.8015    0.4511   -1.6661 H   0  0  0  0  0  0  0  0  0  0  0  0
   -1.3254    1.5118   -0.3563 H   0  0  0  0  0  0  0  0  0  0  0  0
    0.7586    1.5662   -0.7548 C   0  0  0  0  0  0  0  0  0  0  0  0
    1.7955    1.3041   -1.6245 N   0  0  0  0  0  0  0  0  0  0  0  0
    1.8512    0.5282   -2.2672 H   0  0  0  0  0  0  0  0  0  0  0  0
    2.7247    2.2612   -1.4637 C   0  0  0  0  0  0  0  0  0  0  0  0
    3.6607    2.3223   -2.0054 H   0  0  0  0  0  0  0  0  0  0  0  0
    2.3282    3.1418   -0.5333 N   0  0  0  0  0  0  0  0  0  0  0  0
    1.0823    2.7085   -0.0725 C   0  0  0  0  0  0  0  0  0  0  0  0
    0.4655    3.2057    0.6650 H   0  0  0  0  0  0  0  0  0  0  0  0
   -0.1073    0.0565    1.7296 C   0  0  0  0  0  0  0  0  0  0  0  0
    1.0285   -0.1699    2.1459 O   0  0  0  0  0  0  0  0  0  0  0  0
   -1.0395    0.6588    2.4785 N   0  0  0  0  0  0  0  0  0  0  0  0
   -1.9636    0.7597    2.0849 H   0  0  0  0  0  0  0  0  0  0  0  0
   -0.8222    1.1334    3.8425 C   0  0  0  0  0  0  0  0  0  0  0  0
   -0.0212    1.8761    3.8521 H   0  0  0  0  0  0  0  0  0  0  0  0
   -1.7349    1.5853    4.2320 H   0  0  0  0  0  0  0  0  0  0  0  0
   -0.5312    0.2997    4.4834 H   0  0  0  0  0  0  0  0  0  0  0  0
  5  6  2  0  0  0  0
  5  7  1  0  0  0  0
  2  3  1  0  0  0  0
  2  4  1  0  0  0  0
  2  5  1  0  0  0  0
  1  2  1  0  0  0  0
 22 23  2  0  0  0  0
 22 24  1  0  0  0  0
 20 21  1  0  0  0  0
 19 20  1  0  0  0  0
 17 18  1  0  0  0  0
 17 19  2  0  0  0  0
 15 16  1  0  0  0  0
 15 17  1  0  0  0  0
 14 15  1  0  0  0  0
 14 20  2  0  0  0  0
 11 12  1  0  0  0  0
 11 13  1  0  0  0  0
 11 14  1  0  0  0  0
  9 10  1  0  0  0  0
  9 11  1  0  0  0  0
  9 22  1  0  0  0  0
  7  8  1  0  0  0  0
  7  9  1  0  0  0  0
 26 27  1  0  0  0  0
 26 28  1  0  0  0  0
 26 29  1  0  0  0  0
 24 25  1  0  0  0  0
 24 26  1  0  0  0  0
M  END
$$$$
default_name
  -OEChem-02102213163D

 29 29  0     1  0  0  0  0  0999 V2000
   -3.6042   -3.5728    1.4576 H   0  0  0  0  0  0  0  0  0  0  0  0
   -3.5202   -2.6488    0.8866 C   0  0  0  0  0  0  0  0  0  0  0  0
   -4.2052   -1.9048    1.2896 H   0  0  0  0  0  0  0  0  0  0  0  0
   -3.7552   -2.8428   -0.1584 H   0  0  0  0  0  0  0  0  0  0  0  0
   -2.1052   -2.1358    0.9946 C   0  0  0  0  0  0  0  0  0  0  0  0
   -1.2852   -2.7288    1.6826 O   0  0  0  0  0  0  0  0  0  0  0  0
   -1.8202   -1.0288    0.3146 N   0  0  0  0  0  0  0  0  0  0  0  0
   -2.5542   -0.5788   -0.2104 H   0  0  0  0  0  0  0  0  0  0  0  0
   -0.5102   -0.3728    0.3086 C   0  0  1  0  0  0  0  0  0  0  0  0
    0.2354   -1.0844   -0.0490 H   0  0  0  0  0  0  0  0  0  0  0  0
   -0.5452    0.8158   -0.6698 C   0  0  0  0  0  0  0  0  0  0  0  0
   -0.8015    0.4511   -1.6661 H   0  0  0  0  0  0  0  0  0  0  0  0
   -1.3254    1.5118   -0.3563 H   0  0  0  0  0  0  0  0  0  0  0  0
    0.7586    1.5662   -0.7548 C   0  0  0  0  0  0  0  0  0  0  0  0
    1.6683    1.5065   -1.7888 N   0  0  0  0  0  0  0  0  0  0  0  0
    1.6191    0.8951   -2.5899 H   0  0  0  0  0  0  0  0  0  0  0  0
    2.6380    2.4030   -1.5413 C   0  0  0  0  0  0  0  0  0  0  0  0
    3.4989    2.5845   -2.1732 H   0  0  0  0  0  0  0  0  0  0  0  0
    2.3892    3.0517   -0.3944 N   0  0  0  0  0  0  0  0  0  0  0  0
    1.1998    2.5258    0.1168 C   0  0  0  0  0  0  0  0  0  0  0  0
    0.6967    2.8443    1.0206 H   0  0  0  0  0  0  0  0  0  0  0  0
   -0.1073    0.0565    1.7296 C   0  0  0  0  0  0  0  0  0  0  0  0
    1.0285   -0.1699    2.1459 O   0  0  0  0  0  0  0  0  0  0  0  0
   -1.0395    0.6588    2.4785 N   0  0  0  0  0  0  0  0  0  0  0  0
   -1.9636    0.7597    2.0849 H   0  0  0  0  0  0  0  0  0  0  0  0
   -0.8222    1.1334    3.8425 C   0  0  0  0  0  0  0  0  0  0  0  0
   -0.0212    1.8761    3.8521 H   0  0  0  0  0  0  0  0  0  0  0  0
   -1.7349    1.5853    4.2320 H   0  0  0  0  0  0  0  0  0  0  0  0
   -0.5312    0.2997    4.4834 H   0  0  0  0  0  0  0  0  0  0  0  0
  5  6  2  0  0  0  0
  5  7  1  0  0  0  0
  2  3  1  0  0  0  0
  2  4  1  0  0  0  0
  2  5  1  0  0  0  0
  1  2  1  0  0  0  0
 22 23  2  0  0  0  0
 22 24  1  0  0  0  0
 20 21  1  0  0  0  0
 19 20  1  0  0  0  0
 17 18  1  0  0  0  0
 17 19  2  0  0  0  0
 15 16  1  0  0  0  0
 15 17  1  0  0  0  0
 14 15  1  0  0  0  0
 14 20  2  0  0  0  0
 11 12  1  0  0  0  0
 11 13  1  0  0  0  0
 11 14  1  0  0  0  0
  9 10  1  0  0  0  0
  9 11  1  0  0  0  0
  9 22  1  0  0  0  0
  7  8  1  0  0  0  0
  7  9  1  0  0  0  0
 26 27  1  0  0  0  0
 26 28  1  0  0  0  0
 26 29  1  0  0  0  0
 24 25  1  0  0  0  0
 24 26  1  0  0  0  0
M  END
$$$$
default_name
  -OEChem-02102213163D

 29 29  0     1  0  0  0  0  0999 V2000
   -3.6042   -3.5728    1.4576 H   0  0  0  0  0  0  0  0  0  0  0  0
   -3.5202   -2.6488    0.8866 C   0  0  0  0  0  0  0  0  0  0  0  0
   -4.2052   -1.9048    1.2896 H   0  0  0  0  0  0  0  0  0  0  0  0
   -3.7552   -2.8428   -0.1584 H   0  0  0  0  0  0  0  0  0  0  0  0
   -2.1052   -2.1358    0.9946 C   0  0  0  0  0  0  0  0  0  0  0  0
   -1.2852   -2.7288    1.6826 O   0  0  0  0  0  0  0  0  0  0  0  0
   -1.8202   -1.0288    0.3146 N   0  0  0  0  0  0  0  0  0  0  0  0
   -2.5542   -0.5788   -0.2104 H   0  0  0  0  0  0  0  0  0  0  0  0
   -0.5102   -0.3728    0.3086 C   0  0  1  0  0  0  0  0  0  0  0  0
    0.2354   -1.0844   -0.0490 H   0  0  0  0  0  0  0  0  0  0  0  0
   -0.5452    0.8158   -0.6698 C   0  0  0  0  0  0  0  0  0  0  0  0
   -0.8015    0.4511   -1.6661 H   0  0  0  0  0  0  0  0  0  0  0  0
   -1.3254    1.5118   -0.3563 H   0  0  0  0  0  0  0  0  0  0  0  0
    0.7586    1.5662   -0.7548 C   0  0  0  0  0  0  0  0  0  0  0  0
    1.5272    1.7407   -1.8857 N   0  0  0  0  0  0  0  0  0  0  0  0
    1.3586    1.3251   -2.7896 H   0  0  0  0  0  0  0  0  0  0  0  0
    2.5464    2.5586   -1.5734 C   0  0  0  0  0  0  0  0  0  0  0  0
    3.3248    2.8776   -2.2557 H   0  0  0  0  0  0  0  0  0  0  0  0
    2.4646    2.9327   -0.2882 N   0  0  0  0  0  0  0  0  0  0  0  0
    1.3350    2.3052    0.2436 C   0  0  0  0  0  0  0  0  0  0  0  0
    0.9605    2.4122    1.2535 H   0  0  0  0  0  0  0  0  0  0  0  0
   -0.1073    0.0565    1.7296 C   0  0  0  0  0  0  0  0  0  0  0  0
    1.0285   -0.1699    2.1459 O   0  0  0  0  0  0  0  0  0  0  0  0
   -1.0395    0.6588    2.4785 N   0  0  0  0  0  0  0  0  0  0  0  0
   -1.9636    0.7597    2.0849 H   0  0  0  0  0  0  0  0  0  0  0  0
   -0.8222    1.1334    3.8425 C   0  0  0  0  0  0  0  0  0  0  0  0
   -0.0212    1.8761    3.8521 H   0  0  0  0  0  0  0  0  0  0  0  0
   -1.7349    1.5853    4.2320 H   0  0  0  0  0  0  0  0  0  0  0  0
   -0.5312    0.2997    4.4834 H   0  0  0  0  0  0  0  0  0  0  0  0
  5  6  2  0  0  0  0
  5  7  1  0  0  0  0
  2  3  1  0  0  0  0
  2  4  1  0  0  0  0
  2  5  1  0  0  0  0
  1  2  1  0  0  0  0
 22 23  2  0  0  0  0
 22 24  1  0  0  0  0
 20 21  1  0  0  0  0
 19 20  1  0  0  0  0
 17 18  1  0  0  0  0
 17 19  2  0  0  0  0
 15 16  1  0  0  0  0
 15 17  1  0  0  0  0
 14 15  1  0  0  0  0
 14 20  2  0  0  0  0
 11 12  1  0  0  0  0
 11 13  1  0  0  0  0
 11 14  1  0  0  0  0
  9 10  1  0  0  0  0
  9 11  1  0  0  0  0
  9 22  1  0  0  0  0
  7  8  1  0  0  0  0
  7  9  1  0  0  0  0
 26 27  1  0  0  0  0
 26 28  1  0  0  0  0
 26 29  1  0  0  0  0
 24 25  1  0  0  0  0
 24 26  1  0  0  0  0
M  END
$$$$
default_name
  -OEChem-02102213163D

 29 29  0     1  0  0  0  0  0999 V2000
   -3.6042   -3.5728    1.4576 H   0  0  0  0  0  0  0  0  0  0  0  0
   -3.5202   -2.6488    0.8866 C   0  0  0  0  0  0  0  0  0  0  0  0
   -4.2052   -1.9048    1.2896 H   0  0  0  0  0  0  0  0  0  0  0  0
   -3.7552   -2.8428   -0.1584 H   0  0  0  0  0  0  0  0  0  0  0  0
   -2.1052   -2.1358    0.9946 C   0  0  0  0  0  0  0  0  0  0  0  0
   -1.2852   -2.7288    1.6826 O   0  0  0  0  0  0  0  0  0  0  0  0
   -1.8202   -1.0288    0.3146 N   0  0  0  0  0  0  0  0  0  0  0  0
   -2.5542   -0.5788   -0.2104 H   0  0  0  0  0  0  0  0  0  0  0  0
   -0.5102   -0.3728    0.3086 C   0  0  1  0  0  0  0  0  0  0  0  0
    0.2354   -1.0844   -0.0490 H   0  0  0  0  0  0  0  0  0  0  0  0
   -0.5452    0.8158   -0.6698 C   0  0  0  0  0  0  0  0  0  0  0  0
   -0.8015    0.4511   -1.6661 H   0  0  0  0  0  0  0  0  0  0  0  0
   -1.3254    1.5118   -0.3563 H   0  0  0  0  0  0  0  0  0  0  0  0
    0.7586    1.5662   -0.7548 C   0  0  0  0  0  0  0  0  0  0  0  0
    1.3818    1.9907   -1.9087 N   0  0  0  0  0  0  0  0  0  0  0  0
    1.0875    1.7890   -2.8526 H   0  0  0  0  0  0  0  0  0  0  0  0
    2.4560    2.7174   -1.5576 C   0  0  0  0  0  0  0  0  0  0  0  0
    3.1503    3.1818   -2.2473 H   0  0  0  0  0  0  0  0  0  0  0  0
    2.5494    2.7929   -0.2220 N   0  0  0  0  0  0  0  0  0  0  0  0
    1.4788    2.0617    0.2993 C   0  0  0  0  0  0  0  0  0  0  0  0
    1.2391    1.9388    1.3476 H   0  0  0  0  0  0  0  0  0  0  0  0
   -0.1073    0.0565    1.7296 C   0  0  0  0  0  0  0  0  0  0  0  0
    1.0285   -0.1699    2.1459 O   0  0  0  0  0  0  0  0  0  0  0  0
   -1.0395    0.6588    2.4785 N   0  0  0  0  0  0  0  0  0  0  0  0
   -1.9636    0.7597    2.0849 H   0  0  0  0  0  0  0  0  0  0  0  0
   -0.8222    1.1334    3.8425 C   0  0  0  0  0  0  0  0  0  0  0  0
   -0.0212    1.8761    3.8521 H   0  0  0  0  0  0  0  0  0  0  0  0
   -1.7349    1.5853    4.2320 H   0  0  0  0  0  0  0  0  0  0  0  0
   -0.5312    0.2997    4.4834 H   0  0  0  0  0  0  0  0  0  0  0  0
  5  6  2  0  0  0  0
  5  7  1  0  0  0  0
  2  3  1  0  0  0  0
  2  4  1  0  0  0  0
  2  5  1  0  0  0  0
  1  2  1  0  0  0  0
 22 23  2  0  0  0  0
 22 24  1  0  0  0  0
 20 21  1  0  0  0  0
 19 20  1  0  0  0  0
 17 18  1  0  0  0  0
 17 19  2  0  0  0  0
 15 16  1  0  0  0  0
 15 17  1  0  0  0  0
 14 15  1  0  0  0  0
 14 20  2  0  0  0  0
 11 12  1  0  0  0  0
 11 13  1  0  0  0  0
 11 14  1  0  0  0  0
  9 10  1  0  0  0  0
  9 11  1  0  0  0  0
  9 22  1  0  0  0  0
  7  8  1  0  0  0  0
  7  9  1  0  0  0  0
 26 27  1  0  0  0  0
 26 28  1  0  0  0  0
 26 29  1  0  0  0  0
 24 25  1  0  0  0  0
 24 26  1  0  0  0  0
M  END
$$$$
default_name
  -OEChem-02102213163D

 29 29  0     1  0  0  0  0  0999 V2000
   -3.6042   -3.5728    1.4576 H   0  0  0  0  0  0  0  0  0  0  0  0
   -3.5202   -2.6488    0.8866 C   0  0  0  0  0  0  0  0  0  0  0  0
   -4.2052   -1.9048    1.2896 H   0  0  0  0  0  0  0  0  0  0  0  0
   -3.7552   -2.8428   -0.1584 H   0  0  0  0  0  0  0  0  0  0  0  0
   -2.1052   -2.1358    0.9946 C   0  0  0  0  0  0  0  0  0  0  0  0
   -1.2852   -2.7288    1.6826 O   0  0  0  0  0  0  0  0  0  0  0  0
   -1.8202   -1.0288    0.3146 N   0  0  0  0  0  0  0  0  0  0  0  0
   -2.5542   -0.5788   -0.2104 H   0  0  0  0  0  0  0  0  0  0  0  0
   -0.5102   -0.3728    0.3086 C   0  0  1  0  0  0  0  0  0  0  0  0
    0.2354   -1.0844   -0.0490 H   0  0  0  0  0  0  0  0  0  0  0  0
   -0.5452    0.8158   -0.6698 C   0  0  0  0  0  0  0  0  0  0  0  0
   -0.8015    0.4511   -1.6661 H   0  0  0  0  0  0  0  0  0  0  0  0
   -1.3254    1.5118   -0.3563 H   0  0  0  0  0  0  0  0  0  0  0  0
    0.7586    1.5662   -0.7548 C   0  0  0  0  0  0  0  0  0  0  0  0
    1.2421    2.2394   -1.8562 N   0  0  0  0  0  0  0  0  0  0  0  0
    0.8243    2.2551   -2.7746 H   0  0  0  0  0  0  0  0  0  0  0  0
    2.3731    2.8686   -1.4952 C   0  0  0  0  0  0  0  0  0  0  0  0
    2.9873    3.4763   -2.1485 H   0  0  0  0  0  0  0  0  0  0  0  0
    2.6378    2.6417   -0.2003 N   0  0  0  0  0  0  0  0  0  0  0  0
    1.6212    1.8119    0.2800 C   0  0  0  0  0  0  0  0  0  0  0  0
    1.5134    1.4564    1.2965 H   0  0  0  0  0  0  0  0  0  0  0  0
   -0.1073    0.0565    1.7296 C   0  0  0  0  0  0  0  0  0  0  0  0
    1.0285   -0.1699    2.1459 O   0  0  0  0  0  0  0  0  0  0  0  0
   -1.0395    0.6588    2.4785 N   0  0  0  0  0  0  0  0  0  0  0  0
   -1.9636    0.7597    2.0849 H   0  0  0  0  0  0  0  0  0  0  0  0
   -0.8222    1.1334    3.8425 C   0  0  0  0  0  0  0  0  0  0  0  0
   -0.0212    1.8761    3.8521 H   0  0  0  0  0  0  0  0  0  0  0  0
   -1.7349    1.5853    4.2320 H   0  0  0  0  0  0  0  0  0  0  0  0
   -0.5312    0.2997    4.4834 H   0  0  0  0  0  0  0  0  0  0  0  0
  5  6  2  0  0  0  0
  5  7  1  0  0  0  0
  2  3  1  0  0  0  0
  2  4  1  0  0  0  0
  2  5  1  0  0  0  0
  1  2  1  0  0  0  0
 22 23  2  0  0  0  0
 22 24  1  0  0  0  0
 20 21  1  0  0  0  0
 19 20  1  0  0  0  0
 17 18  1  0  0  0  0
 17 19  2  0  0  0  0
 15 16  1  0  0  0  0
 15 17  1  0  0  0  0
 14 15  1  0  0  0  0
 14 20  2  0  0  0  0
 11 12  1  0  0  0  0
 11 13  1  0  0  0  0
 11 14  1  0  0  0  0
  9 10  1  0  0  0  0
  9 11  1  0  0  0  0
  9 22  1  0  0  0  0
  7  8  1  0  0  0  0
  7  9  1  0  0  0  0
 26 27  1  0  0  0  0
 26 28  1  0  0  0  0
 26 29  1  0  0  0  0
 24 25  1  0  0  0  0
 24 26  1  0  0  0  0
M  END
$$$$
default_name
  -OEChem-02102213163D

 29 29  0     1  0  0  0  0  0999 V2000
   -3.6042   -3.5728    1.4576 H   0  0  0  0  0  0  0  0  0  0  0  0
   -3.5202   -2.6488    0.8866 C   0  0  0  0  0  0  0  0  0  0  0  0
   -4.2052   -1.9048    1.2896 H   0  0  0  0  0  0  0  0  0  0  0  0
   -3.7552   -2.8428   -0.1584 H   0  0  0  0  0  0  0  0  0  0  0  0
   -2.1052   -2.1358    0.9946 C   0  0  0  0  0  0  0  0  0  0  0  0
   -1.2852   -2.7288    1.6826 O   0  0  0  0  0  0  0  0  0  0  0  0
   -1.8202   -1.0288    0.3146 N   0  0  0  0  0  0  0  0  0  0  0  0
   -2.5542   -0.5788   -0.2104 H   0  0  0  0  0  0  0  0  0  0  0  0
   -0.5102   -0.3728    0.3086 C   0  0  1  0  0  0  0  0  0  0  0  0
    0.2354   -1.0844   -0.0490 H   0  0  0  0  0  0  0  0  0  0  0  0
   -0.5452    0.8158   -0.6698 C   0  0  0  0  0  0  0  0  0  0  0  0
   -0.8015    0.4511   -1.6661 H   0  0  0  0  0  0  0  0  0  0  0  0
   -1.3254    1.5118   -0.3563 H   0  0  0  0  0  0  0  0  0  0  0  0
    0.7586    1.5662   -0.7548 C   0  0  0  0  0  0  0  0  0  0  0  0
    1.1176    2.4699   -1.7318 N   0  0  0  0  0  0  0  0  0  0  0  0
    0.5870    2.6918   -2.5609 H   0  0  0  0  0  0  0  0  0  0  0  0
    2.3032    3.0019   -1.3904 C   0  0  0  0  0  0  0  0  0  0  0  0
    2.8469    3.7410   -1.9662 H   0  0  0  0  0  0  0  0  0  0  0  0
    2.7237    2.4896   -0.2246 N   0  0  0  0  0  0  0  0  0  0  0  0
    1.7527    1.5730    0.1870 C   0  0  0  0  0  0  0  0  0  0  0  0
    1.7647    0.9979    1.1039 H   0  0  0  0  0  0  0  0  0  0  0  0
   -0.1073    0.0565    1.7296 C   0  0  0  0  0  0  0  0  0  0  0  0
    1.0285   -0.1699    2.1459 O   0  0  0  0  0  0  0  0  0  0  0  0
   -1.0395    0.6588    2.4785 N   0  0  0  0  0  0  0  0  0  0  0  0
   -1.9636    0.7597    2.0849 H   0  0  0  0  0  0  0  0  0  0  0  0
   -0.8222    1.1334    3.8425 C   0  0  0  0  0  0  0  0  0  0  0  0
   -0.0212    1.8761    3.8521 H   0  0  0  0  0  0  0  0  0  0  0  0
   -1.7349    1.5853    4.2320 H   0  0  0  0  0  0  0  0  0  0  0  0
   -0.5312    0.2997    4.4834 H   0  0  0  0  0  0  0  0  0  0  0  0
  5  6  2  0  0  0  0
  5  7  1  0  0  0  0
  2  3  1  0  0  0  0
  2  4  1  0  0  0  0
  2  5  1  0  0  0  0
  1  2  1  0  0  0  0
 22 23  2  0  0  0  0
 22 24  1  0  0  0  0
 20 21  1  0  0  0  0
 19 20  1  0  0  0  0
 17 18  1  0  0  0  0
 17 19  2  0  0  0  0
 15 16  1  0  0  0  0
 15 17  1  0  0  0  0
 14 15  1  0  0  0  0
 14 20  2  0  0  0  0
 11 12  1  0  0  0  0
 11 13  1  0  0  0  0
 11 14  1  0  0  0  0
  9 10  1  0  0  0  0
  9 11  1  0  0  0  0
  9 22  1  0  0  0  0
  7  8  1  0  0  0  0
  7  9  1  0  0  0  0
 26 27  1  0  0  0  0
 26 28  1  0  0  0  0
 26 29  1  0  0  0  0
 24 25  1  0  0  0  0
 24 26  1  0  0  0  0
M  END
$$$$
default_name
  -OEChem-02102213163D

 29 29  0     1  0  0  0  0  0999 V2000
   -3.6042   -3.5728    1.4576 H   0  0  0  0  0  0  0  0  0  0  0  0
   -3.5202   -2.6488    0.8866 C   0  0  0  0  0  0  0  0  0  0  0  0
   -4.2052   -1.9048    1.2896 H   0  0  0  0  0  0  0  0  0  0  0  0
   -3.7552   -2.8428   -0.1584 H   0  0  0  0  0  0  0  0  0  0  0  0
   -2.1052   -2.1358    0.9946 C   0  0  0  0  0  0  0  0  0  0  0  0
   -1.2852   -2.7288    1.6826 O   0  0  0  0  0  0  0  0  0  0  0  0
   -1.8202   -1.0288    0.3146 N   0  0  0  0  0  0  0  0  0  0  0  0
   -2.5542   -0.5788   -0.2104 H   0  0  0  0  0  0  0  0  0  0  0  0
   -0.5102   -0.3728    0.3086 C   0  0  1  0  0  0  0  0  0  0  0  0
    0.2354   -1.0844   -0.0490 H   0  0  0  0  0  0  0  0  0  0  0  0
   -0.5452    0.8158   -0.6698 C   0  0  0  0  0  0  0  0  0  0  0  0
   -1.0520    0.5092   -1.5865 H   0  0  0  0  0  0  0  0  0  0  0  0
   -1.1220    1.6276   -0.2229 H   0  0  0  0  0  0  0  0  0  0  0  0
    0.8202    1.3416   -1.0299 C   0  0  0  0  0  0  0  0  0  0  0  0
    1.0917    2.3927   -1.8792 N   0  0  0  0  0  0  0  0  0  0  0  0
    0.4173    2.9004   -2.4321 H   0  0  0  0  0  0  0  0  0  0  0  0
    2.4153    2.6214   -1.8475 C   0  0  0  0  0  0  0  0  0  0  0  0
    2.9327    3.3839   -2.4168 H   0  0  0  0  0  0  0  0  0  0  0  0
    3.0137    1.7693   -1.0024 N   0  0  0  0  0  0  0  0  0  0  0  0
    2.0110    0.9483   -0.4799 C   0  0  0  0  0  0  0  0  0  0  0  0
    2.1446    0.1657    0.2557 H   0  0  0  0  0  0  0  0  0  0  0  0
   -0.1073    0.0565    1.7296 C   0  0  0  0  0  0  0  0  0  0  0  0
    1.0285   -0.1699    2.1459 O   0  0  0  0  0  0  0  0  0  0  0  0
   -1.0395    0.6588    2.4785 N   0  0  0  0  0  0  0  0  0  0  0  0
   -1.9636    0.7597    2.0849 H   0  0  0  0  0  0  0  0  0  0  0  0
   -0.8222    1.1334    3.8425 C   0  0  0  0  0  0  0  0  0  0  0  0
   -0.0212    1.8761    3.8521 H   0  0  0  0  0  0  0  0  0  0  0  0
   -1.7349    1.5853    4.2320 H   0  0  0  0  0  0  0  0  0  0  0  0
   -0.5312    0.2997    4.4834 H   0  0  0  0  0  0  0  0  0  0  0  0
  5  6  2  0  0  0  0
  5  7  1  0  0  0  0
  2  3  1  0  0  0  0
  2  4  1  0  0  0  0
  2  5  1  0  0  0  0
  1  2  1  0  0  0  0
 22 23  2  0  0  0  0
 22 24  1  0  0  0  0
 20 21  1  0  0  0  0
 19 20  1  0  0  0  0
 17 18  1  0  0  0  0
 17 19  2  0  0  0  0
 15 16  1  0  0  0  0
 15 17  1  0  0  0  0
 14 15  1  0  0  0  0
 14 20  2  0  0  0  0
 11 12  1  0  0  0  0
 11 13  1  0  0  0  0
 11 14  1  0  0  0  0
  9 10  1  0  0  0  0
  9 11  1  0  0  0  0
  9 22  1  0  0  0  0
  7  8  1  0  0  0  0
  7  9  1  0  0  0  0
 26 27  1  0  0  0  0
 26 28  1  0  0  0  0
 26 29  1  0  0  0  0
 24 25  1  0  0  0  0
 24 26  1  0  0  0  0
M  END
$$$$
default_name
  -OEChem-02102213163D

 29 29  0     1  0  0  0  0  0999 V2000
   -3.6042   -3.5728    1.4576 H   0  0  0  0  0  0  0  0  0  0  0  0
   -3.5202   -2.6488    0.8866 C   0  0  0  0  0  0  0  0  0  0  0  0
   -4.2052   -1.9048    1.2896 H   0  0  0  0  0  0  0  0  0  0  0  0
   -3.7552   -2.8428   -0.1584 H   0  0  0  0  0  0  0  0  0  0  0  0
   -2.1052   -2.1358    0.9946 C   0  0  0  0  0  0  0  0  0  0  0  0
   -1.2852   -2.7288    1.6826 O   0  0  0  0  0  0  0  0  0  0  0  0
   -1.8202   -1.0288    0.3146 N   0  0  0  0  0  0  0  0  0  0  0  0
   -2.5542   -0.5788   -0.2104 H   0  0  0  0  0  0  0  0  0  0  0  0
   -0.5102   -0.3728    0.3086 C   0  0  1  0  0  0  0  0  0  0  0  0
    0.2354   -1.0844   -0.0490 H   0  0  0  0  0  0  0  0  0  0  0  0
   -0.5452    0.8158   -0.6698 C   0  0  0  0  0  0  0  0  0  0  0  0
   -1.0520    0.5092   -1.5865 H   0  0  0  0  0  0  0  0  0  0  0  0
   -1.1220    1.6276   -0.2229 H   0  0  0  0  0  0  0  0  0  0  0  0
    0.8202    1.3416   -1.0299 C   0  0  0  0  0  0  0  0  0  0  0  0
    1.0959    2.5490   -1.6349 N   0  0  0  0  0  0  0  0  0  0  0  0
    0.4166    3.2071   -1.9865 H   0  0  0  0  0  0  0  0  0  0  0  0
    2.4308    2.6957   -1.6805 C   0  0  0  0  0  0  0  0  0  0  0  0
    2.9531    3.5441   -2.1054 H   0  0  0  0  0  0  0  0  0  0  0  0
    3.0337    1.6379   -1.1185 N   0  0  0  0  0  0  0  0  0  0  0  0
    2.0208    0.7687   -0.7050 C   0  0  0  0  0  0  0  0  0  0  0  0
    2.1578   -0.1720   -0.1874 H   0  0  0  0  0  0  0  0  0  0  0  0
   -0.1073    0.0565    1.7296 C   0  0  0  0  0  0  0  0  0  0  0  0
    1.0285   -0.1699    2.1459 O   0  0  0  0  0  0  0  0  0  0  0  0
   -1.0395    0.6588    2.4785 N   0  0  0  0  0  0  0  0  0  0  0  0
   -1.9636    0.7597    2.0849 H   0  0  0  0  0  0  0  0  0  0  0  0
   -0.8222    1.1334    3.8425 C   0  0  0  0  0  0  0  0  0  0  0  0
   -0.0212    1.8761    3.8521 H   0  0  0  0  0  0  0  0  0  0  0  0
   -1.7349    1.5853    4.2320 H   0  0  0  0  0  0  0  0  0  0  0  0
   -0.5312    0.2997    4.4834 H   0  0  0  0  0  0  0  0  0  0  0  0
  5  6  2  0  0  0  0
  5  7  1  0  0  0  0
  2  3  1  0  0  0  0
  2  4  1  0  0  0  0
  2  5  1  0  0  0  0
  1  2  1  0  0  0  0
 22 23  2  0  0  0  0
 22 24  1  0  0  0  0
 20 21  1  0  0  0  0
 19 20  1  0  0  0  0
 17 18  1  0  0  0  0
 17 19  2  0  0  0  0
 15 16  1  0  0  0  0
 15 17  1  0  0  0  0
 14 15  1  0  0  0  0
 14 20  2  0  0  0  0
 11 12  1  0  0  0  0
 11 13  1  0  0  0  0
 11 14  1  0  0  0  0
  9 10  1  0  0  0  0
  9 11  1  0  0  0  0
  9 22  1  0  0  0  0
  7  8  1  0  0  0  0
  7  9  1  0  0  0  0
 26 27  1  0  0  0  0
 26 28  1  0  0  0  0
 26 29  1  0  0  0  0
 24 25  1  0  0  0  0
 24 26  1  0  0  0  0
M  END
$$$$
default_name
  -OEChem-02102213163D

 29 29  0     1  0  0  0  0  0999 V2000
   -3.6042   -3.5728    1.4576 H   0  0  0  0  0  0  0  0  0  0  0  0
   -3.5202   -2.6488    0.8866 C   0  0  0  0  0  0  0  0  0  0  0  0
   -4.2052   -1.9048    1.2896 H   0  0  0  0  0  0  0  0  0  0  0  0
   -3.7552   -2.8428   -0.1584 H   0  0  0  0  0  0  0  0  0  0  0  0
   -2.1052   -2.1358    0.9946 C   0  0  0  0  0  0  0  0  0  0  0  0
   -1.2852   -2.7288    1.6826 O   0  0  0  0  0  0  0  0  0  0  0  0
   -1.8202   -1.0288    0.3146 N   0  0  0  0  0  0  0  0  0  0  0  0
   -2.5542   -0.5788   -0.2104 H   0  0  0  0  0  0  0  0  0  0  0  0
   -0.5102   -0.3728    0.3086 C   0  0  1  0  0  0  0  0  0  0  0  0
    0.2354   -1.0844   -0.0490 H   0  0  0  0  0  0  0  0  0  0  0  0
   -0.5452    0.8158   -0.6698 C   0  0  0  0  0  0  0  0  0  0  0  0
   -1.0520    0.5092   -1.5865 H   0  0  0  0  0  0  0  0  0  0  0  0
   -1.1220    1.6276   -0.2229 H   0  0  0  0  0  0  0  0  0  0  0  0
    0.8202    1.3416   -1.0299 C   0  0  0  0  0  0  0  0  0  0  0  0
    1.1317    2.6424   -1.3627 N   0  0  0  0  0  0  0  0  0  0  0  0
    0.4753    3.3990   -1.4841 H   0  0  0  0  0  0  0  0  0  0  0  0
    2.4653    2.7273   -1.5032 C   0  0  0  0  0  0  0  0  0  0  0  0
    3.0109    3.6245   -1.7689 H   0  0  0  0  0  0  0  0  0  0  0  0
    3.0344    1.5370   -1.2632 N   0  0  0  0  0  0  0  0  0  0  0  0
    1.9988    0.6474   -0.9654 C   0  0  0  0  0  0  0  0  0  0  0  0
    2.1096   -0.3950   -0.6958 H   0  0  0  0  0  0  0  0  0  0  0  0
   -0.1073    0.0565    1.7296 C   0  0  0  0  0  0  0  0  0  0  0  0
    1.0285   -0.1699    2.1459 O   0  0  0  0  0  0  0  0  0  0  0  0
   -1.0395    0.6588    2.4785 N   0  0  0  0  0  0  0  0  0  0  0  0
   -1.9636    0.7597    2.0849 H   0  0  0  0  0  0  0  0  0  0  0  0
   -0.8222    1.1334    3.8425 C   0  0  0  0  0  0  0  0  0  0  0  0
   -0.0212    1.8761    3.8521 H   0  0  0  0  0  0  0  0  0  0  0  0
   -1.7349    1.5853    4.2320 H   0  0  0  0  0  0  0  0  0  0  0  0
   -0.5312    0.2997    4.4834 H   0  0  0  0  0  0  0  0  0  0  0  0
  5  6  2  0  0  0  0
  5  7  1  0  0  0  0
  2  3  1  0  0  0  0
  2  4  1  0  0  0  0
  2  5  1  0  0  0  0
  1  2  1  0  0  0  0
 22 23  2  0  0  0  0
 22 24  1  0  0  0  0
 20 21  1  0  0  0  0
 19 20  1  0  0  0  0
 17 18  1  0  0  0  0
 17 19  2  0  0  0  0
 15 16  1  0  0  0  0
 15 17  1  0  0  0  0
 14 15  1  0  0  0  0
 14 20  2  0  0  0  0
 11 12  1  0  0  0  0
 11 13  1  0  0  0  0
 11 14  1  0  0  0  0
  9 10  1  0  0  0  0
  9 11  1  0  0  0  0
  9 22  1  0  0  0  0
  7  8  1  0  0  0  0
  7  9  1  0  0  0  0
 26 27  1  0  0  0  0
 26 28  1  0  0  0  0
 26 29  1  0  0  0  0
 24 25  1  0  0  0  0
 24 26  1  0  0  0  0
M  END
$$$$
default_name
  -OEChem-02102213163D

 29 29  0     1  0  0  0  0  0999 V2000
   -3.6042   -3.5728    1.4576 H   0  0  0  0  0  0  0  0  0  0  0  0
   -3.5202   -2.6488    0.8866 C   0  0  0  0  0  0  0  0  0  0  0  0
   -4.2052   -1.9048    1.2896 H   0  0  0  0  0  0  0  0  0  0  0  0
   -3.7552   -2.8428   -0.1584 H   0  0  0  0  0  0  0  0  0  0  0  0
   -2.1052   -2.1358    0.9946 C   0  0  0  0  0  0  0  0  0  0  0  0
   -1.2852   -2.7288    1.6826 O   0  0  0  0  0  0  0  0  0  0  0  0
   -1.8202   -1.0288    0.3146 N   0  0  0  0  0  0  0  0  0  0  0  0
   -2.5542   -0.5788   -0.2104 H   0  0  0  0  0  0  0  0  0  0  0  0
   -0.5102   -0.3728    0.3086 C   0  0  1  0  0  0  0  0  0  0  0  0
    0.2354   -1.0844   -0.0490 H   0  0  0  0  0  0  0  0  0  0  0  0
   -0.5452    0.8158   -0.6698 C   0  0  0  0  0  0  0  0  0  0  0  0
   -1.0520    0.5092   -1.5865 H   0  0  0  0  0  0  0  0  0  0  0  0
   -1.1220    1.6276   -0.2229 H   0  0  0  0  0  0  0  0  0  0  0  0
    0.8202    1.3416   -1.0299 C   0  0  0  0  0  0  0  0  0  0  0  0
    1.1967    2.6666   -1.0810 N   0  0  0  0  0  0  0  0  0  0  0  0
    0.5891    3.4629   -0.9591 H   0  0  0  0  0  0  0  0  0  0  0  0
    2.5167    2.7142   -1.3277 C   0  0  0  0  0  0  0  0  0  0  0  0
    3.1021    3.6198   -1.4303 H   0  0  0  0  0  0  0  0  0  0  0  0
    3.0157    1.4734   -1.4267 N   0  0  0  0  0  0  0  0  0  0  0  0
    1.9466    0.5926   -1.2435 C   0  0  0  0  0  0  0  0  0  0  0  0
    2.0033   -0.4882   -1.2349 H   0  0  0  0  0  0  0  0  0  0  0  0
   -0.1073    0.0565    1.7296 C   0  0  0  0  0  0  0  0  0  0  0  0
    1.0285   -0.1699    2.1459 O   0  0  0  0  0  0  0  0  0  0  0  0
   -1.0395    0.6588    2.4785 N   0  0  0  0  0  0  0  0  0  0  0  0
   -1.9636    0.7597    2.0849 H   0  0  0  0  0  0  0  0  0  0  0  0
   -0.8222    1.1334    3.8425 C   0  0  0  0  0  0  0  0  0  0  0  0
   -0.0212    1.8761    3.8521 H   0  0  0  0  0  0  0  0  0  0  0  0
   -1.7349    1.5853    4.2320 H   0  0  0  0  0  0  0  0  0  0  0  0
   -0.5312    0.2997    4.4834 H   0  0  0  0  0  0  0  0  0  0  0  0
  5  6  2  0  0  0  0
  5  7  1  0  0  0  0
  2  3  1  0  0  0  0
  2  4  1  0  0  0  0
  2  5  1  0  0  0  0
  1  2  1  0  0  0  0
 22 23  2  0  0  0  0
 22 24  1  0  0  0  0
 20 21  1  0  0  0  0
 19 20  1  0  0  0  0
 17 18  1  0  0  0  0
 17 19  2  0  0  0  0
 15 16  1  0  0  0  0
 15 17  1  0  0  0  0
 14 15  1  0  0  0  0
 14 20  2  0  0  0  0
 11 12  1  0  0  0  0
 11 13  1  0  0  0  0
 11 14  1  0  0  0  0
  9 10  1  0  0  0  0
  9 11  1  0  0  0  0
  9 22  1  0  0  0  0
  7  8  1  0  0  0  0
  7  9  1  0  0  0  0
 26 27  1  0  0  0  0
 26 28  1  0  0  0  0
 26 29  1  0  0  0  0
 24 25  1  0  0  0  0
 24 26  1  0  0  0  0
M  END
$$$$
default_name
  -OEChem-02102213163D

 29 29  0     1  0  0  0  0  0999 V2000
   -3.6042   -3.5728    1.4576 H   0  0  0  0  0  0  0  0  0  0  0  0
   -3.5202   -2.6488    0.8866 C   0  0  0  0  0  0  0  0  0  0  0  0
   -4.2052   -1.9048    1.2896 H   0  0  0  0  0  0  0  0  0  0  0  0
   -3.7552   -2.8428   -0.1584 H   0  0  0  0  0  0  0  0  0  0  0  0
   -2.1052   -2.1358    0.9946 C   0  0  0  0  0  0  0  0  0  0  0  0
   -1.2852   -2.7288    1.6826 O   0  0  0  0  0  0  0  0  0  0  0  0
   -1.8202   -1.0288    0.3146 N   0  0  0  0  0  0  0  0  0  0  0  0
   -2.5542   -0.5788   -0.2104 H   0  0  0  0  0  0  0  0  0  0  0  0
   -0.5102   -0.3728    0.3086 C   0  0  1  0  0  0  0  0  0  0  0  0
    0.2354   -1.0844   -0.0490 H   0  0  0  0  0  0  0  0  0  0  0  0
   -0.5452    0.8158   -0.6698 C   0  0  0  0  0  0  0  0  0  0  0  0
   -1.0520    0.5092   -1.5865 H   0  0  0  0  0  0  0  0  0  0  0  0
   -1.1220    1.6276   -0.2229 H   0  0  0  0  0  0  0  0  0  0  0  0
    0.8202    1.3416   -1.0299 C   0  0  0  0  0  0  0  0  0  0  0  0
    1.2864    2.6198   -0.8092 N   0  0  0  0  0  0  0  0  0  0  0  0
    0.7505    3.3944   -0.4474 H   0  0  0  0  0  0  0  0  0  0  0  0
    2.5813    2.6572   -1.1658 C   0  0  0  0  0  0  0  0  0  0  0  0
    3.2204    3.5301   -1.1125 H   0  0  0  0  0  0  0  0  0  0  0  0
    2.9790    1.4515   -1.5979 N   0  0  0  0  0  0  0  0  0  0  0  0
    1.8676    0.6082   -1.5202 C   0  0  0  0  0  0  0  0  0  0  0  0
    1.8462   -0.4452   -1.7678 H   0  0  0  0  0  0  0  0  0  0  0  0
   -0.1073    0.0565    1.7296 C   0  0  0  0  0  0  0  0  0  0  0  0
    1.0285   -0.1699    2.1459 O   0  0  0  0  0  0  0  0  0  0  0  0
   -1.0395    0.6588    2.4785 N   0  0  0  0  0  0  0  0  0  0  0  0
   -1.9636    0.7597    2.0849 H   0  0  0  0  0  0  0  0  0  0  0  0
   -0.8222    1.1334    3.8425 C   0  0  0  0  0  0  0  0  0  0  0  0
   -0.0212    1.8761    3.8521 H   0  0  0  0  0  0  0  0  0  0  0  0
   -1.7349    1.5853    4.2320 H   0  0  0  0  0  0  0  0  0  0  0  0
   -0.5312    0.2997    4.4834 H   0  0  0  0  0  0  0  0  0  0  0  0
  5  6  2  0  0  0  0
  5  7  1  0  0  0  0
  2  3  1  0  0  0  0
  2  4  1  0  0  0  0
  2  5  1  0  0  0  0
  1  2  1  0  0  0  0
 22 23  2  0  0  0  0
 22 24  1  0  0  0  0
 20 21  1  0  0  0  0
 19 20  1  0  0  0  0
 17 18  1  0  0  0  0
 17 19  2  0  0  0  0
 15 16  1  0  0  0  0
 15 17  1  0  0  0  0
 14 15  1  0  0  0  0
 14 20  2  0  0  0  0
 11 12  1  0  0  0  0
 11 13  1  0  0  0  0
 11 14  1  0  0  0  0
  9 10  1  0  0  0  0
  9 11  1  0  0  0  0
  9 22  1  0  0  0  0
  7  8  1  0  0  0  0
  7  9  1  0  0  0  0
 26 27  1  0  0  0  0
 26 28  1  0  0  0  0
 26 29  1  0  0  0  0
 24 25  1  0  0  0  0
 24 26  1  0  0  0  0
M  END
$$$$
default_name
  -OEChem-02102213163D

 29 29  0     1  0  0  0  0  0999 V2000
   -3.6042   -3.5728    1.4576 H   0  0  0  0  0  0  0  0  0  0  0  0
   -3.5202   -2.6488    0.8866 C   0  0  0  0  0  0  0  0  0  0  0  0
   -4.2052   -1.9048    1.2896 H   0  0  0  0  0  0  0  0  0  0  0  0
   -3.7552   -2.8428   -0.1584 H   0  0  0  0  0  0  0  0  0  0  0  0
   -2.1052   -2.1358    0.9946 C   0  0  0  0  0  0  0  0  0  0  0  0
   -1.2852   -2.7288    1.6826 O   0  0  0  0  0  0  0  0  0  0  0  0
   -1.8202   -1.0288    0.3146 N   0  0  0  0  0  0  0  0  0  0  0  0
   -2.5542   -0.5788   -0.2104 H   0  0  0  0  0  0  0  0  0  0  0  0
   -0.5102   -0.3728    0.3086 C   0  0  1  0  0  0  0  0  0  0  0  0
    0.2354   -1.0844   -0.0490 H   0  0  0  0  0  0  0  0  0  0  0  0
   -0.5452    0.8158   -0.6698 C   0  0  0  0  0  0  0  0  0  0  0  0
   -1.0520    0.5092   -1.5865 H   0  0  0  0  0  0  0  0  0  0  0  0
   -1.1220    1.6276   -0.2229 H   0  0  0  0  0  0  0  0  0  0  0  0
    0.8202    1.3416   -1.0299 C   0  0  0  0  0  0  0  0  0  0  0  0
    1.3947    2.5054   -0.5657 N   0  0  0  0  0  0  0  0  0  0  0  0
    0.9483    3.1982    0.0164 H   0  0  0  0  0  0  0  0  0  0  0  0
    2.6549    2.5601   -1.0287 C   0  0  0  0  0  0  0  0  0  0  0  0
    3.3579    3.3616   -0.8372 H   0  0  0  0  0  0  0  0  0  0  0  0
    2.9268    1.4728   -1.7650 N   0  0  0  0  0  0  0  0  0  0  0  0
    1.7673    0.6930   -1.7767 C   0  0  0  0  0  0  0  0  0  0  0  0
    1.6490   -0.2690   -2.2583 H   0  0  0  0  0  0  0  0  0  0  0  0
   -0.1073    0.0565    1.7296 C   0  0  0  0  0  0  0  0  0  0  0  0
    1.0285   -0.1699    2.1459 O   0  0  0  0  0  0  0  0  0  0  0  0
   -1.0395    0.6588    2.4785 N   0  0  0  0  0  0  0  0  0  0  0  0
   -1.9636    0.7597    2.0849 H   0  0  0  0  0  0  0  0  0  0  0  0
   -0.8222    1.1334    3.8425 C   0  0  0  0  0  0  0  0  0  0  0  0
   -0.0212    1.8761    3.8521 H   0  0  0  0  0  0  0  0  0  0  0  0
   -1.7349    1.5853    4.2320 H   0  0  0  0  0  0  0  0  0  0  0  0
   -0.5312    0.2997    4.4834 H   0  0  0  0  0  0  0  0  0  0  0  0
  5  6  2  0  0  0  0
  5  7  1  0  0  0  0
  2  3  1  0  0  0  0
  2  4  1  0  0  0  0
  2  5  1  0  0  0  0
  1  2  1  0  0  0  0
 22 23  2  0  0  0  0
 22 24  1  0  0  0  0
 20 21  1  0  0  0  0
 19 20  1  0  0  0  0
 17 18  1  0  0  0  0
 17 19  2  0  0  0  0
 15 16  1  0  0  0  0
 15 17  1  0  0  0  0
 14 15  1  0  0  0  0
 14 20  2  0  0  0  0
 11 12  1  0  0  0  0
 11 13  1  0  0  0  0
 11 14  1  0  0  0  0
  9 10  1  0  0  0  0
  9 11  1  0  0  0  0
  9 22  1  0  0  0  0
  7  8  1  0  0  0  0
  7  9  1  0  0  0  0
 26 27  1  0  0  0  0
 26 28  1  0  0  0  0
 26 29  1  0  0  0  0
 24 25  1  0  0  0  0
 24 26  1  0  0  0  0
M  END
$$$$
default_name
  -OEChem-02102213163D

 29 29  0     1  0  0  0  0  0999 V2000
   -3.6042   -3.5728    1.4576 H   0  0  0  0  0  0  0  0  0  0  0  0
   -3.5202   -2.6488    0.8866 C   0  0  0  0  0  0  0  0  0  0  0  0
   -4.2052   -1.9048    1.2896 H   0  0  0  0  0  0  0  0  0  0  0  0
   -3.7552   -2.8428   -0.1584 H   0  0  0  0  0  0  0  0  0  0  0  0
   -2.1052   -2.1358    0.9946 C   0  0  0  0  0  0  0  0  0  0  0  0
   -1.2852   -2.7288    1.6826 O   0  0  0  0  0  0  0  0  0  0  0  0
   -1.8202   -1.0288    0.3146 N   0  0  0  0  0  0  0  0  0  0  0  0
   -2.5542   -0.5788   -0.2104 H   0  0  0  0  0  0  0  0  0  0  0  0
   -0.5102   -0.3728    0.3086 C   0  0  1  0  0  0  0  0  0  0  0  0
    0.2354   -1.0844   -0.0490 H   0  0  0  0  0  0  0  0  0  0  0  0
   -0.5452    0.8158   -0.6698 C   0  0  0  0  0  0  0  0  0  0  0  0
   -1.0520    0.5092   -1.5865 H   0  0  0  0  0  0  0  0  0  0  0  0
   -1.1220    1.6276   -0.2229 H   0  0  0  0  0  0  0  0  0  0  0  0
    0.8202    1.3416   -1.0299 C   0  0  0  0  0  0  0  0  0  0  0  0
    1.5142    2.3310   -0.3671 N   0  0  0  0  0  0  0  0  0  0  0  0
    1.1691    2.8878    0.4004 H   0  0  0  0  0  0  0  0  0  0  0  0
    2.7323    2.4296   -0.9256 C   0  0  0  0  0  0  0  0  0  0  0  0
    3.5051    3.1258   -0.6233 H   0  0  0  0  0  0  0  0  0  0  0  0
    2.8625    1.5358   -1.9168 N   0  0  0  0  0  0  0  0  0  0  0  0
    1.6525    0.8413   -1.9955 C   0  0  0  0  0  0  0  0  0  0  0  0
    1.4251    0.0285   -2.6729 H   0  0  0  0  0  0  0  0  0  0  0  0
   -0.1073    0.0565    1.7296 C   0  0  0  0  0  0  0  0  0  0  0  0
    1.0285   -0.1699    2.1459 O   0  0  0  0  0  0  0  0  0  0  0  0
   -1.0395    0.6588    2.4785 N   0  0  0  0  0  0  0  0  0  0  0  0
   -1.9636    0.7597    2.0849 H   0  0  0  0  0  0  0  0  0  0  0  0
   -0.8222    1.1334    3.8425 C   0  0  0  0  0  0  0  0  0  0  0  0
   -0.0212    1.8761    3.8521 H   0  0  0  0  0  0  0  0  0  0  0  0
   -1.7349    1.5853    4.2320 H   0  0  0  0  0  0  0  0  0  0  0  0
   -0.5312    0.2997    4.4834 H   0  0  0  0  0  0  0  0  0  0  0  0
  5  6  2  0  0  0  0
  5  7  1  0  0  0  0
  2  3  1  0  0  0  0
  2  4  1  0  0  0  0
  2  5  1  0  0  0  0
  1  2  1  0  0  0  0
 22 23  2  0  0  0  0
 22 24  1  0  0  0  0
 20 21  1  0  0  0  0
 19 20  1  0  0  0  0
 17 18  1  0  0  0  0
 17 19  2  0  0  0  0
 15 16  1  0  0  0  0
 15 17  1  0  0  0  0
 14 15  1  0  0  0  0
 14 20  2  0  0  0  0
 11 12  1  0  0  0  0
 11 13  1  0  0  0  0
 11 14  1  0  0  0  0
  9 10  1  0  0  0  0
  9 11  1  0  0  0  0
  9 22  1  0  0  0  0
  7  8  1  0  0  0  0
  7  9  1  0  0  0  0
 26 27  1  0  0  0  0
 26 28  1  0  0  0  0
 26 29  1  0  0  0  0
 24 25  1  0  0  0  0
 24 26  1  0  0  0  0
M  END
$$$$
default_name
  -OEChem-02102213163D

 29 29  0     1  0  0  0  0  0999 V2000
   -3.6042   -3.5728    1.4576 H   0  0  0  0  0  0  0  0  0  0  0  0
   -3.5202   -2.6488    0.8866 C   0  0  0  0  0  0  0  0  0  0  0  0
   -4.2052   -1.9048    1.2896 H   0  0  0  0  0  0  0  0  0  0  0  0
   -3.7552   -2.8428   -0.1584 H   0  0  0  0  0  0  0  0  0  0  0  0
   -2.1052   -2.1358    0.9946 C   0  0  0  0  0  0  0  0  0  0  0  0
   -1.2852   -2.7288    1.6826 O   0  0  0  0  0  0  0  0  0  0  0  0
   -1.8202   -1.0288    0.3146 N   0  0  0  0  0  0  0  0  0  0  0  0
   -2.5542   -0.5788   -0.2104 H   0  0  0  0  0  0  0  0  0  0  0  0
   -0.5102   -0.3728    0.3086 C   0  0  1  0  0  0  0  0  0  0  0  0
    0.2354   -1.0844   -0.0490 H   0  0  0  0  0  0  0  0  0  0  0  0
   -0.5452    0.8158   -0.6698 C   0  0  0  0  0  0  0  0  0  0  0  0
   -1.0520    0.5092   -1.5865 H   0  0  0  0  0  0  0  0  0  0  0  0
   -1.1220    1.6276   -0.2229 H   0  0  0  0  0  0  0  0  0  0  0  0
    0.8202    1.3416   -1.0299 C   0  0  0  0  0  0  0  0  0  0  0  0
    1.6368    2.1086   -0.2269 N   0  0  0  0  0  0  0  0  0  0  0  0
    1.3979    2.4842    0.6786 H   0  0  0  0  0  0  0  0  0  0  0  0
    2.8083    2.2746   -0.8637 C   0  0  0  0  0  0  0  0  0  0  0  0
    3.6520    2.8387   -0.4853 H   0  0  0  0  0  0  0  0  0  0  0  0
    2.7906    1.6362   -2.0428 N   0  0  0  0  0  0  0  0  0  0  0  0
    1.5310    1.0430   -2.1616 C   0  0  0  0  0  0  0  0  0  0  0  0
    1.1898    0.4269   -2.9835 H   0  0  0  0  0  0  0  0  0  0  0  0
   -0.1073    0.0565    1.7296 C   0  0  0  0  0  0  0  0  0  0  0  0
    1.0285   -0.1699    2.1459 O   0  0  0  0  0  0  0  0  0  0  0  0
   -1.0395    0.6588    2.4785 N   0  0  0  0  0  0  0  0  0  0  0  0
   -1.9636    0.7597    2.0849 H   0  0  0  0  0  0  0  0  0  0  0  0
   -0.8222    1.1334    3.8425 C   0  0  0  0  0  0  0  0  0  0  0  0
   -0.0212    1.8761    3.8521 H   0  0  0  0  0  0  0  0  0  0  0  0
   -1.7349    1.5853    4.2320 H   0  0  0  0  0  0  0  0  0  0  0  0
   -0.5312    0.2997    4.4834 H   0  0  0  0  0  0  0  0  0  0  0  0
  5  6  2  0  0  0  0
  5  7  1  0  0  0  0
  2  3  1  0  0  0  0
  2  4  1  0  0  0  0
  2  5  1  0  0  0  0
  1  2  1  0  0  0  0
 22 23  2  0  0  0  0
 22 24  1  0  0  0  0
 20 21  1  0  0  0  0
 19 20  1  0  0  0  0
 17 18  1  0  0  0  0
 17 19  2  0  0  0  0
 15 16  1  0  0  0  0
 15 17  1  0  0  0  0
 14 15  1  0  0  0  0
 14 20  2  0  0  0  0
 11 12  1  0  0  0  0
 11 13  1  0  0  0  0
 11 14  1  0  0  0  0
  9 10  1  0  0  0  0
  9 11  1  0  0  0  0
  9 22  1  0  0  0  0
  7  8  1  0  0  0  0
  7  9  1  0  0  0  0
 26 27  1  0  0  0  0
 26 28  1  0  0  0  0
 26 29  1  0  0  0  0
 24 25  1  0  0  0  0
 24 26  1  0  0  0  0
M  END
$$$$
default_name
  -OEChem-02102213163D

 29 29  0     1  0  0  0  0  0999 V2000
   -3.6042   -3.5728    1.4576 H   0  0  0  0  0  0  0  0  0  0  0  0
   -3.5202   -2.6488    0.8866 C   0  0  0  0  0  0  0  0  0  0  0  0
   -4.2052   -1.9048    1.2896 H   0  0  0  0  0  0  0  0  0  0  0  0
   -3.7552   -2.8428   -0.1584 H   0  0  0  0  0  0  0  0  0  0  0  0
   -2.1052   -2.1358    0.9946 C   0  0  0  0  0  0  0  0  0  0  0  0
   -1.2852   -2.7288    1.6826 O   0  0  0  0  0  0  0  0  0  0  0  0
   -1.8202   -1.0288    0.3146 N   0  0  0  0  0  0  0  0  0  0  0  0
   -2.5542   -0.5788   -0.2104 H   0  0  0  0  0  0  0  0  0  0  0  0
   -0.5102   -0.3728    0.3086 C   0  0  1  0  0  0  0  0  0  0  0  0
    0.2354   -1.0844   -0.0490 H   0  0  0  0  0  0  0  0  0  0  0  0
   -0.5452    0.8158   -0.6698 C   0  0  0  0  0  0  0  0  0  0  0  0
   -1.0520    0.5092   -1.5865 H   0  0  0  0  0  0  0  0  0  0  0  0
   -1.1220    1.6276   -0.2229 H   0  0  0  0  0  0  0  0  0  0  0  0
    0.8202    1.3416   -1.0299 C   0  0  0  0  0  0  0  0  0  0  0  0
    1.7542    1.8533   -0.1548 N   0  0  0  0  0  0  0  0  0  0  0  0
    1.6190    2.0149    0.8320 H   0  0  0  0  0  0  0  0  0  0  0  0
    2.8777    2.1057   -0.8470 C   0  0  0  0  0  0  0  0  0  0  0  0
    3.7887    2.5200   -0.4325 H   0  0  0  0  0  0  0  0  0  0  0  0
    2.7160    1.7672   -2.1345 N   0  0  0  0  0  0  0  0  0  0  0  0
    1.4111    1.2843   -2.2639 C   0  0  0  0  0  0  0  0  0  0  0  0
    0.9591    0.8991   -3.1687 H   0  0  0  0  0  0  0  0  0  0  0  0
   -0.1073    0.0565    1.7296 C   0  0  0  0  0  0  0  0  0  0  0  0
    1.0285   -0.1699    2.1459 O   0  0  0  0  0  0  0  0  0  0  0  0
   -1.0395    0.6588    2.4785 N   0  0  0  0  0  0  0  0  0  0  0  0
   -1.9636    0.7597    2.0849 H   0  0  0  0  0  0  0  0  0  0  0  0
   -0.8222    1.1334    3.8425 C   0  0  0  0  0  0  0  0  0  0  0  0
   -0.0212    1.8761    3.8521 H   0  0  0  0  0  0  0  0  0  0  0  0
   -1.7349    1.5853    4.2320 H   0  0  0  0  0  0  0  0  0  0  0  0
   -0.5312    0.2997    4.4834 H   0  0  0  0  0  0  0  0  0  0  0  0
  5  6  2  0  0  0  0
  5  7  1  0  0  0  0
  2  3  1  0  0  0  0
  2  4  1  0  0  0  0
  2  5  1  0  0  0  0
  1  2  1  0  0  0  0
 22 23  2  0  0  0  0
 22 24  1  0  0  0  0
 20 21  1  0  0  0  0
 19 20  1  0  0  0  0
 17 18  1  0  0  0  0
 17 19  2  0  0  0  0
 15 16  1  0  0  0  0
 15 17  1  0  0  0  0
 14 15  1  0  0  0  0
 14 20  2  0  0  0  0
 11 12  1  0  0  0  0
 11 13  1  0  0  0  0
 11 14  1  0  0  0  0
  9 10  1  0  0  0  0
  9 11  1  0  0  0  0
  9 22  1  0  0  0  0
  7  8  1  0  0  0  0
  7  9  1  0  0  0  0
 26 27  1  0  0  0  0
 26 28  1  0  0  0  0
 26 29  1  0  0  0  0
 24 25  1  0  0  0  0
 24 26  1  0  0  0  0
M  END
$$$$
default_name
  -OEChem-02102213163D

 29 29  0     1  0  0  0  0  0999 V2000
   -3.6042   -3.5728    1.4576 H   0  0  0  0  0  0  0  0  0  0  0  0
   -3.5202   -2.6488    0.8866 C   0  0  0  0  0  0  0  0  0  0  0  0
   -4.2052   -1.9048    1.2896 H   0  0  0  0  0  0  0  0  0  0  0  0
   -3.7552   -2.8428   -0.1584 H   0  0  0  0  0  0  0  0  0  0  0  0
   -2.1052   -2.1358    0.9946 C   0  0  0  0  0  0  0  0  0  0  0  0
   -1.2852   -2.7288    1.6826 O   0  0  0  0  0  0  0  0  0  0  0  0
   -1.8202   -1.0288    0.3146 N   0  0  0  0  0  0  0  0  0  0  0  0
   -2.5542   -0.5788   -0.2104 H   0  0  0  0  0  0  0  0  0  0  0  0
   -0.5102   -0.3728    0.3086 C   0  0  1  0  0  0  0  0  0  0  0  0
    0.2354   -1.0844   -0.0490 H   0  0  0  0  0  0  0  0  0  0  0  0
   -0.5452    0.8158   -0.6698 C   0  0  0  0  0  0  0  0  0  0  0  0
   -1.0520    0.5092   -1.5865 H   0  0  0  0  0  0  0  0  0  0  0  0
   -1.1220    1.6276   -0.2229 H   0  0  0  0  0  0  0  0  0  0  0  0
    0.8202    1.3416   -1.0299 C   0  0  0  0  0  0  0  0  0  0  0  0
    1.8582    1.5826   -0.1556 N   0  0  0  0  0  0  0  0  0  0  0  0
    1.8175    1.5120    0.8502 H   0  0  0  0  0  0  0  0  0  0  0  0
    2.9359    1.9343   -0.8769 C   0  0  0  0  0  0  0  0  0  0  0  0
    3.9057    2.1913   -0.4687 H   0  0  0  0  0  0  0  0  0  0  0  0
    2.6437    1.9198   -2.1856 N   0  0  0  0  0  0  0  0  0  0  0  0
    1.3010    1.5487   -2.2953 C   0  0  0  0  0  0  0  0  0  0  0  0
    0.7488    1.4130   -3.2161 H   0  0  0  0  0  0  0  0  0  0  0  0
   -0.1073    0.0565    1.7296 C   0  0  0  0  0  0  0  0  0  0  0  0
    1.0285   -0.1699    2.1459 O   0  0  0  0  0  0  0  0  0  0  0  0
   -1.0395    0.6588    2.4785 N   0  0  0  0  0  0  0  0  0  0  0  0
   -1.9636    0.7597    2.0849 H   0  0  0  0  0  0  0  0  0  0  0  0
   -0.8222    1.1334    3.8425 C   0  0  0  0  0  0  0  0  0  0  0  0
   -0.0212    1.8761    3.8521 H   0  0  0  0  0  0  0  0  0  0  0  0
   -1.7349    1.5853    4.2320 H   0  0  0  0  0  0  0  0  0  0  0  0
   -0.5312    0.2997    4.4834 H   0  0  0  0  0  0  0  0  0  0  0  0
  5  6  2  0  0  0  0
  5  7  1  0  0  0  0
  2  3  1  0  0  0  0
  2  4  1  0  0  0  0
  2  5  1  0  0  0  0
  1  2  1  0  0  0  0
 22 23  2  0  0  0  0
 22 24  1  0  0  0  0
 20 21  1  0  0  0  0
 19 20  1  0  0  0  0
 17 18  1  0  0  0  0
 17 19  2  0  0  0  0
 15 16  1  0  0  0  0
 15 17  1  0  0  0  0
 14 15  1  0  0  0  0
 14 20  2  0  0  0  0
 11 12  1  0  0  0  0
 11 13  1  0  0  0  0
 11 14  1  0  0  0  0
  9 10  1  0  0  0  0
  9 11  1  0  0  0  0
  9 22  1  0  0  0  0
  7  8  1  0  0  0  0
  7  9  1  0  0  0  0
 26 27  1  0  0  0  0
 26 28  1  0  0  0  0
 26 29  1  0  0  0  0
 24 25  1  0  0  0  0
 24 26  1  0  0  0  0
M  END
$$$$
default_name
  -OEChem-02102213163D

 29 29  0     1  0  0  0  0  0999 V2000
   -3.6042   -3.5728    1.4576 H   0  0  0  0  0  0  0  0  0  0  0  0
   -3.5202   -2.6488    0.8866 C   0  0  0  0  0  0  0  0  0  0  0  0
   -4.2052   -1.9048    1.2896 H   0  0  0  0  0  0  0  0  0  0  0  0
   -3.7552   -2.8428   -0.1584 H   0  0  0  0  0  0  0  0  0  0  0  0
   -2.1052   -2.1358    0.9946 C   0  0  0  0  0  0  0  0  0  0  0  0
   -1.2852   -2.7288    1.6826 O   0  0  0  0  0  0  0  0  0  0  0  0
   -1.8202   -1.0288    0.3146 N   0  0  0  0  0  0  0  0  0  0  0  0
   -2.5542   -0.5788   -0.2104 H   0  0  0  0  0  0  0  0  0  0  0  0
   -0.5102   -0.3728    0.3086 C   0  0  1  0  0  0  0  0  0  0  0  0
    0.2354   -1.0844   -0.0490 H   0  0  0  0  0  0  0  0  0  0  0  0
   -0.5452    0.8158   -0.6698 C   0  0  0  0  0  0  0  0  0  0  0  0
   -1.0520    0.5092   -1.5865 H   0  0  0  0  0  0  0  0  0  0  0  0
   -1.1220    1.6276   -0.2229 H   0  0  0  0  0  0  0  0  0  0  0  0
    0.8202    1.3416   -1.0299 C   0  0  0  0  0  0  0  0  0  0  0  0
    1.9419    1.3148   -0.2292 N   0  0  0  0  0  0  0  0  0  0  0  0
    1.9797    1.0097    0.7318 H   0  0  0  0  0  0  0  0  0  0  0  0
    2.9787    1.7722   -0.9511 C   0  0  0  0  0  0  0  0  0  0  0  0
    3.9952    1.8751   -0.5913 H   0  0  0  0  0  0  0  0  0  0  0  0
    2.5788    2.0837   -2.1926 N   0  0  0  0  0  0  0  0  0  0  0  0
    1.2082    1.8183   -2.2536 C   0  0  0  0  0  0  0  0  0  0  0  0
    0.5731    1.9334   -3.1224 H   0  0  0  0  0  0  0  0  0  0  0  0
   -0.1073    0.0565    1.7296 C   0  0  0  0  0  0  0  0  0  0  0  0
    1.0285   -0.1699    2.1459 O   0  0  0  0  0  0  0  0  0  0  0  0
   -1.0395    0.6588    2.4785 N   0  0  0  0  0  0  0  0  0  0  0  0
   -1.9636    0.7597    2.0849 H   0  0  0  0  0  0  0  0  0  0  0  0
   -0.8222    1.1334    3.8425 C   0  0  0  0  0  0  0  0  0  0  0  0
   -0.0212    1.8761    3.8521 H   0  0  0  0  0  0  0  0  0  0  0  0
   -1.7349    1.5853    4.2320 H   0  0  0  0  0  0  0  0  0  0  0  0
   -0.5312    0.2997    4.4834 H   0  0  0  0  0  0  0  0  0  0  0  0
  5  6  2  0  0  0  0
  5  7  1  0  0  0  0
  2  3  1  0  0  0  0
  2  4  1  0  0  0  0
  2  5  1  0  0  0  0
  1  2  1  0  0  0  0
 22 23  2  0  0  0  0
 22 24  1  0  0  0  0
 20 21  1  0  0  0  0
 19 20  1  0  0  0  0
 17 18  1  0  0  0  0
 17 19  2  0  0  0  0
 15 16  1  0  0  0  0
 15 17  1  0  0  0  0
 14 15  1  0  0  0  0
 14 20  2  0  0  0  0
 11 12  1  0  0  0  0
 11 13  1  0  0  0  0
 11 14  1  0  0  0  0
  9 10  1  0  0  0  0
  9 11  1  0  0  0  0
  9 22  1  0  0  0  0
  7  8  1  0  0  0  0
  7  9  1  0  0  0  0
 26 27  1  0  0  0  0
 26 28  1  0  0  0  0
 26 29  1  0  0  0  0
 24 25  1  0  0  0  0
 24 26  1  0  0  0  0
M  END
$$$$
default_name
  -OEChem-02102213163D

 29 29  0     1  0  0  0  0  0999 V2000
   -3.6042   -3.5728    1.4576 H   0  0  0  0  0  0  0  0  0  0  0  0
   -3.5202   -2.6488    0.8866 C   0  0  0  0  0  0  0  0  0  0  0  0
   -4.2052   -1.9048    1.2896 H   0  0  0  0  0  0  0  0  0  0  0  0
   -3.7552   -2.8428   -0.1584 H   0  0  0  0  0  0  0  0  0  0  0  0
   -2.1052   -2.1358    0.9946 C   0  0  0  0  0  0  0  0  0  0  0  0
   -1.2852   -2.7288    1.6826 O   0  0  0  0  0  0  0  0  0  0  0  0
   -1.8202   -1.0288    0.3146 N   0  0  0  0  0  0  0  0  0  0  0  0
   -2.5542   -0.5788   -0.2104 H   0  0  0  0  0  0  0  0  0  0  0  0
   -0.5102   -0.3728    0.3086 C   0  0  1  0  0  0  0  0  0  0  0  0
    0.2354   -1.0844   -0.0490 H   0  0  0  0  0  0  0  0  0  0  0  0
   -0.5452    0.8158   -0.6698 C   0  0  0  0  0  0  0  0  0  0  0  0
   -1.0520    0.5092   -1.5865 H   0  0  0  0  0  0  0  0  0  0  0  0
   -1.1220    1.6276   -0.2229 H   0  0  0  0  0  0  0  0  0  0  0  0
    0.8202    1.3416   -1.0299 C   0  0  0  0  0  0  0  0  0  0  0  0
    1.9995    1.0682   -0.3707 N   0  0  0  0  0  0  0  0  0  0  0  0
    2.0946    0.5422    0.4851 H   0  0  0  0  0  0  0  0  0  0  0  0
    3.0034    1.6304   -1.0648 C   0  0  0  0  0  0  0  0  0  0  0  0
    4.0509    1.5928   -0.7919 H   0  0  0  0  0  0  0  0  0  0  0  0
    2.5255    2.2477   -2.1551 N   0  0  0  0  0  0  0  0  0  0  0  0
    1.1390    2.0747   -2.1417 C   0  0  0  0  0  0  0  0  0  0  0  0
    0.4440    2.4250   -2.8939 H   0  0  0  0  0  0  0  0  0  0  0  0
   -0.1073    0.0565    1.7296 C   0  0  0  0  0  0  0  0  0  0  0  0
    1.0285   -0.1699    2.1459 O   0  0  0  0  0  0  0  0  0  0  0  0
   -1.0395    0.6588    2.4785 N   0  0  0  0  0  0  0  0  0  0  0  0
   -1.9636    0.7597    2.0849 H   0  0  0  0  0  0  0  0  0  0  0  0
   -0.8222    1.1334    3.8425 C   0  0  0  0  0  0  0  0  0  0  0  0
   -0.0212    1.8761    3.8521 H   0  0  0  0  0  0  0  0  0  0  0  0
   -1.7349    1.5853    4.2320 H   0  0  0  0  0  0  0  0  0  0  0  0
   -0.5312    0.2997    4.4834 H   0  0  0  0  0  0  0  0  0  0  0  0
  5  6  2  0  0  0  0
  5  7  1  0  0  0  0
  2  3  1  0  0  0  0
  2  4  1  0  0  0  0
  2  5  1  0  0  0  0
  1  2  1  0  0  0  0
 22 23  2  0  0  0  0
 22 24  1  0  0  0  0
 20 21  1  0  0  0  0
 19 20  1  0  0  0  0
 17 18  1  0  0  0  0
 17 19  2  0  0  0  0
 15 16  1  0  0  0  0
 15 17  1  0  0  0  0
 14 15  1  0  0  0  0
 14 20  2  0  0  0  0
 11 12  1  0  0  0  0
 11 13  1  0  0  0  0
 11 14  1  0  0  0  0
  9 10  1  0  0  0  0
  9 11  1  0  0  0  0
  9 22  1  0  0  0  0
  7  8  1  0  0  0  0
  7  9  1  0  0  0  0
 26 27  1  0  0  0  0
 26 28  1  0  0  0  0
 26 29  1  0  0  0  0
 24 25  1  0  0  0  0
 24 26  1  0  0  0  0
M  END
$$$$
default_name
  -OEChem-02102213163D

 29 29  0     1  0  0  0  0  0999 V2000
   -3.6042   -3.5728    1.4576 H   0  0  0  0  0  0  0  0  0  0  0  0
   -3.5202   -2.6488    0.8866 C   0  0  0  0  0  0  0  0  0  0  0  0
   -4.2052   -1.9048    1.2896 H   0  0  0  0  0  0  0  0  0  0  0  0
   -3.7552   -2.8428   -0.1584 H   0  0  0  0  0  0  0  0  0  0  0  0
   -2.1052   -2.1358    0.9946 C   0  0  0  0  0  0  0  0  0  0  0  0
   -1.2852   -2.7288    1.6826 O   0  0  0  0  0  0  0  0  0  0  0  0
   -1.8202   -1.0288    0.3146 N   0  0  0  0  0  0  0  0  0  0  0  0
   -2.5542   -0.5788   -0.2104 H   0  0  0  0  0  0  0  0  0  0  0  0
   -0.5102   -0.3728    0.3086 C   0  0  1  0  0  0  0  0  0  0  0  0
    0.2354   -1.0844   -0.0490 H   0  0  0  0  0  0  0  0  0  0  0  0
   -0.5452    0.8158   -0.6698 C   0  0  0  0  0  0  0  0  0  0  0  0
   -1.0520    0.5092   -1.5865 H   0  0  0  0  0  0  0  0  0  0  0  0
   -1.1220    1.6276   -0.2229 H   0  0  0  0  0  0  0  0  0  0  0  0
    0.8202    1.3416   -1.0299 C   0  0  0  0  0  0  0  0  0  0  0  0
    2.0271    0.8597   -0.5704 N   0  0  0  0  0  0  0  0  0  0  0  0
    2.1544    0.1414    0.1267 H   0  0  0  0  0  0  0  0  0  0  0  0
    3.0081    1.5185   -1.2100 C   0  0  0  0  0  0  0  0  0  0  0  0
    4.0692    1.3638   -1.0570 H   0  0  0  0  0  0  0  0  0  0  0  0
    2.4876    2.4005   -2.0756 N   0  0  0  0  0  0  0  0  0  0  0  0
    1.0981    2.3004   -1.9673 C   0  0  0  0  0  0  0  0  0  0  0  0
    0.3704    2.8543   -2.5462 H   0  0  0  0  0  0  0  0  0  0  0  0
   -0.1073    0.0565    1.7296 C   0  0  0  0  0  0  0  0  0  0  0  0
    1.0285   -0.1699    2.1459 O   0  0  0  0  0  0  0  0  0  0  0  0
   -1.0395    0.6588    2.4785 N   0  0  0  0  0  0  0  0  0  0  0  0
   -1.9636    0.7597    2.0849 H   0  0  0  0  0  0  0  0  0  0  0  0
   -0.8222    1.1334    3.8425 C   0  0  0  0  0  0  0  0  0  0  0  0
   -0.0212    1.8761    3.8521 H   0  0  0  0  0  0  0  0  0  0  0  0
   -1.7349    1.5853    4.2320 H   0  0  0  0  0  0  0  0  0  0  0  0
   -0.5312    0.2997    4.4834 H   0  0  0  0  0  0  0  0  0  0  0  0
  5  6  2  0  0  0  0
  5  7  1  0  0  0  0
  2  3  1  0  0  0  0
  2  4  1  0  0  0  0
  2  5  1  0  0  0  0
  1  2  1  0  0  0  0
 22 23  2  0  0  0  0
 22 24  1  0  0  0  0
 20 21  1  0  0  0  0
 19 20  1  0  0  0  0
 17 18  1  0  0  0  0
 17 19  2  0  0  0  0
 15 16  1  0  0  0  0
 15 17  1  0  0  0  0
 14 15  1  0  0  0  0
 14 20  2  0  0  0  0
 11 12  1  0  0  0  0
 11 13  1  0  0  0  0
 11 14  1  0  0  0  0
  9 10  1  0  0  0  0
  9 11  1  0  0  0  0
  9 22  1  0  0  0  0
  7  8  1  0  0  0  0
  7  9  1  0  0  0  0
 26 27  1  0  0  0  0
 26 28  1  0  0  0  0
 26 29  1  0  0  0  0
 24 25  1  0  0  0  0
 24 26  1  0  0  0  0
M  END
$$$$
default_name
  -OEChem-02102213163D

 29 29  0     1  0  0  0  0  0999 V2000
   -3.6042   -3.5728    1.4576 H   0  0  0  0  0  0  0  0  0  0  0  0
   -3.5202   -2.6488    0.8866 C   0  0  0  0  0  0  0  0  0  0  0  0
   -4.2052   -1.9048    1.2896 H   0  0  0  0  0  0  0  0  0  0  0  0
   -3.7552   -2.8428   -0.1584 H   0  0  0  0  0  0  0  0  0  0  0  0
   -2.1052   -2.1358    0.9946 C   0  0  0  0  0  0  0  0  0  0  0  0
   -1.2852   -2.7288    1.6826 O   0  0  0  0  0  0  0  0  0  0  0  0
   -1.8202   -1.0288    0.3146 N   0  0  0  0  0  0  0  0  0  0  0  0
   -2.5542   -0.5788   -0.2104 H   0  0  0  0  0  0  0  0  0  0  0  0
   -0.5102   -0.3728    0.3086 C   0  0  1  0  0  0  0  0  0  0  0  0
    0.2354   -1.0844   -0.0490 H   0  0  0  0  0  0  0  0  0  0  0  0
   -0.5452    0.8158   -0.6698 C   0  0  0  0  0  0  0  0  0  0  0  0
   -1.0520    0.5092   -1.5865 H   0  0  0  0  0  0  0  0  0  0  0  0
   -1.1220    1.6276   -0.2229 H   0  0  0  0  0  0  0  0  0  0  0  0
    0.8202    1.3416   -1.0299 C   0  0  0  0  0  0  0  0  0  0  0  0
    2.0229    0.7034   -0.8148 N   0  0  0  0  0  0  0  0  0  0  0  0
    2.1551   -0.1654   -0.3189 H   0  0  0  0  0  0  0  0  0  0  0  0
    2.9927    1.4442   -1.3770 C   0  0  0  0  0  0  0  0  0  0  0  0
    4.0488    1.2036   -1.3683 H   0  0  0  0  0  0  0  0  0  0  0  0
    2.4676    2.5319   -1.9596 N   0  0  0  0  0  0  0  0  0  0  0  0
    1.0883    2.4800   -1.7422 C   0  0  0  0  0  0  0  0  0  0  0  0
    0.3573    3.1919   -2.1031 H   0  0  0  0  0  0  0  0  0  0  0  0
   -0.1073    0.0565    1.7296 C   0  0  0  0  0  0  0  0  0  0  0  0
    1.0285   -0.1699    2.1459 O   0  0  0  0  0  0  0  0  0  0  0  0
   -1.0395    0.6588    2.4785 N   0  0  0  0  0  0  0  0  0  0  0  0
   -1.9636    0.7597    2.0849 H   0  0  0  0  0  0  0  0  0  0  0  0
   -0.8222    1.1334    3.8425 C   0  0  0  0  0  0  0  0  0  0  0  0
   -0.0212    1.8761    3.8521 H   0  0  0  0  0  0  0  0  0  0  0  0
   -1.7349    1.5853    4.2320 H   0  0  0  0  0  0  0  0  0  0  0  0
   -0.5312    0.2997    4.4834 H   0  0  0  0  0  0  0  0  0  0  0  0
  5  6  2  0  0  0  0
  5  7  1  0  0  0  0
  2  3  1  0  0  0  0
  2  4  1  0  0  0  0
  2  5  1  0  0  0  0
  1  2  1  0  0  0  0
 22 23  2  0  0  0  0
 22 24  1  0  0  0  0
 20 21  1  0  0  0  0
 19 20  1  0  0  0  0
 17 18  1  0  0  0  0
 17 19  2  0  0  0  0
 15 16  1  0  0  0  0
 15 17  1  0  0  0  0
 14 15  1  0  0  0  0
 14 20  2  0  0  0  0
 11 12  1  0  0  0  0
 11 13  1  0  0  0  0
 11 14  1  0  0  0  0
  9 10  1  0  0  0  0
  9 11  1  0  0  0  0
  9 22  1  0  0  0  0
  7  8  1  0  0  0  0
  7  9  1  0  0  0  0
 26 27  1  0  0  0  0
 26 28  1  0  0  0  0
 26 29  1  0  0  0  0
 24 25  1  0  0  0  0
 24 26  1  0  0  0  0
M  END
$$$$
default_name
  -OEChem-02102213163D

 29 29  0     1  0  0  0  0  0999 V2000
   -3.6042   -3.5728    1.4576 H   0  0  0  0  0  0  0  0  0  0  0  0
   -3.5202   -2.6488    0.8866 C   0  0  0  0  0  0  0  0  0  0  0  0
   -4.2052   -1.9048    1.2896 H   0  0  0  0  0  0  0  0  0  0  0  0
   -3.7552   -2.8428   -0.1584 H   0  0  0  0  0  0  0  0  0  0  0  0
   -2.1052   -2.1358    0.9946 C   0  0  0  0  0  0  0  0  0  0  0  0
   -1.2852   -2.7288    1.6826 O   0  0  0  0  0  0  0  0  0  0  0  0
   -1.8202   -1.0288    0.3146 N   0  0  0  0  0  0  0  0  0  0  0  0
   -2.5542   -0.5788   -0.2104 H   0  0  0  0  0  0  0  0  0  0  0  0
   -0.5102   -0.3728    0.3086 C   0  0  1  0  0  0  0  0  0  0  0  0
    0.2354   -1.0844   -0.0490 H   0  0  0  0  0  0  0  0  0  0  0  0
   -0.5452    0.8158   -0.6698 C   0  0  0  0  0  0  0  0  0  0  0  0
   -1.0520    0.5092   -1.5865 H   0  0  0  0  0  0  0  0  0  0  0  0
   -1.1220    1.6276   -0.2229 H   0  0  0  0  0  0  0  0  0  0  0  0
    0.8202    1.3416   -1.0299 C   0  0  0  0  0  0  0  0  0  0  0  0
    1.9870    0.6100   -1.0870 N   0  0  0  0  0  0  0  0  0  0  0  0
    2.0965   -0.3572   -0.8213 H   0  0  0  0  0  0  0  0  0  0  0  0
    2.9582    1.4125   -1.5543 C   0  0  0  0  0  0  0  0  0  0  0  0
    3.9910    1.1231   -1.7048 H   0  0  0  0  0  0  0  0  0  0  0  0
    2.4669    2.6328   -1.8148 N   0  0  0  0  0  0  0  0  0  0  0  0
    1.1103    2.6013   -1.4817 C   0  0  0  0  0  0  0  0  0  0  0  0
    0.4055    3.4149   -1.5947 H   0  0  0  0  0  0  0  0  0  0  0  0
   -0.1073    0.0565    1.7296 C   0  0  0  0  0  0  0  0  0  0  0  0
    1.0285   -0.1699    2.1459 O   0  0  0  0  0  0  0  0  0  0  0  0
   -1.0395    0.6588    2.4785 N   0  0  0  0  0  0  0  0  0  0  0  0
   -1.9636    0.7597    2.0849 H   0  0  0  0  0  0  0  0  0  0  0  0
   -0.8222    1.1334    3.8425 C   0  0  0  0  0  0  0  0  0  0  0  0
   -0.0212    1.8761    3.8521 H   0  0  0  0  0  0  0  0  0  0  0  0
   -1.7349    1.5853    4.2320 H   0  0  0  0  0  0  0  0  0  0  0  0
   -0.5312    0.2997    4.4834 H   0  0  0  0  0  0  0  0  0  0  0  0
  5  6  2  0  0  0  0
  5  7  1  0  0  0  0
  2  3  1  0  0  0  0
  2  4  1  0  0  0  0
  2  5  1  0  0  0  0
  1  2  1  0  0  0  0
 22 23  2  0  0  0  0
 22 24  1  0  0  0  0
 20 21  1  0  0  0  0
 19 20  1  0  0  0  0
 17 18  1  0  0  0  0
 17 19  2  0  0  0  0
 15 16  1  0  0  0  0
 15 17  1  0  0  0  0
 14 15  1  0  0  0  0
 14 20  2  0  0  0  0
 11 12  1  0  0  0  0
 11 13  1  0  0  0  0
 11 14  1  0  0  0  0
  9 10  1  0  0  0  0
  9 11  1  0  0  0  0
  9 22  1  0  0  0  0
  7  8  1  0  0  0  0
  7  9  1  0  0  0  0
 26 27  1  0  0  0  0
 26 28  1  0  0  0  0
 26 29  1  0  0  0  0
 24 25  1  0  0  0  0
 24 26  1  0  0  0  0
M  END
$$$$
default_name
  -OEChem-02102213163D

 29 29  0     1  0  0  0  0  0999 V2000
   -3.6042   -3.5728    1.4576 H   0  0  0  0  0  0  0  0  0  0  0  0
   -3.5202   -2.6488    0.8866 C   0  0  0  0  0  0  0  0  0  0  0  0
   -4.2052   -1.9048    1.2896 H   0  0  0  0  0  0  0  0  0  0  0  0
   -3.7552   -2.8428   -0.1584 H   0  0  0  0  0  0  0  0  0  0  0  0
   -2.1052   -2.1358    0.9946 C   0  0  0  0  0  0  0  0  0  0  0  0
   -1.2852   -2.7288    1.6826 O   0  0  0  0  0  0  0  0  0  0  0  0
   -1.8202   -1.0288    0.3146 N   0  0  0  0  0  0  0  0  0  0  0  0
   -2.5542   -0.5788   -0.2104 H   0  0  0  0  0  0  0  0  0  0  0  0
   -0.5102   -0.3728    0.3086 C   0  0  1  0  0  0  0  0  0  0  0  0
    0.2354   -1.0844   -0.0490 H   0  0  0  0  0  0  0  0  0  0  0  0
   -0.5452    0.8158   -0.6698 C   0  0  0  0  0  0  0  0  0  0  0  0
   -1.0520    0.5092   -1.5865 H   0  0  0  0  0  0  0  0  0  0  0  0
   -1.1220    1.6276   -0.2229 H   0  0  0  0  0  0  0  0  0  0  0  0
    0.8202    1.3416   -1.0299 C   0  0  0  0  0  0  0  0  0  0  0  0
    1.9221    0.5859   -1.3687 N   0  0  0  0  0  0  0  0  0  0  0  0
    1.9826   -0.4211   -1.3463 H   0  0  0  0  0  0  0  0  0  0  0  0
    2.9068    1.4257   -1.7298 C   0  0  0  0  0  0  0  0  0  0  0  0
    3.8999    1.1279   -2.0435 H   0  0  0  0  0  0  0  0  0  0  0  0
    2.4856    2.6964   -1.6513 N   0  0  0  0  0  0  0  0  0  0  0  0
    1.1625    2.6561   -1.2036 C   0  0  0  0  0  0  0  0  0  0  0  0
    0.5118    3.5081   -1.0556 H   0  0  0  0  0  0  0  0  0  0  0  0
   -0.1073    0.0565    1.7296 C   0  0  0  0  0  0  0  0  0  0  0  0
    1.0285   -0.1699    2.1459 O   0  0  0  0  0  0  0  0  0  0  0  0
   -1.0395    0.6588    2.4785 N   0  0  0  0  0  0  0  0  0  0  0  0
   -1.9636    0.7597    2.0849 H   0  0  0  0  0  0  0  0  0  0  0  0
   -0.8222    1.1334    3.8425 C   0  0  0  0  0  0  0  0  0  0  0  0
   -0.0212    1.8761    3.8521 H   0  0  0  0  0  0  0  0  0  0  0  0
   -1.7349    1.5853    4.2320 H   0  0  0  0  0  0  0  0  0  0  0  0
   -0.5312    0.2997    4.4834 H   0  0  0  0  0  0  0  0  0  0  0  0
  5  6  2  0  0  0  0
  5  7  1  0  0  0  0
  2  3  1  0  0  0  0
  2  4  1  0  0  0  0
  2  5  1  0  0  0  0
  1  2  1  0  0  0  0
 22 23  2  0  0  0  0
 22 24  1  0  0  0  0
 20 21  1  0  0  0  0
 19 20  1  0  0  0  0
 17 18  1  0  0  0  0
 17 19  2  0  0  0  0
 15 16  1  0  0  0  0
 15 17  1  0  0  0  0
 14 15  1  0  0  0  0
 14 20  2  0  0  0  0
 11 12  1  0  0  0  0
 11 13  1  0  0  0  0
 11 14  1  0  0  0  0
  9 10  1  0  0  0  0
  9 11  1  0  0  0  0
  9 22  1  0  0  0  0
  7  8  1  0  0  0  0
  7  9  1  0  0  0  0
 26 27  1  0  0  0  0
 26 28  1  0  0  0  0
 26 29  1  0  0  0  0
 24 25  1  0  0  0  0
 24 26  1  0  0  0  0
M  END
$$$$
default_name
  -OEChem-02102213163D

 29 29  0     1  0  0  0  0  0999 V2000
   -3.6042   -3.5728    1.4576 H   0  0  0  0  0  0  0  0  0  0  0  0
   -3.5202   -2.6488    0.8866 C   0  0  0  0  0  0  0  0  0  0  0  0
   -4.2052   -1.9048    1.2896 H   0  0  0  0  0  0  0  0  0  0  0  0
   -3.7552   -2.8428   -0.1584 H   0  0  0  0  0  0  0  0  0  0  0  0
   -2.1052   -2.1358    0.9946 C   0  0  0  0  0  0  0  0  0  0  0  0
   -1.2852   -2.7288    1.6826 O   0  0  0  0  0  0  0  0  0  0  0  0
   -1.8202   -1.0288    0.3146 N   0  0  0  0  0  0  0  0  0  0  0  0
   -2.5542   -0.5788   -0.2104 H   0  0  0  0  0  0  0  0  0  0  0  0
   -0.5102   -0.3728    0.3086 C   0  0  1  0  0  0  0  0  0  0  0  0
    0.2354   -1.0844   -0.0490 H   0  0  0  0  0  0  0  0  0  0  0  0
   -0.5452    0.8158   -0.6698 C   0  0  0  0  0  0  0  0  0  0  0  0
   -1.0520    0.5092   -1.5865 H   0  0  0  0  0  0  0  0  0  0  0  0
   -1.1220    1.6276   -0.2229 H   0  0  0  0  0  0  0  0  0  0  0  0
    0.8202    1.3416   -1.0299 C   0  0  0  0  0  0  0  0  0  0  0  0
    1.8324    0.6326   -1.6405 N   0  0  0  0  0  0  0  0  0  0  0  0
    1.8213   -0.3526   -1.8581 H   0  0  0  0  0  0  0  0  0  0  0  0
    2.8421    1.4827   -1.8917 C   0  0  0  0  0  0  0  0  0  0  0  0
    3.7815    1.2176   -2.3613 H   0  0  0  0  0  0  0  0  0  0  0  0
    2.5223    2.7183   -1.4801 N   0  0  0  0  0  0  0  0  0  0  0  0
    1.2415    2.6405   -0.9270 C   0  0  0  0  0  0  0  0  0  0  0  0
    0.6689    3.4651   -0.5227 H   0  0  0  0  0  0  0  0  0  0  0  0
   -0.1073    0.0565    1.7296 C   0  0  0  0  0  0  0  0  0  0  0  0
    1.0285   -0.1699    2.1459 O   0  0  0  0  0  0  0  0  0  0  0  0
   -1.0395    0.6588    2.4785 N   0  0  0  0  0  0  0  0  0  0  0  0
   -1.9636    0.7597    2.0849 H   0  0  0  0  0  0  0  0  0  0  0  0
   -0.8222    1.1334    3.8425 C   0  0  0  0  0  0  0  0  0  0  0  0
   -0.0212    1.8761    3.8521 H   0  0  0  0  0  0  0  0  0  0  0  0
   -1.7349    1.5853    4.2320 H   0  0  0  0  0  0  0  0  0  0  0  0
   -0.5312    0.2997    4.4834 H   0  0  0  0  0  0  0  0  0  0  0  0
  5  6  2  0  0  0  0
  5  7  1  0  0  0  0
  2  3  1  0  0  0  0
  2  4  1  0  0  0  0
  2  5  1  0  0  0  0
  1  2  1  0  0  0  0
 22 23  2  0  0  0  0
 22 24  1  0  0  0  0
 20 21  1  0  0  0  0
 19 20  1  0  0  0  0
 17 18  1  0  0  0  0
 17 19  2  0  0  0  0
 15 16  1  0  0  0  0
 15 17  1  0  0  0  0
 14 15  1  0  0  0  0
 14 20  2  0  0  0  0
 11 12  1  0  0  0  0
 11 13  1  0  0  0  0
 11 14  1  0  0  0  0
  9 10  1  0  0  0  0
  9 11  1  0  0  0  0
  9 22  1  0  0  0  0
  7  8  1  0  0  0  0
  7  9  1  0  0  0  0
 26 27  1  0  0  0  0
 26 28  1  0  0  0  0
 26 29  1  0  0  0  0
 24 25  1  0  0  0  0
 24 26  1  0  0  0  0
M  END
$$$$
default_name
  -OEChem-02102213163D

 29 29  0     1  0  0  0  0  0999 V2000
   -3.6042   -3.5728    1.4576 H   0  0  0  0  0  0  0  0  0  0  0  0
   -3.5202   -2.6488    0.8866 C   0  0  0  0  0  0  0  0  0  0  0  0
   -4.2052   -1.9048    1.2896 H   0  0  0  0  0  0  0  0  0  0  0  0
   -3.7552   -2.8428   -0.1584 H   0  0  0  0  0  0  0  0  0  0  0  0
   -2.1052   -2.1358    0.9946 C   0  0  0  0  0  0  0  0  0  0  0  0
   -1.2852   -2.7288    1.6826 O   0  0  0  0  0  0  0  0  0  0  0  0
   -1.8202   -1.0288    0.3146 N   0  0  0  0  0  0  0  0  0  0  0  0
   -2.5542   -0.5788   -0.2104 H   0  0  0  0  0  0  0  0  0  0  0  0
   -0.5102   -0.3728    0.3086 C   0  0  1  0  0  0  0  0  0  0  0  0
    0.2354   -1.0844   -0.0490 H   0  0  0  0  0  0  0  0  0  0  0  0
   -0.5452    0.8158   -0.6698 C   0  0  0  0  0  0  0  0  0  0  0  0
   -1.0520    0.5092   -1.5865 H   0  0  0  0  0  0  0  0  0  0  0  0
   -1.1220    1.6276   -0.2229 H   0  0  0  0  0  0  0  0  0  0  0  0
    0.8202    1.3416   -1.0299 C   0  0  0  0  0  0  0  0  0  0  0  0
    1.7241    0.7471   -1.8840 N   0  0  0  0  0  0  0  0  0  0  0  0
    1.6234   -0.1565   -2.3218 H   0  0  0  0  0  0  0  0  0  0  0  0
    2.7686    1.5798   -2.0288 C   0  0  0  0  0  0  0  0  0  0  0  0
    3.6440    1.3861   -2.6365 H   0  0  0  0  0  0  0  0  0  0  0  0
    2.5746    2.6970   -1.3130 N   0  0  0  0  0  0  0  0  0  0  0  0
    1.3418    2.5556   -0.6705 C   0  0  0  0  0  0  0  0  0  0  0  0
    0.8661    3.2889   -0.0322 H   0  0  0  0  0  0  0  0  0  0  0  0
   -0.1073    0.0565    1.7296 C   0  0  0  0  0  0  0  0  0  0  0  0
    1.0285   -0.1699    2.1459 O   0  0  0  0  0  0  0  0  0  0  0  0
   -1.0395    0.6588    2.4785 N   0  0  0  0  0  0  0  0  0  0  0  0
   -1.9636    0.7597    2.0849 H   0  0  0  0  0  0  0  0  0  0  0  0
   -0.8222    1.1334    3.8425 C   0  0  0  0  0  0  0  0  0  0  0  0
   -0.0212    1.8761    3.8521 H   0  0  0  0  0  0  0  0  0  0  0  0
   -1.7349    1.5853    4.2320 H   0  0  0  0  0  0  0  0  0  0  0  0
   -0.5312    0.2997    4.4834 H   0  0  0  0  0  0  0  0  0  0  0  0
  5  6  2  0  0  0  0
  5  7  1  0  0  0  0
  2  3  1  0  0  0  0
  2  4  1  0  0  0  0
  2  5  1  0  0  0  0
  1  2  1  0  0  0  0
 22 23  2  0  0  0  0
 22 24  1  0  0  0  0
 20 21  1  0  0  0  0
 19 20  1  0  0  0  0
 17 18  1  0  0  0  0
 17 19  2  0  0  0  0
 15 16  1  0  0  0  0
 15 17  1  0  0  0  0
 14 15  1  0  0  0  0
 14 20  2  0  0  0  0
 11 12  1  0  0  0  0
 11 13  1  0  0  0  0
 11 14  1  0  0  0  0
  9 10  1  0  0  0  0
  9 11  1  0  0  0  0
  9 22  1  0  0  0  0
  7  8  1  0  0  0  0
  7  9  1  0  0  0  0
 26 27  1  0  0  0  0
 26 28  1  0  0  0  0
 26 29  1  0  0  0  0
 24 25  1  0  0  0  0
 24 26  1  0  0  0  0
M  END
$$$$
default_name
  -OEChem-02102213163D

 29 29  0     1  0  0  0  0  0999 V2000
   -3.6042   -3.5728    1.4576 H   0  0  0  0  0  0  0  0  0  0  0  0
   -3.5202   -2.6488    0.8866 C   0  0  0  0  0  0  0  0  0  0  0  0
   -4.2052   -1.9048    1.2896 H   0  0  0  0  0  0  0  0  0  0  0  0
   -3.7552   -2.8428   -0.1584 H   0  0  0  0  0  0  0  0  0  0  0  0
   -2.1052   -2.1358    0.9946 C   0  0  0  0  0  0  0  0  0  0  0  0
   -1.2852   -2.7288    1.6826 O   0  0  0  0  0  0  0  0  0  0  0  0
   -1.8202   -1.0288    0.3146 N   0  0  0  0  0  0  0  0  0  0  0  0
   -2.5542   -0.5788   -0.2104 H   0  0  0  0  0  0  0  0  0  0  0  0
   -0.5102   -0.3728    0.3086 C   0  0  1  0  0  0  0  0  0  0  0  0
    0.2354   -1.0844   -0.0490 H   0  0  0  0  0  0  0  0  0  0  0  0
   -0.5452    0.8158   -0.6698 C   0  0  0  0  0  0  0  0  0  0  0  0
   -1.0520    0.5092   -1.5865 H   0  0  0  0  0  0  0  0  0  0  0  0
   -1.1220    1.6276   -0.2229 H   0  0  0  0  0  0  0  0  0  0  0  0
    0.8202    1.3416   -1.0299 C   0  0  0  0  0  0  0  0  0  0  0  0
    1.6046    0.9214   -2.0826 N   0  0  0  0  0  0  0  0  0  0  0  0
    1.4026    0.1540   -2.7058 H   0  0  0  0  0  0  0  0  0  0  0  0
    2.6912    1.7102   -2.1319 C   0  0  0  0  0  0  0  0  0  0  0  0
    3.4968    1.6219   -2.8505 H   0  0  0  0  0  0  0  0  0  0  0  0
    2.6388    2.6341   -1.1612 N   0  0  0  0  0  0  0  0  0  0  0  0
    1.4566    2.4074   -0.4517 C   0  0  0  0  0  0  0  0  0  0  0  0
    1.0900    2.9915    0.3825 H   0  0  0  0  0  0  0  0  0  0  0  0
   -0.1073    0.0565    1.7296 C   0  0  0  0  0  0  0  0  0  0  0  0
    1.0285   -0.1699    2.1459 O   0  0  0  0  0  0  0  0  0  0  0  0
   -1.0395    0.6588    2.4785 N   0  0  0  0  0  0  0  0  0  0  0  0
   -1.9636    0.7597    2.0849 H   0  0  0  0  0  0  0  0  0  0  0  0
   -0.8222    1.1334    3.8425 C   0  0  0  0  0  0  0  0  0  0  0  0
   -0.0212    1.8761    3.8521 H   0  0  0  0  0  0  0  0  0  0  0  0
   -1.7349    1.5853    4.2320 H   0  0  0  0  0  0  0  0  0  0  0  0
   -0.5312    0.2997    4.4834 H   0  0  0  0  0  0  0  0  0  0  0  0
  5  6  2  0  0  0  0
  5  7  1  0  0  0  0
  2  3  1  0  0  0  0
  2  4  1  0  0  0  0
  2  5  1  0  0  0  0
  1  2  1  0  0  0  0
 22 23  2  0  0  0  0
 22 24  1  0  0  0  0
 20 21  1  0  0  0  0
 19 20  1  0  0  0  0
 17 18  1  0  0  0  0
 17 19  2  0  0  0  0
 15 16  1  0  0  0  0
 15 17  1  0  0  0  0
 14 15  1  0  0  0  0
 14 20  2  0  0  0  0
 11 12  1  0  0  0  0
 11 13  1  0  0  0  0
 11 14  1  0  0  0  0
  9 10  1  0  0  0  0
  9 11  1  0  0  0  0
  9 22  1  0  0  0  0
  7  8  1  0  0  0  0
  7  9  1  0  0  0  0
 26 27  1  0  0  0  0
 26 28  1  0  0  0  0
 26 29  1  0  0  0  0
 24 25  1  0  0  0  0
 24 26  1  0  0  0  0
M  END
$$$$
default_name
  -OEChem-02102213163D

 29 29  0     1  0  0  0  0  0999 V2000
   -3.6042   -3.5728    1.4576 H   0  0  0  0  0  0  0  0  0  0  0  0
   -3.5202   -2.6488    0.8866 C   0  0  0  0  0  0  0  0  0  0  0  0
   -4.2052   -1.9048    1.2896 H   0  0  0  0  0  0  0  0  0  0  0  0
   -3.7552   -2.8428   -0.1584 H   0  0  0  0  0  0  0  0  0  0  0  0
   -2.1052   -2.1358    0.9946 C   0  0  0  0  0  0  0  0  0  0  0  0
   -1.2852   -2.7288    1.6826 O   0  0  0  0  0  0  0  0  0  0  0  0
   -1.8202   -1.0288    0.3146 N   0  0  0  0  0  0  0  0  0  0  0  0
   -2.5542   -0.5788   -0.2104 H   0  0  0  0  0  0  0  0  0  0  0  0
   -0.5102   -0.3728    0.3086 C   0  0  1  0  0  0  0  0  0  0  0  0
    0.2354   -1.0844   -0.0490 H   0  0  0  0  0  0  0  0  0  0  0  0
   -0.5452    0.8158   -0.6698 C   0  0  0  0  0  0  0  0  0  0  0  0
   -1.0520    0.5092   -1.5865 H   0  0  0  0  0  0  0  0  0  0  0  0
   -1.1220    1.6276   -0.2229 H   0  0  0  0  0  0  0  0  0  0  0  0
    0.8202    1.3416   -1.0299 C   0  0  0  0  0  0  0  0  0  0  0  0
    1.4820    1.1438   -2.2228 N   0  0  0  0  0  0  0  0  0  0  0  0
    1.1738    0.5576   -2.9840 H   0  0  0  0  0  0  0  0  0  0  0  0
    2.6152    1.8652   -2.1938 C   0  0  0  0  0  0  0  0  0  0  0  0
    3.3499    1.9090   -2.9885 H   0  0  0  0  0  0  0  0  0  0  0  0
    2.7107    2.5337   -1.0352 N   0  0  0  0  0  0  0  0  0  0  0  0
    1.5781    2.2057   -0.2855 C   0  0  0  0  0  0  0  0  0  0  0  0
    1.3253    2.5931    0.6930 H   0  0  0  0  0  0  0  0  0  0  0  0
   -0.1073    0.0565    1.7296 C   0  0  0  0  0  0  0  0  0  0  0  0
    1.0285   -0.1699    2.1459 O   0  0  0  0  0  0  0  0  0  0  0  0
   -1.0395    0.6588    2.4785 N   0  0  0  0  0  0  0  0  0  0  0  0
   -1.9636    0.7597    2.0849 H   0  0  0  0  0  0  0  0  0  0  0  0
   -0.8222    1.1334    3.8425 C   0  0  0  0  0  0  0  0  0  0  0  0
   -0.0212    1.8761    3.8521 H   0  0  0  0  0  0  0  0  0  0  0  0
   -1.7349    1.5853    4.2320 H   0  0  0  0  0  0  0  0  0  0  0  0
   -0.5312    0.2997    4.4834 H   0  0  0  0  0  0  0  0  0  0  0  0
  5  6  2  0  0  0  0
  5  7  1  0  0  0  0
  2  3  1  0  0  0  0
  2  4  1  0  0  0  0
  2  5  1  0  0  0  0
  1  2  1  0  0  0  0
 22 23  2  0  0  0  0
 22 24  1  0  0  0  0
 20 21  1  0  0  0  0
 19 20  1  0  0  0  0
 17 18  1  0  0  0  0
 17 19  2  0  0  0  0
 15 16  1  0  0  0  0
 15 17  1  0  0  0  0
 14 15  1  0  0  0  0
 14 20  2  0  0  0  0
 11 12  1  0  0  0  0
 11 13  1  0  0  0  0
 11 14  1  0  0  0  0
  9 10  1  0  0  0  0
  9 11  1  0  0  0  0
  9 22  1  0  0  0  0
  7  8  1  0  0  0  0
  7  9  1  0  0  0  0
 26 27  1  0  0  0  0
 26 28  1  0  0  0  0
 26 29  1  0  0  0  0
 24 25  1  0  0  0  0
 24 26  1  0  0  0  0
M  END
$$$$
default_name
  -OEChem-02102213163D

 29 29  0     1  0  0  0  0  0999 V2000
   -3.6042   -3.5728    1.4576 H   0  0  0  0  0  0  0  0  0  0  0  0
   -3.5202   -2.6488    0.8866 C   0  0  0  0  0  0  0  0  0  0  0  0
   -4.2052   -1.9048    1.2896 H   0  0  0  0  0  0  0  0  0  0  0  0
   -3.7552   -2.8428   -0.1584 H   0  0  0  0  0  0  0  0  0  0  0  0
   -2.1052   -2.1358    0.9946 C   0  0  0  0  0  0  0  0  0  0  0  0
   -1.2852   -2.7288    1.6826 O   0  0  0  0  0  0  0  0  0  0  0  0
   -1.8202   -1.0288    0.3146 N   0  0  0  0  0  0  0  0  0  0  0  0
   -2.5542   -0.5788   -0.2104 H   0  0  0  0  0  0  0  0  0  0  0  0
   -0.5102   -0.3728    0.3086 C   0  0  1  0  0  0  0  0  0  0  0  0
    0.2354   -1.0844   -0.0490 H   0  0  0  0  0  0  0  0  0  0  0  0
   -0.5452    0.8158   -0.6698 C   0  0  0  0  0  0  0  0  0  0  0  0
   -1.0520    0.5092   -1.5865 H   0  0  0  0  0  0  0  0  0  0  0  0
   -1.1220    1.6276   -0.2229 H   0  0  0  0  0  0  0  0  0  0  0  0
    0.8202    1.3416   -1.0299 C   0  0  0  0  0  0  0  0  0  0  0  0
    1.3646    1.3991   -2.2949 N   0  0  0  0  0  0  0  0  0  0  0  0
    0.9527    1.0268   -3.1374 H   0  0  0  0  0  0  0  0  0  0  0  0
    2.5457    2.0342   -2.2105 C   0  0  0  0  0  0  0  0  0  0  0  0
    3.2133    2.2277   -3.0412 H   0  0  0  0  0  0  0  0  0  0  0  0
    2.7854    2.4027   -0.9435 N   0  0  0  0  0  0  0  0  0  0  0  0
    1.6980    1.9644   -0.1832 C   0  0  0  0  0  0  0  0  0  0  0  0
    1.5560    2.1208    0.8783 H   0  0  0  0  0  0  0  0  0  0  0  0
   -0.1073    0.0565    1.7296 C   0  0  0  0  0  0  0  0  0  0  0  0
    1.0285   -0.1699    2.1459 O   0  0  0  0  0  0  0  0  0  0  0  0
   -1.0395    0.6588    2.4785 N   0  0  0  0  0  0  0  0  0  0  0  0
   -1.9636    0.7597    2.0849 H   0  0  0  0  0  0  0  0  0  0  0  0
   -0.8222    1.1334    3.8425 C   0  0  0  0  0  0  0  0  0  0  0  0
   -0.0212    1.8761    3.8521 H   0  0  0  0  0  0  0  0  0  0  0  0
   -1.7349    1.5853    4.2320 H   0  0  0  0  0  0  0  0  0  0  0  0
   -0.5312    0.2997    4.4834 H   0  0  0  0  0  0  0  0  0  0  0  0
  5  6  2  0  0  0  0
  5  7  1  0  0  0  0
  2  3  1  0  0  0  0
  2  4  1  0  0  0  0
  2  5  1  0  0  0  0
  1  2  1  0  0  0  0
 22 23  2  0  0  0  0
 22 24  1  0  0  0  0
 20 21  1  0  0  0  0
 19 20  1  0  0  0  0
 17 18  1  0  0  0  0
 17 19  2  0  0  0  0
 15 16  1  0  0  0  0
 15 17  1  0  0  0  0
 14 15  1  0  0  0  0
 14 20  2  0  0  0  0
 11 12  1  0  0  0  0
 11 13  1  0  0  0  0
 11 14  1  0  0  0  0
  9 10  1  0  0  0  0
  9 11  1  0  0  0  0
  9 22  1  0  0  0  0
  7  8  1  0  0  0  0
  7  9  1  0  0  0  0
 26 27  1  0  0  0  0
 26 28  1  0  0  0  0
 26 29  1  0  0  0  0
 24 25  1  0  0  0  0
 24 26  1  0  0  0  0
M  END
$$$$
default_name
  -OEChem-02102213163D

 29 29  0     1  0  0  0  0  0999 V2000
   -3.6042   -3.5728    1.4576 H   0  0  0  0  0  0  0  0  0  0  0  0
   -3.5202   -2.6488    0.8866 C   0  0  0  0  0  0  0  0  0  0  0  0
   -4.2052   -1.9048    1.2896 H   0  0  0  0  0  0  0  0  0  0  0  0
   -3.7552   -2.8428   -0.1584 H   0  0  0  0  0  0  0  0  0  0  0  0
   -2.1052   -2.1358    0.9946 C   0  0  0  0  0  0  0  0  0  0  0  0
   -1.2852   -2.7288    1.6826 O   0  0  0  0  0  0  0  0  0  0  0  0
   -1.8202   -1.0288    0.3146 N   0  0  0  0  0  0  0  0  0  0  0  0
   -2.5542   -0.5788   -0.2104 H   0  0  0  0  0  0  0  0  0  0  0  0
   -0.5102   -0.3728    0.3086 C   0  0  1  0  0  0  0  0  0  0  0  0
    0.2354   -1.0844   -0.0490 H   0  0  0  0  0  0  0  0  0  0  0  0
   -0.5452    0.8158   -0.6698 C   0  0  0  0  0  0  0  0  0  0  0  0
   -1.0520    0.5092   -1.5865 H   0  0  0  0  0  0  0  0  0  0  0  0
   -1.1220    1.6276   -0.2229 H   0  0  0  0  0  0  0  0  0  0  0  0
    0.8202    1.3416   -1.0299 C   0  0  0  0  0  0  0  0  0  0  0  0
    1.2606    1.6699   -2.2941 N   0  0  0  0  0  0  0  0  0  0  0  0
    0.7542    1.5298   -3.1556 H   0  0  0  0  0  0  0  0  0  0  0  0
    2.4876    2.2055   -2.1806 C   0  0  0  0  0  0  0  0  0  0  0  0
    3.0962    2.5564   -3.0051 H   0  0  0  0  0  0  0  0  0  0  0  0
    2.8576    2.2500   -0.8924 N   0  0  0  0  0  0  0  0  0  0  0  0
    1.8081    1.7000   -0.1519 C   0  0  0  0  0  0  0  0  0  0  0  0
    1.7663    1.6070    0.9256 H   0  0  0  0  0  0  0  0  0  0  0  0
   -0.1073    0.0565    1.7296 C   0  0  0  0  0  0  0  0  0  0  0  0
    1.0285   -0.1699    2.1459 O   0  0  0  0  0  0  0  0  0  0  0  0
   -1.0395    0.6588    2.4785 N   0  0  0  0  0  0  0  0  0  0  0  0
   -1.9636    0.7597    2.0849 H   0  0  0  0  0  0  0  0  0  0  0  0
   -0.8222    1.1334    3.8425 C   0  0  0  0  0  0  0  0  0  0  0  0
   -0.0212    1.8761    3.8521 H   0  0  0  0  0  0  0  0  0  0  0  0
   -1.7349    1.5853    4.2320 H   0  0  0  0  0  0  0  0  0  0  0  0
   -0.5312    0.2997    4.4834 H   0  0  0  0  0  0  0  0  0  0  0  0
  5  6  2  0  0  0  0
  5  7  1  0  0  0  0
  2  3  1  0  0  0  0
  2  4  1  0  0  0  0
  2  5  1  0  0  0  0
  1  2  1  0  0  0  0
 22 23  2  0  0  0  0
 22 24  1  0  0  0  0
 20 21  1  0  0  0  0
 19 20  1  0  0  0  0
 17 18  1  0  0  0  0
 17 19  2  0  0  0  0
 15 16  1  0  0  0  0
 15 17  1  0  0  0  0
 14 15  1  0  0  0  0
 14 20  2  0  0  0  0
 11 12  1  0  0  0  0
 11 13  1  0  0  0  0
 11 14  1  0  0  0  0
  9 10  1  0  0  0  0
  9 11  1  0  0  0  0
  9 22  1  0  0  0  0
  7  8  1  0  0  0  0
  7  9  1  0  0  0  0
 26 27  1  0  0  0  0
 26 28  1  0  0  0  0
 26 29  1  0  0  0  0
 24 25  1  0  0  0  0
 24 26  1  0  0  0  0
M  END
$$$$
default_name
  -OEChem-02102213163D

 29 29  0     1  0  0  0  0  0999 V2000
   -3.6042   -3.5728    1.4576 H   0  0  0  0  0  0  0  0  0  0  0  0
   -3.5202   -2.6488    0.8866 C   0  0  0  0  0  0  0  0  0  0  0  0
   -4.2052   -1.9048    1.2896 H   0  0  0  0  0  0  0  0  0  0  0  0
   -3.7552   -2.8428   -0.1584 H   0  0  0  0  0  0  0  0  0  0  0  0
   -2.1052   -2.1358    0.9946 C   0  0  0  0  0  0  0  0  0  0  0  0
   -1.2852   -2.7288    1.6826 O   0  0  0  0  0  0  0  0  0  0  0  0
   -1.8202   -1.0288    0.3146 N   0  0  0  0  0  0  0  0  0  0  0  0
   -2.5542   -0.5788   -0.2104 H   0  0  0  0  0  0  0  0  0  0  0  0
   -0.5102   -0.3728    0.3086 C   0  0  1  0  0  0  0  0  0  0  0  0
    0.2354   -1.0844   -0.0490 H   0  0  0  0  0  0  0  0  0  0  0  0
   -0.5452    0.8158   -0.6698 C   0  0  0  0  0  0  0  0  0  0  0  0
   -1.0520    0.5092   -1.5865 H   0  0  0  0  0  0  0  0  0  0  0  0
   -1.1220    1.6276   -0.2229 H   0  0  0  0  0  0  0  0  0  0  0  0
    0.8202    1.3416   -1.0299 C   0  0  0  0  0  0  0  0  0  0  0  0
    1.1769    1.9376   -2.2205 N   0  0  0  0  0  0  0  0  0  0  0  0
    0.5920    2.0321   -3.0372 H   0  0  0  0  0  0  0  0  0  0  0  0
    2.4448    2.3677   -2.1064 C   0  0  0  0  0  0  0  0  0  0  0  0
    3.0068    2.8726   -2.8825 H   0  0  0  0  0  0  0  0  0  0  0  0
    2.9226    2.0862   -0.8854 N   0  0  0  0  0  0  0  0  0  0  0  0
    1.9009    1.4304   -0.1936 C   0  0  0  0  0  0  0  0  0  0  0  0
    1.9420    1.0865    0.8319 H   0  0  0  0  0  0  0  0  0  0  0  0
   -0.1073    0.0565    1.7296 C   0  0  0  0  0  0  0  0  0  0  0  0
    1.0285   -0.1699    2.1459 O   0  0  0  0  0  0  0  0  0  0  0  0
   -1.0395    0.6588    2.4785 N   0  0  0  0  0  0  0  0  0  0  0  0
   -1.9636    0.7597    2.0849 H   0  0  0  0  0  0  0  0  0  0  0  0
   -0.8222    1.1334    3.8425 C   0  0  0  0  0  0  0  0  0  0  0  0
   -0.0212    1.8761    3.8521 H   0  0  0  0  0  0  0  0  0  0  0  0
   -1.7349    1.5853    4.2320 H   0  0  0  0  0  0  0  0  0  0  0  0
   -0.5312    0.2997    4.4834 H   0  0  0  0  0  0  0  0  0  0  0  0
  5  6  2  0  0  0  0
  5  7  1  0  0  0  0
  2  3  1  0  0  0  0
  2  4  1  0  0  0  0
  2  5  1  0  0  0  0
  1  2  1  0  0  0  0
 22 23  2  0  0  0  0
 22 24  1  0  0  0  0
 20 21  1  0  0  0  0
 19 20  1  0  0  0  0
 17 18  1  0  0  0  0
 17 19  2  0  0  0  0
 15 16  1  0  0  0  0
 15 17  1  0  0  0  0
 14 15  1  0  0  0  0
 14 20  2  0  0  0  0
 11 12  1  0  0  0  0
 11 13  1  0  0  0  0
 11 14  1  0  0  0  0
  9 10  1  0  0  0  0
  9 11  1  0  0  0  0
  9 22  1  0  0  0  0
  7  8  1  0  0  0  0
  7  9  1  0  0  0  0
 26 27  1  0  0  0  0
 26 28  1  0  0  0  0
 26 29  1  0  0  0  0
 24 25  1  0  0  0  0
 24 26  1  0  0  0  0
M  END
$$$$
default_name
  -OEChem-02102213163D

 29 29  0     1  0  0  0  0  0999 V2000
   -3.6042   -3.5728    1.4576 H   0  0  0  0  0  0  0  0  0  0  0  0
   -3.5202   -2.6488    0.8866 C   0  0  0  0  0  0  0  0  0  0  0  0
   -4.2052   -1.9048    1.2896 H   0  0  0  0  0  0  0  0  0  0  0  0
   -3.7552   -2.8428   -0.1584 H   0  0  0  0  0  0  0  0  0  0  0  0
   -2.1052   -2.1358    0.9946 C   0  0  0  0  0  0  0  0  0  0  0  0
   -1.2852   -2.7288    1.6826 O   0  0  0  0  0  0  0  0  0  0  0  0
   -1.8202   -1.0288    0.3146 N   0  0  0  0  0  0  0  0  0  0  0  0
   -2.5542   -0.5788   -0.2104 H   0  0  0  0  0  0  0  0  0  0  0  0
   -0.5102   -0.3728    0.3086 C   0  0  1  0  0  0  0  0  0  0  0  0
    0.2354   -1.0844   -0.0490 H   0  0  0  0  0  0  0  0  0  0  0  0
   -0.5452    0.8158   -0.6698 C   0  0  0  0  0  0  0  0  0  0  0  0
   -1.0520    0.5092   -1.5865 H   0  0  0  0  0  0  0  0  0  0  0  0
   -1.1220    1.6276   -0.2229 H   0  0  0  0  0  0  0  0  0  0  0  0
    0.8202    1.3416   -1.0299 C   0  0  0  0  0  0  0  0  0  0  0  0
    1.1193    2.1842   -2.0790 N   0  0  0  0  0  0  0  0  0  0  0  0
    0.4771    2.4996   -2.7905 H   0  0  0  0  0  0  0  0  0  0  0  0
    2.4201    2.5095   -1.9927 C   0  0  0  0  0  0  0  0  0  0  0  0
    2.9510    3.1549   -2.6819 H   0  0  0  0  0  0  0  0  0  0  0  0
    2.9758    1.9222   -0.9229 N   0  0  0  0  0  0  0  0  0  0  0  0
    1.9701    1.1740   -0.3054 C   0  0  0  0  0  0  0  0  0  0  0  0
    2.0710    0.5949    0.6034 H   0  0  0  0  0  0  0  0  0  0  0  0
   -0.1073    0.0565    1.7296 C   0  0  0  0  0  0  0  0  0  0  0  0
    1.0285   -0.1699    2.1459 O   0  0  0  0  0  0  0  0  0  0  0  0
   -1.0395    0.6588    2.4785 N   0  0  0  0  0  0  0  0  0  0  0  0
   -1.9636    0.7597    2.0849 H   0  0  0  0  0  0  0  0  0  0  0  0
   -0.8222    1.1334    3.8425 C   0  0  0  0  0  0  0  0  0  0  0  0
   -0.0212    1.8761    3.8521 H   0  0  0  0  0  0  0  0  0  0  0  0
   -1.7349    1.5853    4.2320 H   0  0  0  0  0  0  0  0  0  0  0  0
   -0.5312    0.2997    4.4834 H   0  0  0  0  0  0  0  0  0  0  0  0
  5  6  2  0  0  0  0
  5  7  1  0  0  0  0
  2  3  1  0  0  0  0
  2  4  1  0  0  0  0
  2  5  1  0  0  0  0
  1  2  1  0  0  0  0
 22 23  2  0  0  0  0
 22 24  1  0  0  0  0
 20 21  1  0  0  0  0
 19 20  1  0  0  0  0
 17 18  1  0  0  0  0
 17 19  2  0  0  0  0
 15 16  1  0  0  0  0
 15 17  1  0  0  0  0
 14 15  1  0  0  0  0
 14 20  2  0  0  0  0
 11 12  1  0  0  0  0
 11 13  1  0  0  0  0
 11 14  1  0  0  0  0
  9 10  1  0  0  0  0
  9 11  1  0  0  0  0
  9 22  1  0  0  0  0
  7  8  1  0  0  0  0
  7  9  1  0  0  0  0
 26 27  1  0  0  0  0
 26 28  1  0  0  0  0
 26 29  1  0  0  0  0
 24 25  1  0  0  0  0
 24 26  1  0  0  0  0
M  END
$$$$
default_name
  -OEChem-02102213163D

 29 29  0     1  0  0  0  0  0999 V2000
   -3.6042   -3.5728    1.4576 H   0  0  0  0  0  0  0  0  0  0  0  0
   -3.5202   -2.6488    0.8866 C   0  0  0  0  0  0  0  0  0  0  0  0
   -4.2052   -1.9048    1.2896 H   0  0  0  0  0  0  0  0  0  0  0  0
   -3.7552   -2.8428   -0.1584 H   0  0  0  0  0  0  0  0  0  0  0  0
   -2.1052   -2.1358    0.9946 C   0  0  0  0  0  0  0  0  0  0  0  0
   -1.2852   -2.7288    1.6826 O   0  0  0  0  0  0  0  0  0  0  0  0
   -1.8202   -1.0288    0.3146 N   0  0  0  0  0  0  0  0  0  0  0  0
   -2.5542   -0.5788   -0.2104 H   0  0  0  0  0  0  0  0  0  0  0  0
   -0.5102   -0.3728    0.3086 C   0  0  1  0  0  0  0  0  0  0  0  0
    0.2354   -1.0844   -0.0490 H   0  0  0  0  0  0  0  0  0  0  0  0
   -0.5452    0.8158   -0.6698 C   0  0  0  0  0  0  0  0  0  0  0  0
   -1.2686    0.6070   -1.4600 H   0  0  0  0  0  0  0  0  0  0  0  0
   -0.8799    1.7068   -0.1353 H   0  0  0  0  0  0  0  0  0  0  0  0
    0.7877    1.1129   -1.3065 C   0  0  0  0  0  0  0  0  0  0  0  0
    1.0521    2.1139   -2.2165 N   0  0  0  0  0  0  0  0  0  0  0  0
    0.3731    2.7319   -2.6352 H   0  0  0  0  0  0  0  0  0  0  0  0
    2.3745    2.1207   -2.4543 C   0  0  0  0  0  0  0  0  0  0  0  0
    2.8852    2.7935   -3.1324 H   0  0  0  0  0  0  0  0  0  0  0  0
    2.9821    1.1724   -1.7264 N   0  0  0  0  0  0  0  0  0  0  0  0
    1.9837    0.5225   -0.9961 C   0  0  0  0  0  0  0  0  0  0  0  0
    2.1319   -0.2793   -0.2844 H   0  0  0  0  0  0  0  0  0  0  0  0
   -0.1073    0.0565    1.7296 C   0  0  0  0  0  0  0  0  0  0  0  0
    1.0285   -0.1699    2.1459 O   0  0  0  0  0  0  0  0  0  0  0  0
   -1.0395    0.6588    2.4785 N   0  0  0  0  0  0  0  0  0  0  0  0
   -1.9636    0.7597    2.0849 H   0  0  0  0  0  0  0  0  0  0  0  0
   -0.8222    1.1334    3.8425 C   0  0  0  0  0  0  0  0  0  0  0  0
   -0.0212    1.8761    3.8521 H   0  0  0  0  0  0  0  0  0  0  0  0
   -1.7349    1.5853    4.2320 H   0  0  0  0  0  0  0  0  0  0  0  0
   -0.5312    0.2997    4.4834 H   0  0  0  0  0  0  0  0  0  0  0  0
  5  6  2  0  0  0  0
  5  7  1  0  0  0  0
  2  3  1  0  0  0  0
  2  4  1  0  0  0  0
  2  5  1  0  0  0  0
  1  2  1  0  0  0  0
 22 23  2  0  0  0  0
 22 24  1  0  0  0  0
 20 21  1  0  0  0  0
 19 20  1  0  0  0  0
 17 18  1  0  0  0  0
 17 19  2  0  0  0  0
 15 16  1  0  0  0  0
 15 17  1  0  0  0  0
 14 15  1  0  0  0  0
 14 20  2  0  0  0  0
 11 12  1  0  0  0  0
 11 13  1  0  0  0  0
 11 14  1  0  0  0  0
  9 10  1  0  0  0  0
  9 11  1  0  0  0  0
  9 22  1  0  0  0  0
  7  8  1  0  0  0  0
  7  9  1  0  0  0  0
 26 27  1  0  0  0  0
 26 28  1  0  0  0  0
 26 29  1  0  0  0  0
 24 25  1  0  0  0  0
 24 26  1  0  0  0  0
M  END
$$$$
default_name
  -OEChem-02102213163D

 29 29  0     1  0  0  0  0  0999 V2000
   -3.6042   -3.5728    1.4576 H   0  0  0  0  0  0  0  0  0  0  0  0
   -3.5202   -2.6488    0.8866 C   0  0  0  0  0  0  0  0  0  0  0  0
   -4.2052   -1.9048    1.2896 H   0  0  0  0  0  0  0  0  0  0  0  0
   -3.7552   -2.8428   -0.1584 H   0  0  0  0  0  0  0  0  0  0  0  0
   -2.1052   -2.1358    0.9946 C   0  0  0  0  0  0  0  0  0  0  0  0
   -1.2852   -2.7288    1.6826 O   0  0  0  0  0  0  0  0  0  0  0  0
   -1.8202   -1.0288    0.3146 N   0  0  0  0  0  0  0  0  0  0  0  0
   -2.5542   -0.5788   -0.2104 H   0  0  0  0  0  0  0  0  0  0  0  0
   -0.5102   -0.3728    0.3086 C   0  0  1  0  0  0  0  0  0  0  0  0
    0.2354   -1.0844   -0.0490 H   0  0  0  0  0  0  0  0  0  0  0  0
   -0.5452    0.8158   -0.6698 C   0  0  0  0  0  0  0  0  0  0  0  0
   -1.2686    0.6070   -1.4600 H   0  0  0  0  0  0  0  0  0  0  0  0
   -0.8799    1.7068   -0.1353 H   0  0  0  0  0  0  0  0  0  0  0  0
    0.7877    1.1129   -1.3065 C   0  0  0  0  0  0  0  0  0  0  0  0
    1.1307    2.2647   -1.9815 N   0  0  0  0  0  0  0  0  0  0  0  0
    0.5120    3.0297   -2.2054 H   0  0  0  0  0  0  0  0  0  0  0  0
    2.4350    2.1896   -2.2955 C   0  0  0  0  0  0  0  0  0  0  0  0
    2.9935    2.9447   -2.8350 H   0  0  0  0  0  0  0  0  0  0  0  0
    2.9567    1.0408   -1.8411 N   0  0  0  0  0  0  0  0  0  0  0  0
    1.9187    0.3462   -1.2146 C   0  0  0  0  0  0  0  0  0  0  0  0
    2.0005   -0.6097   -0.7136 H   0  0  0  0  0  0  0  0  0  0  0  0
   -0.1073    0.0565    1.7296 C   0  0  0  0  0  0  0  0  0  0  0  0
    1.0285   -0.1699    2.1459 O   0  0  0  0  0  0  0  0  0  0  0  0
   -1.0395    0.6588    2.4785 N   0  0  0  0  0  0  0  0  0  0  0  0
   -1.9636    0.7597    2.0849 H   0  0  0  0  0  0  0  0  0  0  0  0
   -0.8222    1.1334    3.8425 C   0  0  0  0  0  0  0  0  0  0  0  0
   -0.0212    1.8761    3.8521 H   0  0  0  0  0  0  0  0  0  0  0  0
   -1.7349    1.5853    4.2320 H   0  0  0  0  0  0  0  0  0  0  0  0
   -0.5312    0.2997    4.4834 H   0  0  0  0  0  0  0  0  0  0  0  0
  5  6  2  0  0  0  0
  5  7  1  0  0  0  0
  2  3  1  0  0  0  0
  2  4  1  0  0  0  0
  2  5  1  0  0  0  0
  1  2  1  0  0  0  0
 22 23  2  0  0  0  0
 22 24  1  0  0  0  0
 20 21  1  0  0  0  0
 19 20  1  0  0  0  0
 17 18  1  0  0  0  0
 17 19  2  0  0  0  0
 15 16  1  0  0  0  0
 15 17  1  0  0  0  0
 14 15  1  0  0  0  0
 14 20  2  0  0  0  0
 11 12  1  0  0  0  0
 11 13  1  0  0  0  0
 11 14  1  0  0  0  0
  9 10  1  0  0  0  0
  9 11  1  0  0  0  0
  9 22  1  0  0  0  0
  7  8  1  0  0  0  0
  7  9  1  0  0  0  0
 26 27  1  0  0  0  0
 26 28  1  0  0  0  0
 26 29  1  0  0  0  0
 24 25  1  0  0  0  0
 24 26  1  0  0  0  0
M  END
$$$$
default_name
  -OEChem-02102213163D

 29 29  0     1  0  0  0  0  0999 V2000
   -3.6042   -3.5728    1.4576 H   0  0  0  0  0  0  0  0  0  0  0  0
   -3.5202   -2.6488    0.8866 C   0  0  0  0  0  0  0  0  0  0  0  0
   -4.2052   -1.9048    1.2896 H   0  0  0  0  0  0  0  0  0  0  0  0
   -3.7552   -2.8428   -0.1584 H   0  0  0  0  0  0  0  0  0  0  0  0
   -2.1052   -2.1358    0.9946 C   0  0  0  0  0  0  0  0  0  0  0  0
   -1.2852   -2.7288    1.6826 O   0  0  0  0  0  0  0  0  0  0  0  0
   -1.8202   -1.0288    0.3146 N   0  0  0  0  0  0  0  0  0  0  0  0
   -2.5542   -0.5788   -0.2104 H   0  0  0  0  0  0  0  0  0  0  0  0
   -0.5102   -0.3728    0.3086 C   0  0  1  0  0  0  0  0  0  0  0  0
    0.2354   -1.0844   -0.0490 H   0  0  0  0  0  0  0  0  0  0  0  0
   -0.5452    0.8158   -0.6698 C   0  0  0  0  0  0  0  0  0  0  0  0
   -1.2686    0.6070   -1.4600 H   0  0  0  0  0  0  0  0  0  0  0  0
   -0.8799    1.7068   -0.1353 H   0  0  0  0  0  0  0  0  0  0  0  0
    0.7877    1.1129   -1.3065 C   0  0  0  0  0  0  0  0  0  0  0  0
    1.2352    2.3480   -1.7240 N   0  0  0  0  0  0  0  0  0  0  0  0
    0.7007    3.2038   -1.7293 H   0  0  0  0  0  0  0  0  0  0  0  0
    2.5091    2.2132   -2.1294 C   0  0  0  0  0  0  0  0  0  0  0  0
    3.1299    3.0109   -2.5187 H   0  0  0  0  0  0  0  0  0  0  0  0
    2.9118    0.9427   -1.9808 N   0  0  0  0  0  0  0  0  0  0  0  0
    1.8254    0.2330   -1.4626 C   0  0  0  0  0  0  0  0  0  0  0  0
    1.8156   -0.8162   -1.1970 H   0  0  0  0  0  0  0  0  0  0  0  0
   -0.1073    0.0565    1.7296 C   0  0  0  0  0  0  0  0  0  0  0  0
    1.0285   -0.1699    2.1459 O   0  0  0  0  0  0  0  0  0  0  0  0
   -1.0395    0.6588    2.4785 N   0  0  0  0  0  0  0  0  0  0  0  0
   -1.9636    0.7597    2.0849 H   0  0  0  0  0  0  0  0  0  0  0  0
   -0.8222    1.1334    3.8425 C   0  0  0  0  0  0  0  0  0  0  0  0
   -0.0212    1.8761    3.8521 H   0  0  0  0  0  0  0  0  0  0  0  0
   -1.7349    1.5853    4.2320 H   0  0  0  0  0  0  0  0  0  0  0  0
   -0.5312    0.2997    4.4834 H   0  0  0  0  0  0  0  0  0  0  0  0
  5  6  2  0  0  0  0
  5  7  1  0  0  0  0
  2  3  1  0  0  0  0
  2  4  1  0  0  0  0
  2  5  1  0  0  0  0
  1  2  1  0  0  0  0
 22 23  2  0  0  0  0
 22 24  1  0  0  0  0
 20 21  1  0  0  0  0
 19 20  1  0  0  0  0
 17 18  1  0  0  0  0
 17 19  2  0  0  0  0
 15 16  1  0  0  0  0
 15 17  1  0  0  0  0
 14 15  1  0  0  0  0
 14 20  2  0  0  0  0
 11 12  1  0  0  0  0
 11 13  1  0  0  0  0
 11 14  1  0  0  0  0
  9 10  1  0  0  0  0
  9 11  1  0  0  0  0
  9 22  1  0  0  0  0
  7  8  1  0  0  0  0
  7  9  1  0  0  0  0
 26 27  1  0  0  0  0
 26 28  1  0  0  0  0
 26 29  1  0  0  0  0
 24 25  1  0  0  0  0
 24 26  1  0  0  0  0
M  END
$$$$
default_name
  -OEChem-02102213163D

 29 29  0     1  0  0  0  0  0999 V2000
   -3.6042   -3.5728    1.4576 H   0  0  0  0  0  0  0  0  0  0  0  0
   -3.5202   -2.6488    0.8866 C   0  0  0  0  0  0  0  0  0  0  0  0
   -4.2052   -1.9048    1.2896 H   0  0  0  0  0  0  0  0  0  0  0  0
   -3.7552   -2.8428   -0.1584 H   0  0  0  0  0  0  0  0  0  0  0  0
   -2.1052   -2.1358    0.9946 C   0  0  0  0  0  0  0  0  0  0  0  0
   -1.2852   -2.7288    1.6826 O   0  0  0  0  0  0  0  0  0  0  0  0
   -1.8202   -1.0288    0.3146 N   0  0  0  0  0  0  0  0  0  0  0  0
   -2.5542   -0.5788   -0.2104 H   0  0  0  0  0  0  0  0  0  0  0  0
   -0.5102   -0.3728    0.3086 C   0  0  1  0  0  0  0  0  0  0  0  0
    0.2354   -1.0844   -0.0490 H   0  0  0  0  0  0  0  0  0  0  0  0
   -0.5452    0.8158   -0.6698 C   0  0  0  0  0  0  0  0  0  0  0  0
   -1.2686    0.6070   -1.4600 H   0  0  0  0  0  0  0  0  0  0  0  0
   -0.8799    1.7068   -0.1353 H   0  0  0  0  0  0  0  0  0  0  0  0
    0.7877    1.1129   -1.3065 C   0  0  0  0  0  0  0  0  0  0  0  0
    1.3583    2.3580   -1.4616 N   0  0  0  0  0  0  0  0  0  0  0  0
    0.9263    3.2423   -1.2391 H   0  0  0  0  0  0  0  0  0  0  0  0
    2.5917    2.1898   -1.9674 C   0  0  0  0  0  0  0  0  0  0  0  0
    3.2850    2.9874   -2.2050 H   0  0  0  0  0  0  0  0  0  0  0  0
    2.8506    0.8849   -2.1358 N   0  0  0  0  0  0  0  0  0  0  0  0
    1.7103    0.1907   -1.7234 C   0  0  0  0  0  0  0  0  0  0  0  0
    1.5897   -0.8847   -1.7018 H   0  0  0  0  0  0  0  0  0  0  0  0
   -0.1073    0.0565    1.7296 C   0  0  0  0  0  0  0  0  0  0  0  0
    1.0285   -0.1699    2.1459 O   0  0  0  0  0  0  0  0  0  0  0  0
   -1.0395    0.6588    2.4785 N   0  0  0  0  0  0  0  0  0  0  0  0
   -1.9636    0.7597    2.0849 H   0  0  0  0  0  0  0  0  0  0  0  0
   -0.8222    1.1334    3.8425 C   0  0  0  0  0  0  0  0  0  0  0  0
   -0.0212    1.8761    3.8521 H   0  0  0  0  0  0  0  0  0  0  0  0
   -1.7349    1.5853    4.2320 H   0  0  0  0  0  0  0  0  0  0  0  0
   -0.5312    0.2997    4.4834 H   0  0  0  0  0  0  0  0  0  0  0  0
  5  6  2  0  0  0  0
  5  7  1  0  0  0  0
  2  3  1  0  0  0  0
  2  4  1  0  0  0  0
  2  5  1  0  0  0  0
  1  2  1  0  0  0  0
 22 23  2  0  0  0  0
 22 24  1  0  0  0  0
 20 21  1  0  0  0  0
 19 20  1  0  0  0  0
 17 18  1  0  0  0  0
 17 19  2  0  0  0  0
 15 16  1  0  0  0  0
 15 17  1  0  0  0  0
 14 15  1  0  0  0  0
 14 20  2  0  0  0  0
 11 12  1  0  0  0  0
 11 13  1  0  0  0  0
 11 14  1  0  0  0  0
  9 10  1  0  0  0  0
  9 11  1  0  0  0  0
  9 22  1  0  0  0  0
  7  8  1  0  0  0  0
  7  9  1  0  0  0  0
 26 27  1  0  0  0  0
 26 28  1  0  0  0  0
 26 29  1  0  0  0  0
 24 25  1  0  0  0  0
 24 26  1  0  0  0  0
M  END
$$$$
default_name
  -OEChem-02102213163D

 29 29  0     1  0  0  0  0  0999 V2000
   -3.6042   -3.5728    1.4576 H   0  0  0  0  0  0  0  0  0  0  0  0
   -3.5202   -2.6488    0.8866 C   0  0  0  0  0  0  0  0  0  0  0  0
   -4.2052   -1.9048    1.2896 H   0  0  0  0  0  0  0  0  0  0  0  0
   -3.7552   -2.8428   -0.1584 H   0  0  0  0  0  0  0  0  0  0  0  0
   -2.1052   -2.1358    0.9946 C   0  0  0  0  0  0  0  0  0  0  0  0
   -1.2852   -2.7288    1.6826 O   0  0  0  0  0  0  0  0  0  0  0  0
   -1.8202   -1.0288    0.3146 N   0  0  0  0  0  0  0  0  0  0  0  0
   -2.5542   -0.5788   -0.2104 H   0  0  0  0  0  0  0  0  0  0  0  0
   -0.5102   -0.3728    0.3086 C   0  0  1  0  0  0  0  0  0  0  0  0
    0.2354   -1.0844   -0.0490 H   0  0  0  0  0  0  0  0  0  0  0  0
   -0.5452    0.8158   -0.6698 C   0  0  0  0  0  0  0  0  0  0  0  0
   -1.2686    0.6070   -1.4600 H   0  0  0  0  0  0  0  0  0  0  0  0
   -0.8799    1.7068   -0.1353 H   0  0  0  0  0  0  0  0  0  0  0  0
    0.7877    1.1129   -1.3065 C   0  0  0  0  0  0  0  0  0  0  0  0
    1.4917    2.2942   -1.2121 N   0  0  0  0  0  0  0  0  0  0  0  0
    1.1734    3.1426   -0.7683 H   0  0  0  0  0  0  0  0  0  0  0  0
    2.6772    2.1212   -1.8204 C   0  0  0  0  0  0  0  0  0  0  0  0
    3.4483    2.8760   -1.9152 H   0  0  0  0  0  0  0  0  0  0  0  0
    2.7773    0.8712   -2.2957 N   0  0  0  0  0  0  0  0  0  0  0  0
    1.5811    0.2221   -1.9790 C   0  0  0  0  0  0  0  0  0  0  0  0
    1.3383   -0.8106   -2.1936 H   0  0  0  0  0  0  0  0  0  0  0  0
   -0.1073    0.0565    1.7296 C   0  0  0  0  0  0  0  0  0  0  0  0
    1.0285   -0.1699    2.1459 O   0  0  0  0  0  0  0  0  0  0  0  0
   -1.0395    0.6588    2.4785 N   0  0  0  0  0  0  0  0  0  0  0  0
   -1.9636    0.7597    2.0849 H   0  0  0  0  0  0  0  0  0  0  0  0
   -0.8222    1.1334    3.8425 C   0  0  0  0  0  0  0  0  0  0  0  0
   -0.0212    1.8761    3.8521 H   0  0  0  0  0  0  0  0  0  0  0  0
   -1.7349    1.5853    4.2320 H   0  0  0  0  0  0  0  0  0  0  0  0
   -0.5312    0.2997    4.4834 H   0  0  0  0  0  0  0  0  0  0  0  0
  5  6  2  0  0  0  0
  5  7  1  0  0  0  0
  2  3  1  0  0  0  0
  2  4  1  0  0  0  0
  2  5  1  0  0  0  0
  1  2  1  0  0  0  0
 22 23  2  0  0  0  0
 22 24  1  0  0  0  0
 20 21  1  0  0  0  0
 19 20  1  0  0  0  0
 17 18  1  0  0  0  0
 17 19  2  0  0  0  0
 15 16  1  0  0  0  0
 15 17  1  0  0  0  0
 14 15  1  0  0  0  0
 14 20  2  0  0  0  0
 11 12  1  0  0  0  0
 11 13  1  0  0  0  0
 11 14  1  0  0  0  0
  9 10  1  0  0  0  0
  9 11  1  0  0  0  0
  9 22  1  0  0  0  0
  7  8  1  0  0  0  0
  7  9  1  0  0  0  0
 26 27  1  0  0  0  0
 26 28  1  0  0  0  0
 26 29  1  0  0  0  0
 24 25  1  0  0  0  0
 24 26  1  0  0  0  0
M  END
$$$$
default_name
  -OEChem-02102213163D

 29 29  0     1  0  0  0  0  0999 V2000
   -3.6042   -3.5728    1.4576 H   0  0  0  0  0  0  0  0  0  0  0  0
   -3.5202   -2.6488    0.8866 C   0  0  0  0  0  0  0  0  0  0  0  0
   -4.2052   -1.9048    1.2896 H   0  0  0  0  0  0  0  0  0  0  0  0
   -3.7552   -2.8428   -0.1584 H   0  0  0  0  0  0  0  0  0  0  0  0
   -2.1052   -2.1358    0.9946 C   0  0  0  0  0  0  0  0  0  0  0  0
   -1.2852   -2.7288    1.6826 O   0  0  0  0  0  0  0  0  0  0  0  0
   -1.8202   -1.0288    0.3146 N   0  0  0  0  0  0  0  0  0  0  0  0
   -2.5542   -0.5788   -0.2104 H   0  0  0  0  0  0  0  0  0  0  0  0
   -0.5102   -0.3728    0.3086 C   0  0  1  0  0  0  0  0  0  0  0  0
    0.2354   -1.0844   -0.0490 H   0  0  0  0  0  0  0  0  0  0  0  0
   -0.5452    0.8158   -0.6698 C   0  0  0  0  0  0  0  0  0  0  0  0
   -1.2686    0.6070   -1.4600 H   0  0  0  0  0  0  0  0  0  0  0  0
   -0.8799    1.7068   -0.1353 H   0  0  0  0  0  0  0  0  0  0  0  0
    0.7877    1.1129   -1.3065 C   0  0  0  0  0  0  0  0  0  0  0  0
    1.6263    2.1608   -0.9925 N   0  0  0  0  0  0  0  0  0  0  0  0
    1.4252    2.9115   -0.3490 H   0  0  0  0  0  0  0  0  0  0  0  0
    2.7598    2.0118   -1.6985 C   0  0  0  0  0  0  0  0  0  0  0  0
    3.6086    2.6841   -1.6691 H   0  0  0  0  0  0  0  0  0  0  0  0
    2.6968    0.9026   -2.4495 N   0  0  0  0  0  0  0  0  0  0  0  0
    1.4468    0.3251   -2.2122 C   0  0  0  0  0  0  0  0  0  0  0  0
    1.0784   -0.5990   -2.6388 H   0  0  0  0  0  0  0  0  0  0  0  0
   -0.1073    0.0565    1.7296 C   0  0  0  0  0  0  0  0  0  0  0  0
    1.0285   -0.1699    2.1459 O   0  0  0  0  0  0  0  0  0  0  0  0
   -1.0395    0.6588    2.4785 N   0  0  0  0  0  0  0  0  0  0  0  0
   -1.9636    0.7597    2.0849 H   0  0  0  0  0  0  0  0  0  0  0  0
   -0.8222    1.1334    3.8425 C   0  0  0  0  0  0  0  0  0  0  0  0
   -0.0212    1.8761    3.8521 H   0  0  0  0  0  0  0  0  0  0  0  0
   -1.7349    1.5853    4.2320 H   0  0  0  0  0  0  0  0  0  0  0  0
   -0.5312    0.2997    4.4834 H   0  0  0  0  0  0  0  0  0  0  0  0
  5  6  2  0  0  0  0
  5  7  1  0  0  0  0
  2  3  1  0  0  0  0
  2  4  1  0  0  0  0
  2  5  1  0  0  0  0
  1  2  1  0  0  0  0
 22 23  2  0  0  0  0
 22 24  1  0  0  0  0
 20 21  1  0  0  0  0
 19 20  1  0  0  0  0
 17 18  1  0  0  0  0
 17 19  2  0  0  0  0
 15 16  1  0  0  0  0
 15 17  1  0  0  0  0
 14 15  1  0  0  0  0
 14 20  2  0  0  0  0
 11 12  1  0  0  0  0
 11 13  1  0  0  0  0
 11 14  1  0  0  0  0
  9 10  1  0  0  0  0
  9 11  1  0  0  0  0
  9 22  1  0  0  0  0
  7  8  1  0  0  0  0
  7  9  1  0  0  0  0
 26 27  1  0  0  0  0
 26 28  1  0  0  0  0
 26 29  1  0  0  0  0
 24 25  1  0  0  0  0
 24 26  1  0  0  0  0
M  END
$$$$
default_name
  -OEChem-02102213163D

 29 29  0     1  0  0  0  0  0999 V2000
   -3.6042   -3.5728    1.4576 H   0  0  0  0  0  0  0  0  0  0  0  0
   -3.5202   -2.6488    0.8866 C   0  0  0  0  0  0  0  0  0  0  0  0
   -4.2052   -1.9048    1.2896 H   0  0  0  0  0  0  0  0  0  0  0  0
   -3.7552   -2.8428   -0.1584 H   0  0  0  0  0  0  0  0  0  0  0  0
   -2.1052   -2.1358    0.9946 C   0  0  0  0  0  0  0  0  0  0  0  0
   -1.2852   -2.7288    1.6826 O   0  0  0  0  0  0  0  0  0  0  0  0
   -1.8202   -1.0288    0.3146 N   0  0  0  0  0  0  0  0  0  0  0  0
   -2.5542   -0.5788   -0.2104 H   0  0  0  0  0  0  0  0  0  0  0  0
   -0.5102   -0.3728    0.3086 C   0  0  1  0  0  0  0  0  0  0  0  0
    0.2354   -1.0844   -0.0490 H   0  0  0  0  0  0  0  0  0  0  0  0
   -0.5452    0.8158   -0.6698 C   0  0  0  0  0  0  0  0  0  0  0  0
   -1.2686    0.6070   -1.4600 H   0  0  0  0  0  0  0  0  0  0  0  0
   -0.8799    1.7068   -0.1353 H   0  0  0  0  0  0  0  0  0  0  0  0
    0.7877    1.1129   -1.3065 C   0  0  0  0  0  0  0  0  0  0  0  0
    1.7530    1.9669   -0.8178 N   0  0  0  0  0  0  0  0  0  0  0  0
    1.6646    2.5647   -0.0098 H   0  0  0  0  0  0  0  0  0  0  0  0
    2.8339    1.8692   -1.6100 C   0  0  0  0  0  0  0  0  0  0  0  0
    3.7550    2.4250   -1.4836 H   0  0  0  0  0  0  0  0  0  0  0  0
    2.6147    0.9770   -2.5868 N   0  0  0  0  0  0  0  0  0  0  0  0
    1.3164    0.4926   -2.4071 C   0  0  0  0  0  0  0  0  0  0  0  0
    0.8278   -0.2642   -3.0071 H   0  0  0  0  0  0  0  0  0  0  0  0
   -0.1073    0.0565    1.7296 C   0  0  0  0  0  0  0  0  0  0  0  0
    1.0285   -0.1699    2.1459 O   0  0  0  0  0  0  0  0  0  0  0  0
   -1.0395    0.6588    2.4785 N   0  0  0  0  0  0  0  0  0  0  0  0
   -1.9636    0.7597    2.0849 H   0  0  0  0  0  0  0  0  0  0  0  0
   -0.8222    1.1334    3.8425 C   0  0  0  0  0  0  0  0  0  0  0  0
   -0.0212    1.8761    3.8521 H   0  0  0  0  0  0  0  0  0  0  0  0
   -1.7349    1.5853    4.2320 H   0  0  0  0  0  0  0  0  0  0  0  0
   -0.5312    0.2997    4.4834 H   0  0  0  0  0  0  0  0  0  0  0  0
  5  6  2  0  0  0  0
  5  7  1  0  0  0  0
  2  3  1  0  0  0  0
  2  4  1  0  0  0  0
  2  5  1  0  0  0  0
  1  2  1  0  0  0  0
 22 23  2  0  0  0  0
 22 24  1  0  0  0  0
 20 21  1  0  0  0  0
 19 20  1  0  0  0  0
 17 18  1  0  0  0  0
 17 19  2  0  0  0  0
 15 16  1  0  0  0  0
 15 17  1  0  0  0  0
 14 15  1  0  0  0  0
 14 20  2  0  0  0  0
 11 12  1  0  0  0  0
 11 13  1  0  0  0  0
 11 14  1  0  0  0  0
  9 10  1  0  0  0  0
  9 11  1  0  0  0  0
  9 22  1  0  0  0  0
  7  8  1  0  0  0  0
  7  9  1  0  0  0  0
 26 27  1  0  0  0  0
 26 28  1  0  0  0  0
 26 29  1  0  0  0  0
 24 25  1  0  0  0  0
 24 26  1  0  0  0  0
M  END
$$$$
default_name
  -OEChem-02102213163D

 29 29  0     1  0  0  0  0  0999 V2000
   -3.6042   -3.5728    1.4576 H   0  0  0  0  0  0  0  0  0  0  0  0
   -3.5202   -2.6488    0.8866 C   0  0  0  0  0  0  0  0  0  0  0  0
   -4.2052   -1.9048    1.2896 H   0  0  0  0  0  0  0  0  0  0  0  0
   -3.7552   -2.8428   -0.1584 H   0  0  0  0  0  0  0  0  0  0  0  0
   -2.1052   -2.1358    0.9946 C   0  0  0  0  0  0  0  0  0  0  0  0
   -1.2852   -2.7288    1.6826 O   0  0  0  0  0  0  0  0  0  0  0  0
   -1.8202   -1.0288    0.3146 N   0  0  0  0  0  0  0  0  0  0  0  0
   -2.5542   -0.5788   -0.2104 H   0  0  0  0  0  0  0  0  0  0  0  0
   -0.5102   -0.3728    0.3086 C   0  0  1  0  0  0  0  0  0  0  0  0
    0.2354   -1.0844   -0.0490 H   0  0  0  0  0  0  0  0  0  0  0  0
   -0.5452    0.8158   -0.6698 C   0  0  0  0  0  0  0  0  0  0  0  0
   -1.2686    0.6070   -1.4600 H   0  0  0  0  0  0  0  0  0  0  0  0
   -0.8799    1.7068   -0.1353 H   0  0  0  0  0  0  0  0  0  0  0  0
    0.7877    1.1129   -1.3065 C   0  0  0  0  0  0  0  0  0  0  0  0
    1.8630    1.7258   -0.7000 N   0  0  0  0  0  0  0  0  0  0  0  0
    1.8751    2.1259    0.2263 H   0  0  0  0  0  0  0  0  0  0  0  0
    2.8943    1.7032   -1.5610 C   0  0  0  0  0  0  0  0  0  0  0  0
    3.8775    2.1161   -1.3712 H   0  0  0  0  0  0  0  0  0  0  0  0
    2.5364    1.0892   -2.6982 N   0  0  0  0  0  0  0  0  0  0  0  0
    1.1988    0.7134   -2.5502 C   0  0  0  0  0  0  0  0  0  0  0  0
    0.6036    0.1710   -3.2734 H   0  0  0  0  0  0  0  0  0  0  0  0
   -0.1073    0.0565    1.7296 C   0  0  0  0  0  0  0  0  0  0  0  0
    1.0285   -0.1699    2.1459 O   0  0  0  0  0  0  0  0  0  0  0  0
   -1.0395    0.6588    2.4785 N   0  0  0  0  0  0  0  0  0  0  0  0
   -1.9636    0.7597    2.0849 H   0  0  0  0  0  0  0  0  0  0  0  0
   -0.8222    1.1334    3.8425 C   0  0  0  0  0  0  0  0  0  0  0  0
   -0.0212    1.8761    3.8521 H   0  0  0  0  0  0  0  0  0  0  0  0
   -1.7349    1.5853    4.2320 H   0  0  0  0  0  0  0  0  0  0  0  0
   -0.5312    0.2997    4.4834 H   0  0  0  0  0  0  0  0  0  0  0  0
  5  6  2  0  0  0  0
  5  7  1  0  0  0  0
  2  3  1  0  0  0  0
  2  4  1  0  0  0  0
  2  5  1  0  0  0  0
  1  2  1  0  0  0  0
 22 23  2  0  0  0  0
 22 24  1  0  0  0  0
 20 21  1  0  0  0  0
 19 20  1  0  0  0  0
 17 18  1  0  0  0  0
 17 19  2  0  0  0  0
 15 16  1  0  0  0  0
 15 17  1  0  0  0  0
 14 15  1  0  0  0  0
 14 20  2  0  0  0  0
 11 12  1  0  0  0  0
 11 13  1  0  0  0  0
 11 14  1  0  0  0  0
  9 10  1  0  0  0  0
  9 11  1  0  0  0  0
  9 22  1  0  0  0  0
  7  8  1  0  0  0  0
  7  9  1  0  0  0  0
 26 27  1  0  0  0  0
 26 28  1  0  0  0  0
 26 29  1  0  0  0  0
 24 25  1  0  0  0  0
 24 26  1  0  0  0  0
M  END
$$$$
default_name
  -OEChem-02102213163D

 29 29  0     1  0  0  0  0  0999 V2000
   -3.6042   -3.5728    1.4576 H   0  0  0  0  0  0  0  0  0  0  0  0
   -3.5202   -2.6488    0.8866 C   0  0  0  0  0  0  0  0  0  0  0  0
   -4.2052   -1.9048    1.2896 H   0  0  0  0  0  0  0  0  0  0  0  0
   -3.7552   -2.8428   -0.1584 H   0  0  0  0  0  0  0  0  0  0  0  0
   -2.1052   -2.1358    0.9946 C   0  0  0  0  0  0  0  0  0  0  0  0
   -1.2852   -2.7288    1.6826 O   0  0  0  0  0  0  0  0  0  0  0  0
   -1.8202   -1.0288    0.3146 N   0  0  0  0  0  0  0  0  0  0  0  0
   -2.5542   -0.5788   -0.2104 H   0  0  0  0  0  0  0  0  0  0  0  0
   -0.5102   -0.3728    0.3086 C   0  0  1  0  0  0  0  0  0  0  0  0
    0.2354   -1.0844   -0.0490 H   0  0  0  0  0  0  0  0  0  0  0  0
   -0.5452    0.8158   -0.6698 C   0  0  0  0  0  0  0  0  0  0  0  0
   -1.2686    0.6070   -1.4600 H   0  0  0  0  0  0  0  0  0  0  0  0
   -0.8799    1.7068   -0.1353 H   0  0  0  0  0  0  0  0  0  0  0  0
    0.7877    1.1129   -1.3065 C   0  0  0  0  0  0  0  0  0  0  0  0
    1.9490    1.4539   -0.6469 N   0  0  0  0  0  0  0  0  0  0  0  0
    2.0426    1.6249    0.3431 H   0  0  0  0  0  0  0  0  0  0  0  0
    2.9370    1.5249   -1.5547 C   0  0  0  0  0  0  0  0  0  0  0  0
    3.9678    1.7787   -1.3395 H   0  0  0  0  0  0  0  0  0  0  0  0
    2.4675    1.2317   -2.7761 N   0  0  0  0  0  0  0  0  0  0  0  0
    1.1020    0.9722   -2.6319 C   0  0  0  0  0  0  0  0  0  0  0  0
    0.4211    0.6768   -3.4196 H   0  0  0  0  0  0  0  0  0  0  0  0
   -0.1073    0.0565    1.7296 C   0  0  0  0  0  0  0  0  0  0  0  0
    1.0285   -0.1699    2.1459 O   0  0  0  0  0  0  0  0  0  0  0  0
   -1.0395    0.6588    2.4785 N   0  0  0  0  0  0  0  0  0  0  0  0
   -1.9636    0.7597    2.0849 H   0  0  0  0  0  0  0  0  0  0  0  0
   -0.8222    1.1334    3.8425 C   0  0  0  0  0  0  0  0  0  0  0  0
   -0.0212    1.8761    3.8521 H   0  0  0  0  0  0  0  0  0  0  0  0
   -1.7349    1.5853    4.2320 H   0  0  0  0  0  0  0  0  0  0  0  0
   -0.5312    0.2997    4.4834 H   0  0  0  0  0  0  0  0  0  0  0  0
  5  6  2  0  0  0  0
  5  7  1  0  0  0  0
  2  3  1  0  0  0  0
  2  4  1  0  0  0  0
  2  5  1  0  0  0  0
  1  2  1  0  0  0  0
 22 23  2  0  0  0  0
 22 24  1  0  0  0  0
 20 21  1  0  0  0  0
 19 20  1  0  0  0  0
 17 18  1  0  0  0  0
 17 19  2  0  0  0  0
 15 16  1  0  0  0  0
 15 17  1  0  0  0  0
 14 15  1  0  0  0  0
 14 20  2  0  0  0  0
 11 12  1  0  0  0  0
 11 13  1  0  0  0  0
 11 14  1  0  0  0  0
  9 10  1  0  0  0  0
  9 11  1  0  0  0  0
  9 22  1  0  0  0  0
  7  8  1  0  0  0  0
  7  9  1  0  0  0  0
 26 27  1  0  0  0  0
 26 28  1  0  0  0  0
 26 29  1  0  0  0  0
 24 25  1  0  0  0  0
 24 26  1  0  0  0  0
M  END
$$$$
default_name
  -OEChem-02102213163D

 29 29  0     1  0  0  0  0  0999 V2000
   -3.6042   -3.5728    1.4576 H   0  0  0  0  0  0  0  0  0  0  0  0
   -3.5202   -2.6488    0.8866 C   0  0  0  0  0  0  0  0  0  0  0  0
   -4.2052   -1.9048    1.2896 H   0  0  0  0  0  0  0  0  0  0  0  0
   -3.7552   -2.8428   -0.1584 H   0  0  0  0  0  0  0  0  0  0  0  0
   -2.1052   -2.1358    0.9946 C   0  0  0  0  0  0  0  0  0  0  0  0
   -1.2852   -2.7288    1.6826 O   0  0  0  0  0  0  0  0  0  0  0  0
   -1.8202   -1.0288    0.3146 N   0  0  0  0  0  0  0  0  0  0  0  0
   -2.5542   -0.5788   -0.2104 H   0  0  0  0  0  0  0  0  0  0  0  0
   -0.5102   -0.3728    0.3086 C   0  0  1  0  0  0  0  0  0  0  0  0
    0.2354   -1.0844   -0.0490 H   0  0  0  0  0  0  0  0  0  0  0  0
   -0.5452    0.8158   -0.6698 C   0  0  0  0  0  0  0  0  0  0  0  0
   -1.2686    0.6070   -1.4600 H   0  0  0  0  0  0  0  0  0  0  0  0
   -0.8799    1.7068   -0.1353 H   0  0  0  0  0  0  0  0  0  0  0  0
    0.7877    1.1129   -1.3065 C   0  0  0  0  0  0  0  0  0  0  0  0
    2.0050    1.1698   -0.6623 N   0  0  0  0  0  0  0  0  0  0  0  0
    2.1555    1.0960    0.3327 H   0  0  0  0  0  0  0  0  0  0  0  0
    2.9591    1.3466   -1.5916 C   0  0  0  0  0  0  0  0  0  0  0  0
    4.0198    1.4356   -1.3908 H   0  0  0  0  0  0  0  0  0  0  0  0
    2.4124    1.3947   -2.8152 N   0  0  0  0  0  0  0  0  0  0  0  0
    1.0327    1.2515   -2.6467 C   0  0  0  0  0  0  0  0  0  0  0  0
    0.2926    1.2188   -3.4357 H   0  0  0  0  0  0  0  0  0  0  0  0
   -0.1073    0.0565    1.7296 C   0  0  0  0  0  0  0  0  0  0  0  0
    1.0285   -0.1699    2.1459 O   0  0  0  0  0  0  0  0  0  0  0  0
   -1.0395    0.6588    2.4785 N   0  0  0  0  0  0  0  0  0  0  0  0
   -1.9636    0.7597    2.0849 H   0  0  0  0  0  0  0  0  0  0  0  0
   -0.8222    1.1334    3.8425 C   0  0  0  0  0  0  0  0  0  0  0  0
   -0.0212    1.8761    3.8521 H   0  0  0  0  0  0  0  0  0  0  0  0
   -1.7349    1.5853    4.2320 H   0  0  0  0  0  0  0  0  0  0  0  0
   -0.5312    0.2997    4.4834 H   0  0  0  0  0  0  0  0  0  0  0  0
  5  6  2  0  0  0  0
  5  7  1  0  0  0  0
  2  3  1  0  0  0  0
  2  4  1  0  0  0  0
  2  5  1  0  0  0  0
  1  2  1  0  0  0  0
 22 23  2  0  0  0  0
 22 24  1  0  0  0  0
 20 21  1  0  0  0  0
 19 20  1  0  0  0  0
 17 18  1  0  0  0  0
 17 19  2  0  0  0  0
 15 16  1  0  0  0  0
 15 17  1  0  0  0  0
 14 15  1  0  0  0  0
 14 20  2  0  0  0  0
 11 12  1  0  0  0  0
 11 13  1  0  0  0  0
 11 14  1  0  0  0  0
  9 10  1  0  0  0  0
  9 11  1  0  0  0  0
  9 22  1  0  0  0  0
  7  8  1  0  0  0  0
  7  9  1  0  0  0  0
 26 27  1  0  0  0  0
 26 28  1  0  0  0  0
 26 29  1  0  0  0  0
 24 25  1  0  0  0  0
 24 26  1  0  0  0  0
M  END
$$$$
default_name
  -OEChem-02102213163D

 29 29  0     1  0  0  0  0  0999 V2000
   -3.6042   -3.5728    1.4576 H   0  0  0  0  0  0  0  0  0  0  0  0
   -3.5202   -2.6488    0.8866 C   0  0  0  0  0  0  0  0  0  0  0  0
   -4.2052   -1.9048    1.2896 H   0  0  0  0  0  0  0  0  0  0  0  0
   -3.7552   -2.8428   -0.1584 H   0  0  0  0  0  0  0  0  0  0  0  0
   -2.1052   -2.1358    0.9946 C   0  0  0  0  0  0  0  0  0  0  0  0
   -1.2852   -2.7288    1.6826 O   0  0  0  0  0  0  0  0  0  0  0  0
   -1.8202   -1.0288    0.3146 N   0  0  0  0  0  0  0  0  0  0  0  0
   -2.5542   -0.5788   -0.2104 H   0  0  0  0  0  0  0  0  0  0  0  0
   -0.5102   -0.3728    0.3086 C   0  0  1  0  0  0  0  0  0  0  0  0
    0.2354   -1.0844   -0.0490 H   0  0  0  0  0  0  0  0  0  0  0  0
   -0.5452    0.8158   -0.6698 C   0  0  0  0  0  0  0  0  0  0  0  0
   -1.2686    0.6070   -1.4600 H   0  0  0  0  0  0  0  0  0  0  0  0
   -0.8799    1.7068   -0.1353 H   0  0  0  0  0  0  0  0  0  0  0  0
    0.7877    1.1129   -1.3065 C   0  0  0  0  0  0  0  0  0  0  0  0
    2.0272    0.8927   -0.7451 N   0  0  0  0  0  0  0  0  0  0  0  0
    2.2062    0.5751    0.1958 H   0  0  0  0  0  0  0  0  0  0  0  0
    2.9591    1.1805   -1.6693 C   0  0  0  0  0  0  0  0  0  0  0  0
    4.0298    1.1103   -1.5216 H   0  0  0  0  0  0  0  0  0  0  0  0
    2.3751    1.5671   -2.8129 N   0  0  0  0  0  0  0  0  0  0  0  0
    0.9956    1.5323   -2.5935 C   0  0  0  0  0  0  0  0  0  0  0  0
    0.2269    1.7600   -3.3206 H   0  0  0  0  0  0  0  0  0  0  0  0
   -0.1073    0.0565    1.7296 C   0  0  0  0  0  0  0  0  0  0  0  0
    1.0285   -0.1699    2.1459 O   0  0  0  0  0  0  0  0  0  0  0  0
   -1.0395    0.6588    2.4785 N   0  0  0  0  0  0  0  0  0  0  0  0
   -1.9636    0.7597    2.0849 H   0  0  0  0  0  0  0  0  0  0  0  0
   -0.8222    1.1334    3.8425 C   0  0  0  0  0  0  0  0  0  0  0  0
   -0.0212    1.8761    3.8521 H   0  0  0  0  0  0  0  0  0  0  0  0
   -1.7349    1.5853    4.2320 H   0  0  0  0  0  0  0  0  0  0  0  0
   -0.5312    0.2997    4.4834 H   0  0  0  0  0  0  0  0  0  0  0  0
  5  6  2  0  0  0  0
  5  7  1  0  0  0  0
  2  3  1  0  0  0  0
  2  4  1  0  0  0  0
  2  5  1  0  0  0  0
  1  2  1  0  0  0  0
 22 23  2  0  0  0  0
 22 24  1  0  0  0  0
 20 21  1  0  0  0  0
 19 20  1  0  0  0  0
 17 18  1  0  0  0  0
 17 19  2  0  0  0  0
 15 16  1  0  0  0  0
 15 17  1  0  0  0  0
 14 15  1  0  0  0  0
 14 20  2  0  0  0  0
 11 12  1  0  0  0  0
 11 13  1  0  0  0  0
 11 14  1  0  0  0  0
  9 10  1  0  0  0  0
  9 11  1  0  0  0  0
  9 22  1  0  0  0  0
  7  8  1  0  0  0  0
  7  9  1  0  0  0  0
 26 27  1  0  0  0  0
 26 28  1  0  0  0  0
 26 29  1  0  0  0  0
 24 25  1  0  0  0  0
 24 26  1  0  0  0  0
M  END
$$$$
default_name
  -OEChem-02102213163D

 29 29  0     1  0  0  0  0  0999 V2000
   -3.6042   -3.5728    1.4576 H   0  0  0  0  0  0  0  0  0  0  0  0
   -3.5202   -2.6488    0.8866 C   0  0  0  0  0  0  0  0  0  0  0  0
   -4.2052   -1.9048    1.2896 H   0  0  0  0  0  0  0  0  0  0  0  0
   -3.7552   -2.8428   -0.1584 H   0  0  0  0  0  0  0  0  0  0  0  0
   -2.1052   -2.1358    0.9946 C   0  0  0  0  0  0  0  0  0  0  0  0
   -1.2852   -2.7288    1.6826 O   0  0  0  0  0  0  0  0  0  0  0  0
   -1.8202   -1.0288    0.3146 N   0  0  0  0  0  0  0  0  0  0  0  0
   -2.5542   -0.5788   -0.2104 H   0  0  0  0  0  0  0  0  0  0  0  0
   -0.5102   -0.3728    0.3086 C   0  0  1  0  0  0  0  0  0  0  0  0
    0.2354   -1.0844   -0.0490 H   0  0  0  0  0  0  0  0  0  0  0  0
   -0.5452    0.8158   -0.6698 C   0  0  0  0  0  0  0  0  0  0  0  0
   -1.2686    0.6070   -1.4600 H   0  0  0  0  0  0  0  0  0  0  0  0
   -0.8799    1.7068   -0.1353 H   0  0  0  0  0  0  0  0  0  0  0  0
    0.7877    1.1129   -1.3065 C   0  0  0  0  0  0  0  0  0  0  0  0
    2.0141    0.6415   -0.8896 N   0  0  0  0  0  0  0  0  0  0  0  0
    2.1912    0.0978   -0.0583 H   0  0  0  0  0  0  0  0  0  0  0  0
    2.9369    1.0378   -1.7823 C   0  0  0  0  0  0  0  0  0  0  0  0
    3.9973    0.8249   -1.7229 H   0  0  0  0  0  0  0  0  0  0  0  0
    2.3581    1.7372   -2.7692 N   0  0  0  0  0  0  0  0  0  0  0  0
    0.9931    1.7953   -2.4759 C   0  0  0  0  0  0  0  0  0  0  0  0
    0.2286    2.2637   -3.0821 H   0  0  0  0  0  0  0  0  0  0  0  0
   -0.1073    0.0565    1.7296 C   0  0  0  0  0  0  0  0  0  0  0  0
    1.0285   -0.1699    2.1459 O   0  0  0  0  0  0  0  0  0  0  0  0
   -1.0395    0.6588    2.4785 N   0  0  0  0  0  0  0  0  0  0  0  0
   -1.9636    0.7597    2.0849 H   0  0  0  0  0  0  0  0  0  0  0  0
   -0.8222    1.1334    3.8425 C   0  0  0  0  0  0  0  0  0  0  0  0
   -0.0212    1.8761    3.8521 H   0  0  0  0  0  0  0  0  0  0  0  0
   -1.7349    1.5853    4.2320 H   0  0  0  0  0  0  0  0  0  0  0  0
   -0.5312    0.2997    4.4834 H   0  0  0  0  0  0  0  0  0  0  0  0
  5  6  2  0  0  0  0
  5  7  1  0  0  0  0
  2  3  1  0  0  0  0
  2  4  1  0  0  0  0
  2  5  1  0  0  0  0
  1  2  1  0  0  0  0
 22 23  2  0  0  0  0
 22 24  1  0  0  0  0
 20 21  1  0  0  0  0
 19 20  1  0  0  0  0
 17 18  1  0  0  0  0
 17 19  2  0  0  0  0
 15 16  1  0  0  0  0
 15 17  1  0  0  0  0
 14 15  1  0  0  0  0
 14 20  2  0  0  0  0
 11 12  1  0  0  0  0
 11 13  1  0  0  0  0
 11 14  1  0  0  0  0
  9 10  1  0  0  0  0
  9 11  1  0  0  0  0
  9 22  1  0  0  0  0
  7  8  1  0  0  0  0
  7  9  1  0  0  0  0
 26 27  1  0  0  0  0
 26 28  1  0  0  0  0
 26 29  1  0  0  0  0
 24 25  1  0  0  0  0
 24 26  1  0  0  0  0
M  END
$$$$
default_name
  -OEChem-02102213163D

 29 29  0     1  0  0  0  0  0999 V2000
   -3.6042   -3.5728    1.4576 H   0  0  0  0  0  0  0  0  0  0  0  0
   -3.5202   -2.6488    0.8866 C   0  0  0  0  0  0  0  0  0  0  0  0
   -4.2052   -1.9048    1.2896 H   0  0  0  0  0  0  0  0  0  0  0  0
   -3.7552   -2.8428   -0.1584 H   0  0  0  0  0  0  0  0  0  0  0  0
   -2.1052   -2.1358    0.9946 C   0  0  0  0  0  0  0  0  0  0  0  0
   -1.2852   -2.7288    1.6826 O   0  0  0  0  0  0  0  0  0  0  0  0
   -1.8202   -1.0288    0.3146 N   0  0  0  0  0  0  0  0  0  0  0  0
   -2.5542   -0.5788   -0.2104 H   0  0  0  0  0  0  0  0  0  0  0  0
   -0.5102   -0.3728    0.3086 C   0  0  1  0  0  0  0  0  0  0  0  0
    0.2354   -1.0844   -0.0490 H   0  0  0  0  0  0  0  0  0  0  0  0
   -0.5452    0.8158   -0.6698 C   0  0  0  0  0  0  0  0  0  0  0  0
   -1.2686    0.6070   -1.4600 H   0  0  0  0  0  0  0  0  0  0  0  0
   -0.8799    1.7068   -0.1353 H   0  0  0  0  0  0  0  0  0  0  0  0
    0.7877    1.1129   -1.3065 C   0  0  0  0  0  0  0  0  0  0  0  0
    1.9666    0.4335   -1.0861 N   0  0  0  0  0  0  0  0  0  0  0  0
    2.1115   -0.3035   -0.4123 H   0  0  0  0  0  0  0  0  0  0  0  0
    2.8941    0.9282   -1.9230 C   0  0  0  0  0  0  0  0  0  0  0  0
    3.9243    0.5988   -1.9810 H   0  0  0  0  0  0  0  0  0  0  0  0
    2.3624    1.8934   -2.6872 N   0  0  0  0  0  0  0  0  0  0  0  0
    1.0255    2.0228   -2.3019 C   0  0  0  0  0  0  0  0  0  0  0  0
    0.2975    2.6954   -2.7366 H   0  0  0  0  0  0  0  0  0  0  0  0
   -0.1073    0.0565    1.7296 C   0  0  0  0  0  0  0  0  0  0  0  0
    1.0285   -0.1699    2.1459 O   0  0  0  0  0  0  0  0  0  0  0  0
   -1.0395    0.6588    2.4785 N   0  0  0  0  0  0  0  0  0  0  0  0
   -1.9636    0.7597    2.0849 H   0  0  0  0  0  0  0  0  0  0  0  0
   -0.8222    1.1334    3.8425 C   0  0  0  0  0  0  0  0  0  0  0  0
   -0.0212    1.8761    3.8521 H   0  0  0  0  0  0  0  0  0  0  0  0
   -1.7349    1.5853    4.2320 H   0  0  0  0  0  0  0  0  0  0  0  0
   -0.5312    0.2997    4.4834 H   0  0  0  0  0  0  0  0  0  0  0  0
  5  6  2  0  0  0  0
  5  7  1  0  0  0  0
  2  3  1  0  0  0  0
  2  4  1  0  0  0  0
  2  5  1  0  0  0  0
  1  2  1  0  0  0  0
 22 23  2  0  0  0  0
 22 24  1  0  0  0  0
 20 21  1  0  0  0  0
 19 20  1  0  0  0  0
 17 18  1  0  0  0  0
 17 19  2  0  0  0  0
 15 16  1  0  0  0  0
 15 17  1  0  0  0  0
 14 15  1  0  0  0  0
 14 20  2  0  0  0  0
 11 12  1  0  0  0  0
 11 13  1  0  0  0  0
 11 14  1  0  0  0  0
  9 10  1  0  0  0  0
  9 11  1  0  0  0  0
  9 22  1  0  0  0  0
  7  8  1  0  0  0  0
  7  9  1  0  0  0  0
 26 27  1  0  0  0  0
 26 28  1  0  0  0  0
 26 29  1  0  0  0  0
 24 25  1  0  0  0  0
 24 26  1  0  0  0  0
M  END
$$$$
default_name
  -OEChem-02102213163D

 29 29  0     1  0  0  0  0  0999 V2000
   -3.6042   -3.5728    1.4576 H   0  0  0  0  0  0  0  0  0  0  0  0
   -3.5202   -2.6488    0.8866 C   0  0  0  0  0  0  0  0  0  0  0  0
   -4.2052   -1.9048    1.2896 H   0  0  0  0  0  0  0  0  0  0  0  0
   -3.7552   -2.8428   -0.1584 H   0  0  0  0  0  0  0  0  0  0  0  0
   -2.1052   -2.1358    0.9946 C   0  0  0  0  0  0  0  0  0  0  0  0
   -1.2852   -2.7288    1.6826 O   0  0  0  0  0  0  0  0  0  0  0  0
   -1.8202   -1.0288    0.3146 N   0  0  0  0  0  0  0  0  0  0  0  0
   -2.5542   -0.5788   -0.2104 H   0  0  0  0  0  0  0  0  0  0  0  0
   -0.5102   -0.3728    0.3086 C   0  0  1  0  0  0  0  0  0  0  0  0
    0.2354   -1.0844   -0.0490 H   0  0  0  0  0  0  0  0  0  0  0  0
   -0.5452    0.8158   -0.6698 C   0  0  0  0  0  0  0  0  0  0  0  0
   -1.2686    0.6070   -1.4600 H   0  0  0  0  0  0  0  0  0  0  0  0
   -0.8799    1.7068   -0.1353 H   0  0  0  0  0  0  0  0  0  0  0  0
    0.7877    1.1129   -1.3065 C   0  0  0  0  0  0  0  0  0  0  0  0
    1.8880    0.2827   -1.3210 N   0  0  0  0  0  0  0  0  0  0  0  0
    1.9726   -0.6013   -0.8420 H   0  0  0  0  0  0  0  0  0  0  0  0
    2.8336    0.8593   -2.0818 C   0  0  0  0  0  0  0  0  0  0  0  0
    3.8160    0.4476   -2.2784 H   0  0  0  0  0  0  0  0  0  0  0  0
    2.3879    2.0250   -2.5725 N   0  0  0  0  0  0  0  0  0  0  0  0
    1.0906    2.1991   -2.0835 C   0  0  0  0  0  0  0  0  0  0  0  0
    0.4288    3.0258   -2.3075 H   0  0  0  0  0  0  0  0  0  0  0  0
   -0.1073    0.0565    1.7296 C   0  0  0  0  0  0  0  0  0  0  0  0
    1.0285   -0.1699    2.1459 O   0  0  0  0  0  0  0  0  0  0  0  0
   -1.0395    0.6588    2.4785 N   0  0  0  0  0  0  0  0  0  0  0  0
   -1.9636    0.7597    2.0849 H   0  0  0  0  0  0  0  0  0  0  0  0
   -0.8222    1.1334    3.8425 C   0  0  0  0  0  0  0  0  0  0  0  0
   -0.0212    1.8761    3.8521 H   0  0  0  0  0  0  0  0  0  0  0  0
   -1.7349    1.5853    4.2320 H   0  0  0  0  0  0  0  0  0  0  0  0
   -0.5312    0.2997    4.4834 H   0  0  0  0  0  0  0  0  0  0  0  0
  5  6  2  0  0  0  0
  5  7  1  0  0  0  0
  2  3  1  0  0  0  0
  2  4  1  0  0  0  0
  2  5  1  0  0  0  0
  1  2  1  0  0  0  0
 22 23  2  0  0  0  0
 22 24  1  0  0  0  0
 20 21  1  0  0  0  0
 19 20  1  0  0  0  0
 17 18  1  0  0  0  0
 17 19  2  0  0  0  0
 15 16  1  0  0  0  0
 15 17  1  0  0  0  0
 14 15  1  0  0  0  0
 14 20  2  0  0  0  0
 11 12  1  0  0  0  0
 11 13  1  0  0  0  0
 11 14  1  0  0  0  0
  9 10  1  0  0  0  0
  9 11  1  0  0  0  0
  9 22  1  0  0  0  0
  7  8  1  0  0  0  0
  7  9  1  0  0  0  0
 26 27  1  0  0  0  0
 26 28  1  0  0  0  0
 26 29  1  0  0  0  0
 24 25  1  0  0  0  0
 24 26  1  0  0  0  0
M  END
$$$$
default_name
  -OEChem-02102213163D

 29 29  0     1  0  0  0  0  0999 V2000
   -3.6042   -3.5728    1.4576 H   0  0  0  0  0  0  0  0  0  0  0  0
   -3.5202   -2.6488    0.8866 C   0  0  0  0  0  0  0  0  0  0  0  0
   -4.2052   -1.9048    1.2896 H   0  0  0  0  0  0  0  0  0  0  0  0
   -3.7552   -2.8428   -0.1584 H   0  0  0  0  0  0  0  0  0  0  0  0
   -2.1052   -2.1358    0.9946 C   0  0  0  0  0  0  0  0  0  0  0  0
   -1.2852   -2.7288    1.6826 O   0  0  0  0  0  0  0  0  0  0  0  0
   -1.8202   -1.0288    0.3146 N   0  0  0  0  0  0  0  0  0  0  0  0
   -2.5542   -0.5788   -0.2104 H   0  0  0  0  0  0  0  0  0  0  0  0
   -0.5102   -0.3728    0.3086 C   0  0  1  0  0  0  0  0  0  0  0  0
    0.2354   -1.0844   -0.0490 H   0  0  0  0  0  0  0  0  0  0  0  0
   -0.5452    0.8158   -0.6698 C   0  0  0  0  0  0  0  0  0  0  0  0
   -1.2686    0.6070   -1.4600 H   0  0  0  0  0  0  0  0  0  0  0  0
   -0.8799    1.7068   -0.1353 H   0  0  0  0  0  0  0  0  0  0  0  0
    0.7877    1.1129   -1.3065 C   0  0  0  0  0  0  0  0  0  0  0  0
    1.7835    0.1994   -1.5785 N   0  0  0  0  0  0  0  0  0  0  0  0
    1.7839   -0.7754   -1.3182 H   0  0  0  0  0  0  0  0  0  0  0  0
    2.7595    0.8357   -2.2479 C   0  0  0  0  0  0  0  0  0  0  0  0
    3.6796    0.3814   -2.5947 H   0  0  0  0  0  0  0  0  0  0  0  0
    2.4328    2.1231   -2.4329 N   0  0  0  0  0  0  0  0  0  0  0  0
    1.1839    2.3123   -1.8354 C   0  0  0  0  0  0  0  0  0  0  0  0
    0.6138    3.2322   -1.8240 H   0  0  0  0  0  0  0  0  0  0  0  0
   -0.1073    0.0565    1.7296 C   0  0  0  0  0  0  0  0  0  0  0  0
    1.0285   -0.1699    2.1459 O   0  0  0  0  0  0  0  0  0  0  0  0
   -1.0395    0.6588    2.4785 N   0  0  0  0  0  0  0  0  0  0  0  0
   -1.9636    0.7597    2.0849 H   0  0  0  0  0  0  0  0  0  0  0  0
   -0.8222    1.1334    3.8425 C   0  0  0  0  0  0  0  0  0  0  0  0
   -0.0212    1.8761    3.8521 H   0  0  0  0  0  0  0  0  0  0  0  0
   -1.7349    1.5853    4.2320 H   0  0  0  0  0  0  0  0  0  0  0  0
   -0.5312    0.2997    4.4834 H   0  0  0  0  0  0  0  0  0  0  0  0
  5  6  2  0  0  0  0
  5  7  1  0  0  0  0
  2  3  1  0  0  0  0
  2  4  1  0  0  0  0
  2  5  1  0  0  0  0
  1  2  1  0  0  0  0
 22 23  2  0  0  0  0
 22 24  1  0  0  0  0
 20 21  1  0  0  0  0
 19 20  1  0  0  0  0
 17 18  1  0  0  0  0
 17 19  2  0  0  0  0
 15 16  1  0  0  0  0
 15 17  1  0  0  0  0
 14 15  1  0  0  0  0
 14 20  2  0  0  0  0
 11 12  1  0  0  0  0
 11 13  1  0  0  0  0
 11 14  1  0  0  0  0
  9 10  1  0  0  0  0
  9 11  1  0  0  0  0
  9 22  1  0  0  0  0
  7  8  1  0  0  0  0
  7  9  1  0  0  0  0
 26 27  1  0  0  0  0
 26 28  1  0  0  0  0
 26 29  1  0  0  0  0
 24 25  1  0  0  0  0
 24 26  1  0  0  0  0
M  END
$$$$
default_name
  -OEChem-02102213163D

 29 29  0     1  0  0  0  0  0999 V2000
   -3.6042   -3.5728    1.4576 H   0  0  0  0  0  0  0  0  0  0  0  0
   -3.5202   -2.6488    0.8866 C   0  0  0  0  0  0  0  0  0  0  0  0
   -4.2052   -1.9048    1.2896 H   0  0  0  0  0  0  0  0  0  0  0  0
   -3.7552   -2.8428   -0.1584 H   0  0  0  0  0  0  0  0  0  0  0  0
   -2.1052   -2.1358    0.9946 C   0  0  0  0  0  0  0  0  0  0  0  0
   -1.2852   -2.7288    1.6826 O   0  0  0  0  0  0  0  0  0  0  0  0
   -1.8202   -1.0288    0.3146 N   0  0  0  0  0  0  0  0  0  0  0  0
   -2.5542   -0.5788   -0.2104 H   0  0  0  0  0  0  0  0  0  0  0  0
   -0.5102   -0.3728    0.3086 C   0  0  1  0  0  0  0  0  0  0  0  0
    0.2354   -1.0844   -0.0490 H   0  0  0  0  0  0  0  0  0  0  0  0
   -0.5452    0.8158   -0.6698 C   0  0  0  0  0  0  0  0  0  0  0  0
   -1.2686    0.6070   -1.4600 H   0  0  0  0  0  0  0  0  0  0  0  0
   -0.8799    1.7068   -0.1353 H   0  0  0  0  0  0  0  0  0  0  0  0
    0.7877    1.1129   -1.3065 C   0  0  0  0  0  0  0  0  0  0  0  0
    1.6604    0.1894   -1.8410 N   0  0  0  0  0  0  0  0  0  0  0  0
    1.5584   -0.8139   -1.8083 H   0  0  0  0  0  0  0  0  0  0  0  0
    2.6769    0.8590   -2.4100 C   0  0  0  0  0  0  0  0  0  0  0  0
    3.5245    0.4049   -2.9085 H   0  0  0  0  0  0  0  0  0  0  0  0
    2.4939    2.1809   -2.2778 N   0  0  0  0  0  0  0  0  0  0  0  0
    1.2990    2.3546   -1.5747 C   0  0  0  0  0  0  0  0  0  0  0  0
    0.8396    3.3008   -1.3192 H   0  0  0  0  0  0  0  0  0  0  0  0
   -0.1073    0.0565    1.7296 C   0  0  0  0  0  0  0  0  0  0  0  0
    1.0285   -0.1699    2.1459 O   0  0  0  0  0  0  0  0  0  0  0  0
   -1.0395    0.6588    2.4785 N   0  0  0  0  0  0  0  0  0  0  0  0
   -1.9636    0.7597    2.0849 H   0  0  0  0  0  0  0  0  0  0  0  0
   -0.8222    1.1334    3.8425 C   0  0  0  0  0  0  0  0  0  0  0  0
   -0.0212    1.8761    3.8521 H   0  0  0  0  0  0  0  0  0  0  0  0
   -1.7349    1.5853    4.2320 H   0  0  0  0  0  0  0  0  0  0  0  0
   -0.5312    0.2997    4.4834 H   0  0  0  0  0  0  0  0  0  0  0  0
  5  6  2  0  0  0  0
  5  7  1  0  0  0  0
  2  3  1  0  0  0  0
  2  4  1  0  0  0  0
  2  5  1  0  0  0  0
  1  2  1  0  0  0  0
 22 23  2  0  0  0  0
 22 24  1  0  0  0  0
 20 21  1  0  0  0  0
 19 20  1  0  0  0  0
 17 18  1  0  0  0  0
 17 19  2  0  0  0  0
 15 16  1  0  0  0  0
 15 17  1  0  0  0  0
 14 15  1  0  0  0  0
 14 20  2  0  0  0  0
 11 12  1  0  0  0  0
 11 13  1  0  0  0  0
 11 14  1  0  0  0  0
  9 10  1  0  0  0  0
  9 11  1  0  0  0  0
  9 22  1  0  0  0  0
  7  8  1  0  0  0  0
  7  9  1  0  0  0  0
 26 27  1  0  0  0  0
 26 28  1  0  0  0  0
 26 29  1  0  0  0  0
 24 25  1  0  0  0  0
 24 26  1  0  0  0  0
M  END
$$$$
default_name
  -OEChem-02102213163D

 29 29  0     1  0  0  0  0  0999 V2000
   -3.6042   -3.5728    1.4576 H   0  0  0  0  0  0  0  0  0  0  0  0
   -3.5202   -2.6488    0.8866 C   0  0  0  0  0  0  0  0  0  0  0  0
   -4.2052   -1.9048    1.2896 H   0  0  0  0  0  0  0  0  0  0  0  0
   -3.7552   -2.8428   -0.1584 H   0  0  0  0  0  0  0  0  0  0  0  0
   -2.1052   -2.1358    0.9946 C   0  0  0  0  0  0  0  0  0  0  0  0
   -1.2852   -2.7288    1.6826 O   0  0  0  0  0  0  0  0  0  0  0  0
   -1.8202   -1.0288    0.3146 N   0  0  0  0  0  0  0  0  0  0  0  0
   -2.5542   -0.5788   -0.2104 H   0  0  0  0  0  0  0  0  0  0  0  0
   -0.5102   -0.3728    0.3086 C   0  0  1  0  0  0  0  0  0  0  0  0
    0.2354   -1.0844   -0.0490 H   0  0  0  0  0  0  0  0  0  0  0  0
   -0.5452    0.8158   -0.6698 C   0  0  0  0  0  0  0  0  0  0  0  0
   -1.2686    0.6070   -1.4600 H   0  0  0  0  0  0  0  0  0  0  0  0
   -0.8799    1.7068   -0.1353 H   0  0  0  0  0  0  0  0  0  0  0  0
    0.7877    1.1129   -1.3065 C   0  0  0  0  0  0  0  0  0  0  0  0
    1.5270    0.2532   -2.0905 N   0  0  0  0  0  0  0  0  0  0  0  0
    1.3113   -0.7142   -2.2791 H   0  0  0  0  0  0  0  0  0  0  0  0
    2.5913    0.9277   -2.5570 C   0  0  0  0  0  0  0  0  0  0  0  0
    3.3612    0.5163   -3.1983 H   0  0  0  0  0  0  0  0  0  0  0  0
    2.5673    2.1946   -2.1179 N   0  0  0  0  0  0  0  0  0  0  0  0
    1.4281    2.3232   -1.3190 C   0  0  0  0  0  0  0  0  0  0  0  0
    1.0911    3.2267   -0.8275 H   0  0  0  0  0  0  0  0  0  0  0  0
   -0.1073    0.0565    1.7296 C   0  0  0  0  0  0  0  0  0  0  0  0
    1.0285   -0.1699    2.1459 O   0  0  0  0  0  0  0  0  0  0  0  0
   -1.0395    0.6588    2.4785 N   0  0  0  0  0  0  0  0  0  0  0  0
   -1.9636    0.7597    2.0849 H   0  0  0  0  0  0  0  0  0  0  0  0
   -0.8222    1.1334    3.8425 C   0  0  0  0  0  0  0  0  0  0  0  0
   -0.0212    1.8761    3.8521 H   0  0  0  0  0  0  0  0  0  0  0  0
   -1.7349    1.5853    4.2320 H   0  0  0  0  0  0  0  0  0  0  0  0
   -0.5312    0.2997    4.4834 H   0  0  0  0  0  0  0  0  0  0  0  0
  5  6  2  0  0  0  0
  5  7  1  0  0  0  0
  2  3  1  0  0  0  0
  2  4  1  0  0  0  0
  2  5  1  0  0  0  0
  1  2  1  0  0  0  0
 22 23  2  0  0  0  0
 22 24  1  0  0  0  0
 20 21  1  0  0  0  0
 19 20  1  0  0  0  0
 17 18  1  0  0  0  0
 17 19  2  0  0  0  0
 15 16  1  0  0  0  0
 15 17  1  0  0  0  0
 14 15  1  0  0  0  0
 14 20  2  0  0  0  0
 11 12  1  0  0  0  0
 11 13  1  0  0  0  0
 11 14  1  0  0  0  0
  9 10  1  0  0  0  0
  9 11  1  0  0  0  0
  9 22  1  0  0  0  0
  7  8  1  0  0  0  0
  7  9  1  0  0  0  0
 26 27  1  0  0  0  0
 26 28  1  0  0  0  0
 26 29  1  0  0  0  0
 24 25  1  0  0  0  0
 24 26  1  0  0  0  0
M  END
$$$$
default_name
  -OEChem-02102213163D

 29 29  0     1  0  0  0  0  0999 V2000
   -3.6042   -3.5728    1.4576 H   0  0  0  0  0  0  0  0  0  0  0  0
   -3.5202   -2.6488    0.8866 C   0  0  0  0  0  0  0  0  0  0  0  0
   -4.2052   -1.9048    1.2896 H   0  0  0  0  0  0  0  0  0  0  0  0
   -3.7552   -2.8428   -0.1584 H   0  0  0  0  0  0  0  0  0  0  0  0
   -2.1052   -2.1358    0.9946 C   0  0  0  0  0  0  0  0  0  0  0  0
   -1.2852   -2.7288    1.6826 O   0  0  0  0  0  0  0  0  0  0  0  0
   -1.8202   -1.0288    0.3146 N   0  0  0  0  0  0  0  0  0  0  0  0
   -2.5542   -0.5788   -0.2104 H   0  0  0  0  0  0  0  0  0  0  0  0
   -0.5102   -0.3728    0.3086 C   0  0  1  0  0  0  0  0  0  0  0  0
    0.2354   -1.0844   -0.0490 H   0  0  0  0  0  0  0  0  0  0  0  0
   -0.5452    0.8158   -0.6698 C   0  0  0  0  0  0  0  0  0  0  0  0
   -1.2686    0.6070   -1.4600 H   0  0  0  0  0  0  0  0  0  0  0  0
   -0.8799    1.7068   -0.1353 H   0  0  0  0  0  0  0  0  0  0  0  0
    0.7877    1.1129   -1.3065 C   0  0  0  0  0  0  0  0  0  0  0  0
    1.3924    0.3866   -2.3100 N   0  0  0  0  0  0  0  0  0  0  0  0
    1.0594   -0.4831   -2.6984 H   0  0  0  0  0  0  0  0  0  0  0  0
    2.5088    1.0371   -2.6788 C   0  0  0  0  0  0  0  0  0  0  0  0
    3.2009    0.7082   -3.4443 H   0  0  0  0  0  0  0  0  0  0  0  0
    2.6478    2.1632   -1.9641 N   0  0  0  0  0  0  0  0  0  0  0  0
    1.5625    2.2203   -1.0858 C   0  0  0  0  0  0  0  0  0  0  0  0
    1.3509    3.0150   -0.3822 H   0  0  0  0  0  0  0  0  0  0  0  0
   -0.1073    0.0565    1.7296 C   0  0  0  0  0  0  0  0  0  0  0  0
    1.0285   -0.1699    2.1459 O   0  0  0  0  0  0  0  0  0  0  0  0
   -1.0395    0.6588    2.4785 N   0  0  0  0  0  0  0  0  0  0  0  0
   -1.9636    0.7597    2.0849 H   0  0  0  0  0  0  0  0  0  0  0  0
   -0.8222    1.1334    3.8425 C   0  0  0  0  0  0  0  0  0  0  0  0
   -0.0212    1.8761    3.8521 H   0  0  0  0  0  0  0  0  0  0  0  0
   -1.7349    1.5853    4.2320 H   0  0  0  0  0  0  0  0  0  0  0  0
   -0.5312    0.2997    4.4834 H   0  0  0  0  0  0  0  0  0  0  0  0
  5  6  2  0  0  0  0
  5  7  1  0  0  0  0
  2  3  1  0  0  0  0
  2  4  1  0  0  0  0
  2  5  1  0  0  0  0
  1  2  1  0  0  0  0
 22 23  2  0  0  0  0
 22 24  1  0  0  0  0
 20 21  1  0  0  0  0
 19 20  1  0  0  0  0
 17 18  1  0  0  0  0
 17 19  2  0  0  0  0
 15 16  1  0  0  0  0
 15 17  1  0  0  0  0
 14 15  1  0  0  0  0
 14 20  2  0  0  0  0
 11 12  1  0  0  0  0
 11 13  1  0  0  0  0
 11 14  1  0  0  0  0
  9 10  1  0  0  0  0
  9 11  1  0  0  0  0
  9 22  1  0  0  0  0
  7  8  1  0  0  0  0
  7  9  1  0  0  0  0
 26 27  1  0  0  0  0
 26 28  1  0  0  0  0
 26 29  1  0  0  0  0
 24 25  1  0  0  0  0
 24 26  1  0  0  0  0
M  END
$$$$
default_name
  -OEChem-02102213163D

 29 29  0     1  0  0  0  0  0999 V2000
   -3.6042   -3.5728    1.4576 H   0  0  0  0  0  0  0  0  0  0  0  0
   -3.5202   -2.6488    0.8866 C   0  0  0  0  0  0  0  0  0  0  0  0
   -4.2052   -1.9048    1.2896 H   0  0  0  0  0  0  0  0  0  0  0  0
   -3.7552   -2.8428   -0.1584 H   0  0  0  0  0  0  0  0  0  0  0  0
   -2.1052   -2.1358    0.9946 C   0  0  0  0  0  0  0  0  0  0  0  0
   -1.2852   -2.7288    1.6826 O   0  0  0  0  0  0  0  0  0  0  0  0
   -1.8202   -1.0288    0.3146 N   0  0  0  0  0  0  0  0  0  0  0  0
   -2.5542   -0.5788   -0.2104 H   0  0  0  0  0  0  0  0  0  0  0  0
   -0.5102   -0.3728    0.3086 C   0  0  1  0  0  0  0  0  0  0  0  0
    0.2354   -1.0844   -0.0490 H   0  0  0  0  0  0  0  0  0  0  0  0
   -0.5452    0.8158   -0.6698 C   0  0  0  0  0  0  0  0  0  0  0  0
   -1.2686    0.6070   -1.4600 H   0  0  0  0  0  0  0  0  0  0  0  0
   -0.8799    1.7068   -0.1353 H   0  0  0  0  0  0  0  0  0  0  0  0
    0.7877    1.1129   -1.3065 C   0  0  0  0  0  0  0  0  0  0  0  0
    1.2657    0.5805   -2.4847 N   0  0  0  0  0  0  0  0  0  0  0  0
    0.8201   -0.1363   -3.0377 H   0  0  0  0  0  0  0  0  0  0  0  0
    2.4347    1.1796   -2.7673 C   0  0  0  0  0  0  0  0  0  0  0  0
    3.0545    0.9673   -3.6299 H   0  0  0  0  0  0  0  0  0  0  0  0
    2.7299    2.0888   -1.8268 N   0  0  0  0  0  0  0  0  0  0  0  0
    1.6929    2.0527   -0.8910 C   0  0  0  0  0  0  0  0  0  0  0  0
    1.6015    2.6802   -0.0139 H   0  0  0  0  0  0  0  0  0  0  0  0
   -0.1073    0.0565    1.7296 C   0  0  0  0  0  0  0  0  0  0  0  0
    1.0285   -0.1699    2.1459 O   0  0  0  0  0  0  0  0  0  0  0  0
   -1.0395    0.6588    2.4785 N   0  0  0  0  0  0  0  0  0  0  0  0
   -1.9636    0.7597    2.0849 H   0  0  0  0  0  0  0  0  0  0  0  0
   -0.8222    1.1334    3.8425 C   0  0  0  0  0  0  0  0  0  0  0  0
   -0.0212    1.8761    3.8521 H   0  0  0  0  0  0  0  0  0  0  0  0
   -1.7349    1.5853    4.2320 H   0  0  0  0  0  0  0  0  0  0  0  0
   -0.5312    0.2997    4.4834 H   0  0  0  0  0  0  0  0  0  0  0  0
  5  6  2  0  0  0  0
  5  7  1  0  0  0  0
  2  3  1  0  0  0  0
  2  4  1  0  0  0  0
  2  5  1  0  0  0  0
  1  2  1  0  0  0  0
 22 23  2  0  0  0  0
 22 24  1  0  0  0  0
 20 21  1  0  0  0  0
 19 20  1  0  0  0  0
 17 18  1  0  0  0  0
 17 19  2  0  0  0  0
 15 16  1  0  0  0  0
 15 17  1  0  0  0  0
 14 15  1  0  0  0  0
 14 20  2  0  0  0  0
 11 12  1  0  0  0  0
 11 13  1  0  0  0  0
 11 14  1  0  0  0  0
  9 10  1  0  0  0  0
  9 11  1  0  0  0  0
  9 22  1  0  0  0  0
  7  8  1  0  0  0  0
  7  9  1  0  0  0  0
 26 27  1  0  0  0  0
 26 28  1  0  0  0  0
 26 29  1  0  0  0  0
 24 25  1  0  0  0  0
 24 26  1  0  0  0  0
M  END
$$$$
default_name
  -OEChem-02102213163D

 29 29  0     1  0  0  0  0  0999 V2000
   -3.6042   -3.5728    1.4576 H   0  0  0  0  0  0  0  0  0  0  0  0
   -3.5202   -2.6488    0.8866 C   0  0  0  0  0  0  0  0  0  0  0  0
   -4.2052   -1.9048    1.2896 H   0  0  0  0  0  0  0  0  0  0  0  0
   -3.7552   -2.8428   -0.1584 H   0  0  0  0  0  0  0  0  0  0  0  0
   -2.1052   -2.1358    0.9946 C   0  0  0  0  0  0  0  0  0  0  0  0
   -1.2852   -2.7288    1.6826 O   0  0  0  0  0  0  0  0  0  0  0  0
   -1.8202   -1.0288    0.3146 N   0  0  0  0  0  0  0  0  0  0  0  0
   -2.5542   -0.5788   -0.2104 H   0  0  0  0  0  0  0  0  0  0  0  0
   -0.5102   -0.3728    0.3086 C   0  0  1  0  0  0  0  0  0  0  0  0
    0.2354   -1.0844   -0.0490 H   0  0  0  0  0  0  0  0  0  0  0  0
   -0.5452    0.8158   -0.6698 C   0  0  0  0  0  0  0  0  0  0  0  0
   -1.2686    0.6070   -1.4600 H   0  0  0  0  0  0  0  0  0  0  0  0
   -0.8799    1.7068   -0.1353 H   0  0  0  0  0  0  0  0  0  0  0  0
    0.7877    1.1129   -1.3065 C   0  0  0  0  0  0  0  0  0  0  0  0
    1.1557    0.8216   -2.6026 N   0  0  0  0  0  0  0  0  0  0  0  0
    0.6095    0.3025   -3.2737 H   0  0  0  0  0  0  0  0  0  0  0  0
    2.3743    1.3457   -2.8164 C   0  0  0  0  0  0  0  0  0  0  0  0
    2.9320    1.2762   -3.7423 H   0  0  0  0  0  0  0  0  0  0  0  0
    2.8081    1.9766   -1.7154 N   0  0  0  0  0  0  0  0  0  0  0  0
    1.8105    1.8320   -0.7478 C   0  0  0  0  0  0  0  0  0  0  0  0
    1.8257    2.2451    0.2524 H   0  0  0  0  0  0  0  0  0  0  0  0
   -0.1073    0.0565    1.7296 C   0  0  0  0  0  0  0  0  0  0  0  0
    1.0285   -0.1699    2.1459 O   0  0  0  0  0  0  0  0  0  0  0  0
   -1.0395    0.6588    2.4785 N   0  0  0  0  0  0  0  0  0  0  0  0
   -1.9636    0.7597    2.0849 H   0  0  0  0  0  0  0  0  0  0  0  0
   -0.8222    1.1334    3.8425 C   0  0  0  0  0  0  0  0  0  0  0  0
   -0.0212    1.8761    3.8521 H   0  0  0  0  0  0  0  0  0  0  0  0
   -1.7349    1.5853    4.2320 H   0  0  0  0  0  0  0  0  0  0  0  0
   -0.5312    0.2997    4.4834 H   0  0  0  0  0  0  0  0  0  0  0  0
  5  6  2  0  0  0  0
  5  7  1  0  0  0  0
  2  3  1  0  0  0  0
  2  4  1  0  0  0  0
  2  5  1  0  0  0  0
  1  2  1  0  0  0  0
 22 23  2  0  0  0  0
 22 24  1  0  0  0  0
 20 21  1  0  0  0  0
 19 20  1  0  0  0  0
 17 18  1  0  0  0  0
 17 19  2  0  0  0  0
 15 16  1  0  0  0  0
 15 17  1  0  0  0  0
 14 15  1  0  0  0  0
 14 20  2  0  0  0  0
 11 12  1  0  0  0  0
 11 13  1  0  0  0  0
 11 14  1  0  0  0  0
  9 10  1  0  0  0  0
  9 11  1  0  0  0  0
  9 22  1  0  0  0  0
  7  8  1  0  0  0  0
  7  9  1  0  0  0  0
 26 27  1  0  0  0  0
 26 28  1  0  0  0  0
 26 29  1  0  0  0  0
 24 25  1  0  0  0  0
 24 26  1  0  0  0  0
M  END
$$$$
default_name
  -OEChem-02102213163D

 29 29  0     1  0  0  0  0  0999 V2000
   -3.6042   -3.5728    1.4576 H   0  0  0  0  0  0  0  0  0  0  0  0
   -3.5202   -2.6488    0.8866 C   0  0  0  0  0  0  0  0  0  0  0  0
   -4.2052   -1.9048    1.2896 H   0  0  0  0  0  0  0  0  0  0  0  0
   -3.7552   -2.8428   -0.1584 H   0  0  0  0  0  0  0  0  0  0  0  0
   -2.1052   -2.1358    0.9946 C   0  0  0  0  0  0  0  0  0  0  0  0
   -1.2852   -2.7288    1.6826 O   0  0  0  0  0  0  0  0  0  0  0  0
   -1.8202   -1.0288    0.3146 N   0  0  0  0  0  0  0  0  0  0  0  0
   -2.5542   -0.5788   -0.2104 H   0  0  0  0  0  0  0  0  0  0  0  0
   -0.5102   -0.3728    0.3086 C   0  0  1  0  0  0  0  0  0  0  0  0
    0.2354   -1.0844   -0.0490 H   0  0  0  0  0  0  0  0  0  0  0  0
   -0.5452    0.8158   -0.6698 C   0  0  0  0  0  0  0  0  0  0  0  0
   -1.2686    0.6070   -1.4600 H   0  0  0  0  0  0  0  0  0  0  0  0
   -0.8799    1.7068   -0.1353 H   0  0  0  0  0  0  0  0  0  0  0  0
    0.7877    1.1129   -1.3065 C   0  0  0  0  0  0  0  0  0  0  0  0
    1.0697    1.0935   -2.6557 N   0  0  0  0  0  0  0  0  0  0  0  0
    0.4421    0.8035   -3.3906 H   0  0  0  0  0  0  0  0  0  0  0  0
    2.3316    1.5239   -2.8226 C   0  0  0  0  0  0  0  0  0  0  0  0
    2.8417    1.6136   -3.7739 H   0  0  0  0  0  0  0  0  0  0  0  0
    2.8771    1.8341   -1.6375 N   0  0  0  0  0  0  0  0  0  0  0  0
    1.9072    1.5731   -0.6661 C   0  0  0  0  0  0  0  0  0  0  0  0
    2.0083    1.7393    0.3986 H   0  0  0  0  0  0  0  0  0  0  0  0
   -0.1073    0.0565    1.7296 C   0  0  0  0  0  0  0  0  0  0  0  0
    1.0285   -0.1699    2.1459 O   0  0  0  0  0  0  0  0  0  0  0  0
   -1.0395    0.6588    2.4785 N   0  0  0  0  0  0  0  0  0  0  0  0
   -1.9636    0.7597    2.0849 H   0  0  0  0  0  0  0  0  0  0  0  0
   -0.8222    1.1334    3.8425 C   0  0  0  0  0  0  0  0  0  0  0  0
   -0.0212    1.8761    3.8521 H   0  0  0  0  0  0  0  0  0  0  0  0
   -1.7349    1.5853    4.2320 H   0  0  0  0  0  0  0  0  0  0  0  0
   -0.5312    0.2997    4.4834 H   0  0  0  0  0  0  0  0  0  0  0  0
  5  6  2  0  0  0  0
  5  7  1  0  0  0  0
  2  3  1  0  0  0  0
  2  4  1  0  0  0  0
  2  5  1  0  0  0  0
  1  2  1  0  0  0  0
 22 23  2  0  0  0  0
 22 24  1  0  0  0  0
 20 21  1  0  0  0  0
 19 20  1  0  0  0  0
 17 18  1  0  0  0  0
 17 19  2  0  0  0  0
 15 16  1  0  0  0  0
 15 17  1  0  0  0  0
 14 15  1  0  0  0  0
 14 20  2  0  0  0  0
 11 12  1  0  0  0  0
 11 13  1  0  0  0  0
 11 14  1  0  0  0  0
  9 10  1  0  0  0  0
  9 11  1  0  0  0  0
  9 22  1  0  0  0  0
  7  8  1  0  0  0  0
  7  9  1  0  0  0  0
 26 27  1  0  0  0  0
 26 28  1  0  0  0  0
 26 29  1  0  0  0  0
 24 25  1  0  0  0  0
 24 26  1  0  0  0  0
M  END
$$$$
default_name
  -OEChem-02102213163D

 29 29  0     1  0  0  0  0  0999 V2000
   -3.6042   -3.5728    1.4576 H   0  0  0  0  0  0  0  0  0  0  0  0
   -3.5202   -2.6488    0.8866 C   0  0  0  0  0  0  0  0  0  0  0  0
   -4.2052   -1.9048    1.2896 H   0  0  0  0  0  0  0  0  0  0  0  0
   -3.7552   -2.8428   -0.1584 H   0  0  0  0  0  0  0  0  0  0  0  0
   -2.1052   -2.1358    0.9946 C   0  0  0  0  0  0  0  0  0  0  0  0
   -1.2852   -2.7288    1.6826 O   0  0  0  0  0  0  0  0  0  0  0  0
   -1.8202   -1.0288    0.3146 N   0  0  0  0  0  0  0  0  0  0  0  0
   -2.5542   -0.5788   -0.2104 H   0  0  0  0  0  0  0  0  0  0  0  0
   -0.5102   -0.3728    0.3086 C   0  0  1  0  0  0  0  0  0  0  0  0
    0.2354   -1.0844   -0.0490 H   0  0  0  0  0  0  0  0  0  0  0  0
   -0.5452    0.8158   -0.6698 C   0  0  0  0  0  0  0  0  0  0  0  0
   -1.2686    0.6070   -1.4600 H   0  0  0  0  0  0  0  0  0  0  0  0
   -0.8799    1.7068   -0.1353 H   0  0  0  0  0  0  0  0  0  0  0  0
    0.7877    1.1129   -1.3065 C   0  0  0  0  0  0  0  0  0  0  0  0
    1.0137    1.3777   -2.6403 N   0  0  0  0  0  0  0  0  0  0  0  0
    0.3291    1.3324   -3.3801 H   0  0  0  0  0  0  0  0  0  0  0  0
    2.3095    1.7022   -2.7857 C   0  0  0  0  0  0  0  0  0  0  0  0
    2.7897    1.9567   -3.7226 H   0  0  0  0  0  0  0  0  0  0  0  0
    2.9321    1.6711   -1.5984 N   0  0  0  0  0  0  0  0  0  0  0  0
    1.9765    1.2938   -0.6513 C   0  0  0  0  0  0  0  0  0  0  0  0
    2.1368    1.1973    0.4147 H   0  0  0  0  0  0  0  0  0  0  0  0
   -0.1073    0.0565    1.7296 C   0  0  0  0  0  0  0  0  0  0  0  0
    1.0285   -0.1699    2.1459 O   0  0  0  0  0  0  0  0  0  0  0  0
   -1.0395    0.6588    2.4785 N   0  0  0  0  0  0  0  0  0  0  0  0
   -1.9636    0.7597    2.0849 H   0  0  0  0  0  0  0  0  0  0  0  0
   -0.8222    1.1334    3.8425 C   0  0  0  0  0  0  0  0  0  0  0  0
   -0.0212    1.8761    3.8521 H   0  0  0  0  0  0  0  0  0  0  0  0
   -1.7349    1.5853    4.2320 H   0  0  0  0  0  0  0  0  0  0  0  0
   -0.5312    0.2997    4.4834 H   0  0  0  0  0  0  0  0  0  0  0  0
  5  6  2  0  0  0  0
  5  7  1  0  0  0  0
  2  3  1  0  0  0  0
  2  4  1  0  0  0  0
  2  5  1  0  0  0  0
  1  2  1  0  0  0  0
 22 23  2  0  0  0  0
 22 24  1  0  0  0  0
 20 21  1  0  0  0  0
 19 20  1  0  0  0  0
 17 18  1  0  0  0  0
 17 19  2  0  0  0  0
 15 16  1  0  0  0  0
 15 17  1  0  0  0  0
 14 15  1  0  0  0  0
 14 20  2  0  0  0  0
 11 12  1  0  0  0  0
 11 13  1  0  0  0  0
 11 14  1  0  0  0  0
  9 10  1  0  0  0  0
  9 11  1  0  0  0  0
  9 22  1  0  0  0  0
  7  8  1  0  0  0  0
  7  9  1  0  0  0  0
 26 27  1  0  0  0  0
 26 28  1  0  0  0  0
 26 29  1  0  0  0  0
 24 25  1  0  0  0  0
 24 26  1  0  0  0  0
M  END
$$$$
default_name
  -OEChem-02102213163D

 29 29  0     1  0  0  0  0  0999 V2000
   -3.6042   -3.5728    1.4576 H   0  0  0  0  0  0  0  0  0  0  0  0
   -3.5202   -2.6488    0.8866 C   0  0  0  0  0  0  0  0  0  0  0  0
   -4.2052   -1.9048    1.2896 H   0  0  0  0  0  0  0  0  0  0  0  0
   -3.7552   -2.8428   -0.1584 H   0  0  0  0  0  0  0  0  0  0  0  0
   -2.1052   -2.1358    0.9946 C   0  0  0  0  0  0  0  0  0  0  0  0
   -1.2852   -2.7288    1.6826 O   0  0  0  0  0  0  0  0  0  0  0  0
   -1.8202   -1.0288    0.3146 N   0  0  0  0  0  0  0  0  0  0  0  0
   -2.5542   -0.5788   -0.2104 H   0  0  0  0  0  0  0  0  0  0  0  0
   -0.5102   -0.3728    0.3086 C   0  0  1  0  0  0  0  0  0  0  0  0
    0.2354   -1.0844   -0.0490 H   0  0  0  0  0  0  0  0  0  0  0  0
   -0.5452    0.8158   -0.6698 C   0  0  0  0  0  0  0  0  0  0  0  0
   -1.2686    0.6070   -1.4600 H   0  0  0  0  0  0  0  0  0  0  0  0
   -0.8799    1.7068   -0.1353 H   0  0  0  0  0  0  0  0  0  0  0  0
    0.7877    1.1129   -1.3065 C   0  0  0  0  0  0  0  0  0  0  0  0
    0.9915    1.6548   -2.5575 N   0  0  0  0  0  0  0  0  0  0  0  0
    0.2785    1.8533   -3.2432 H   0  0  0  0  0  0  0  0  0  0  0  0
    2.3095    1.8684   -2.7081 C   0  0  0  0  0  0  0  0  0  0  0  0
    2.7797    2.2820   -3.5918 H   0  0  0  0  0  0  0  0  0  0  0  0
    2.9694    1.4987   -1.6008 N   0  0  0  0  0  0  0  0  0  0  0  0
    2.0137    1.0130   -0.7046 C   0  0  0  0  0  0  0  0  0  0  0  0
    2.2024    0.6560    0.2996 H   0  0  0  0  0  0  0  0  0  0  0  0
   -0.1073    0.0565    1.7296 C   0  0  0  0  0  0  0  0  0  0  0  0
    1.0285   -0.1699    2.1459 O   0  0  0  0  0  0  0  0  0  0  0  0
   -1.0395    0.6588    2.4785 N   0  0  0  0  0  0  0  0  0  0  0  0
   -1.9636    0.7597    2.0849 H   0  0  0  0  0  0  0  0  0  0  0  0
   -0.8222    1.1334    3.8425 C   0  0  0  0  0  0  0  0  0  0  0  0
   -0.0212    1.8761    3.8521 H   0  0  0  0  0  0  0  0  0  0  0  0
   -1.7349    1.5853    4.2320 H   0  0  0  0  0  0  0  0  0  0  0  0
   -0.5312    0.2997    4.4834 H   0  0  0  0  0  0  0  0  0  0  0  0
  5  6  2  0  0  0  0
  5  7  1  0  0  0  0
  2  3  1  0  0  0  0
  2  4  1  0  0  0  0
  2  5  1  0  0  0  0
  1  2  1  0  0  0  0
 22 23  2  0  0  0  0
 22 24  1  0  0  0  0
 20 21  1  0  0  0  0
 19 20  1  0  0  0  0
 17 18  1  0  0  0  0
 17 19  2  0  0  0  0
 15 16  1  0  0  0  0
 15 17  1  0  0  0  0
 14 15  1  0  0  0  0
 14 20  2  0  0  0  0
 11 12  1  0  0  0  0
 11 13  1  0  0  0  0
 11 14  1  0  0  0  0
  9 10  1  0  0  0  0
  9 11  1  0  0  0  0
  9 22  1  0  0  0  0
  7  8  1  0  0  0  0
  7  9  1  0  0  0  0
 26 27  1  0  0  0  0
 26 28  1  0  0  0  0
 26 29  1  0  0  0  0
 24 25  1  0  0  0  0
 24 26  1  0  0  0  0
M  END
$$$$
default_name
  -OEChem-02102213163D

 29 29  0     1  0  0  0  0  0999 V2000
   -3.6042   -3.5728    1.4576 H   0  0  0  0  0  0  0  0  0  0  0  0
   -3.5202   -2.6488    0.8866 C   0  0  0  0  0  0  0  0  0  0  0  0
   -4.2052   -1.9048    1.2896 H   0  0  0  0  0  0  0  0  0  0  0  0
   -3.7552   -2.8428   -0.1584 H   0  0  0  0  0  0  0  0  0  0  0  0
   -2.1052   -2.1358    0.9946 C   0  0  0  0  0  0  0  0  0  0  0  0
   -1.2852   -2.7288    1.6826 O   0  0  0  0  0  0  0  0  0  0  0  0
   -1.8202   -1.0288    0.3146 N   0  0  0  0  0  0  0  0  0  0  0  0
   -2.5542   -0.5788   -0.2104 H   0  0  0  0  0  0  0  0  0  0  0  0
   -0.5102   -0.3728    0.3086 C   0  0  1  0  0  0  0  0  0  0  0  0
    0.2354   -1.0844   -0.0490 H   0  0  0  0  0  0  0  0  0  0  0  0
   -0.5452    0.8158   -0.6698 C   0  0  0  0  0  0  0  0  0  0  0  0
   -1.2686    0.6070   -1.4600 H   0  0  0  0  0  0  0  0  0  0  0  0
   -0.8799    1.7068   -0.1353 H   0  0  0  0  0  0  0  0  0  0  0  0
    0.7877    1.1129   -1.3065 C   0  0  0  0  0  0  0  0  0  0  0  0
    1.0046    1.9059   -2.4129 N   0  0  0  0  0  0  0  0  0  0  0  0
    0.2935    2.3306   -2.9891 H   0  0  0  0  0  0  0  0  0  0  0  0
    2.3317    2.0111   -2.5951 C   0  0  0  0  0  0  0  0  0  0  0  0
    2.8122    2.5674   -3.3905 H   0  0  0  0  0  0  0  0  0  0  0  0
    2.9865    1.3286   -1.6444 N   0  0  0  0  0  0  0  0  0  0  0  0
    2.0161    0.7500   -0.8222 C   0  0  0  0  0  0  0  0  0  0  0  0
    2.2007    0.1524    0.0611 H   0  0  0  0  0  0  0  0  0  0  0  0
   -0.1073    0.0565    1.7296 C   0  0  0  0  0  0  0  0  0  0  0  0
    1.0285   -0.1699    2.1459 O   0  0  0  0  0  0  0  0  0  0  0  0
   -1.0395    0.6588    2.4785 N   0  0  0  0  0  0  0  0  0  0  0  0
   -1.9636    0.7597    2.0849 H   0  0  0  0  0  0  0  0  0  0  0  0
   -0.8222    1.1334    3.8425 C   0  0  0  0  0  0  0  0  0  0  0  0
   -0.0212    1.8761    3.8521 H   0  0  0  0  0  0  0  0  0  0  0  0
   -1.7349    1.5853    4.2320 H   0  0  0  0  0  0  0  0  0  0  0  0
   -0.5312    0.2997    4.4834 H   0  0  0  0  0  0  0  0  0  0  0  0
  5  6  2  0  0  0  0
  5  7  1  0  0  0  0
  2  3  1  0  0  0  0
  2  4  1  0  0  0  0
  2  5  1  0  0  0  0
  1  2  1  0  0  0  0
 22 23  2  0  0  0  0
 22 24  1  0  0  0  0
 20 21  1  0  0  0  0
 19 20  1  0  0  0  0
 17 18  1  0  0  0  0
 17 19  2  0  0  0  0
 15 16  1  0  0  0  0
 15 17  1  0  0  0  0
 14 15  1  0  0  0  0
 14 20  2  0  0  0  0
 11 12  1  0  0  0  0
 11 13  1  0  0  0  0
 11 14  1  0  0  0  0
  9 10  1  0  0  0  0
  9 11  1  0  0  0  0
  9 22  1  0  0  0  0
  7  8  1  0  0  0  0
  7  9  1  0  0  0  0
 26 27  1  0  0  0  0
 26 28  1  0  0  0  0
 26 29  1  0  0  0  0
 24 25  1  0  0  0  0
 24 26  1  0  0  0  0
M  END
$$$$
default_name
  -OEChem-02102213163D

 29 29  0     1  0  0  0  0  0999 V2000
   -3.6042   -3.5728    1.4576 H   0  0  0  0  0  0  0  0  0  0  0  0
   -3.5202   -2.6488    0.8866 C   0  0  0  0  0  0  0  0  0  0  0  0
   -4.2052   -1.9048    1.2896 H   0  0  0  0  0  0  0  0  0  0  0  0
   -3.7552   -2.8428   -0.1584 H   0  0  0  0  0  0  0  0  0  0  0  0
   -2.1052   -2.1358    0.9946 C   0  0  0  0  0  0  0  0  0  0  0  0
   -1.2852   -2.7288    1.6826 O   0  0  0  0  0  0  0  0  0  0  0  0
   -1.8202   -1.0288    0.3146 N   0  0  0  0  0  0  0  0  0  0  0  0
   -2.5542   -0.5788   -0.2104 H   0  0  0  0  0  0  0  0  0  0  0  0
   -0.5102   -0.3728    0.3086 C   0  0  1  0  0  0  0  0  0  0  0  0
    0.2354   -1.0844   -0.0490 H   0  0  0  0  0  0  0  0  0  0  0  0
   -0.5452    0.8158   -0.6698 C   0  0  0  0  0  0  0  0  0  0  0  0
   -1.4364    0.7379   -1.2950 H   0  0  0  0  0  0  0  0  0  0  0  0
   -0.6154    1.7439   -0.0996 H   0  0  0  0  0  0  0  0  0  0  0  0
    0.6635    0.8957   -1.5659 C   0  0  0  0  0  0  0  0  0  0  0  0
    0.9006    1.8492   -2.5327 N   0  0  0  0  0  0  0  0  0  0  0  0
    0.2622    2.5752   -2.8215 H   0  0  0  0  0  0  0  0  0  0  0  0
    2.1315    1.6401   -3.0294 C   0  0  0  0  0  0  0  0  0  0  0  0
    2.5992    2.2267   -3.8106 H   0  0  0  0  0  0  0  0  0  0  0  0
    2.7088    0.5968   -2.4159 N   0  0  0  0  0  0  0  0  0  0  0  0
    1.7842    0.1127   -1.4868 C   0  0  0  0  0  0  0  0  0  0  0  0
    1.9384   -0.7103   -0.8010 H   0  0  0  0  0  0  0  0  0  0  0  0
   -0.1073    0.0565    1.7296 C   0  0  0  0  0  0  0  0  0  0  0  0
    1.0285   -0.1699    2.1459 O   0  0  0  0  0  0  0  0  0  0  0  0
   -1.0395    0.6588    2.4785 N   0  0  0  0  0  0  0  0  0  0  0  0
   -1.9636    0.7597    2.0849 H   0  0  0  0  0  0  0  0  0  0  0  0
   -0.8222    1.1334    3.8425 C   0  0  0  0  0  0  0  0  0  0  0  0
   -0.0212    1.8761    3.8521 H   0  0  0  0  0  0  0  0  0  0  0  0
   -1.7349    1.5853    4.2320 H   0  0  0  0  0  0  0  0  0  0  0  0
   -0.5312    0.2997    4.4834 H   0  0  0  0  0  0  0  0  0  0  0  0
  5  6  2  0  0  0  0
  5  7  1  0  0  0  0
  2  3  1  0  0  0  0
  2  4  1  0  0  0  0
  2  5  1  0  0  0  0
  1  2  1  0  0  0  0
 22 23  2  0  0  0  0
 22 24  1  0  0  0  0
 20 21  1  0  0  0  0
 19 20  1  0  0  0  0
 17 18  1  0  0  0  0
 17 19  2  0  0  0  0
 15 16  1  0  0  0  0
 15 17  1  0  0  0  0
 14 15  1  0  0  0  0
 14 20  2  0  0  0  0
 11 12  1  0  0  0  0
 11 13  1  0  0  0  0
 11 14  1  0  0  0  0
  9 10  1  0  0  0  0
  9 11  1  0  0  0  0
  9 22  1  0  0  0  0
  7  8  1  0  0  0  0
  7  9  1  0  0  0  0
 26 27  1  0  0  0  0
 26 28  1  0  0  0  0
 26 29  1  0  0  0  0
 24 25  1  0  0  0  0
 24 26  1  0  0  0  0
M  END
$$$$
default_name
  -OEChem-02102213163D

 29 29  0     1  0  0  0  0  0999 V2000
   -3.6042   -3.5728    1.4576 H   0  0  0  0  0  0  0  0  0  0  0  0
   -3.5202   -2.6488    0.8866 C   0  0  0  0  0  0  0  0  0  0  0  0
   -4.2052   -1.9048    1.2896 H   0  0  0  0  0  0  0  0  0  0  0  0
   -3.7552   -2.8428   -0.1584 H   0  0  0  0  0  0  0  0  0  0  0  0
   -2.1052   -2.1358    0.9946 C   0  0  0  0  0  0  0  0  0  0  0  0
   -1.2852   -2.7288    1.6826 O   0  0  0  0  0  0  0  0  0  0  0  0
   -1.8202   -1.0288    0.3146 N   0  0  0  0  0  0  0  0  0  0  0  0
   -2.5542   -0.5788   -0.2104 H   0  0  0  0  0  0  0  0  0  0  0  0
   -0.5102   -0.3728    0.3086 C   0  0  1  0  0  0  0  0  0  0  0  0
    0.2354   -1.0844   -0.0490 H   0  0  0  0  0  0  0  0  0  0  0  0
   -0.5452    0.8158   -0.6698 C   0  0  0  0  0  0  0  0  0  0  0  0
   -1.4364    0.7379   -1.2950 H   0  0  0  0  0  0  0  0  0  0  0  0
   -0.6154    1.7439   -0.0996 H   0  0  0  0  0  0  0  0  0  0  0  0
    0.6635    0.8957   -1.5659 C   0  0  0  0  0  0  0  0  0  0  0  0
    1.0484    1.9824   -2.3216 N   0  0  0  0  0  0  0  0  0  0  0  0
    0.5312    2.8414   -2.4349 H   0  0  0  0  0  0  0  0  0  0  0  0
    2.2330    1.6964   -2.8874 C   0  0  0  0  0  0  0  0  0  0  0  0
    2.7882    2.3548   -3.5443 H   0  0  0  0  0  0  0  0  0  0  0  0
    2.6397    0.4724   -2.5203 N   0  0  0  0  0  0  0  0  0  0  0  0
    1.6487   -0.0481   -1.6839 C   0  0  0  0  0  0  0  0  0  0  0  0
    1.6715   -1.0097   -1.1878 H   0  0  0  0  0  0  0  0  0  0  0  0
   -0.1073    0.0565    1.7296 C   0  0  0  0  0  0  0  0  0  0  0  0
    1.0285   -0.1699    2.1459 O   0  0  0  0  0  0  0  0  0  0  0  0
   -1.0395    0.6588    2.4785 N   0  0  0  0  0  0  0  0  0  0  0  0
   -1.9636    0.7597    2.0849 H   0  0  0  0  0  0  0  0  0  0  0  0
   -0.8222    1.1334    3.8425 C   0  0  0  0  0  0  0  0  0  0  0  0
   -0.0212    1.8761    3.8521 H   0  0  0  0  0  0  0  0  0  0  0  0
   -1.7349    1.5853    4.2320 H   0  0  0  0  0  0  0  0  0  0  0  0
   -0.5312    0.2997    4.4834 H   0  0  0  0  0  0  0  0  0  0  0  0
  5  6  2  0  0  0  0
  5  7  1  0  0  0  0
  2  3  1  0  0  0  0
  2  4  1  0  0  0  0
  2  5  1  0  0  0  0
  1  2  1  0  0  0  0
 22 23  2  0  0  0  0
 22 24  1  0  0  0  0
 20 21  1  0  0  0  0
 19 20  1  0  0  0  0
 17 18  1  0  0  0  0
 17 19  2  0  0  0  0
 15 16  1  0  0  0  0
 15 17  1  0  0  0  0
 14 15  1  0  0  0  0
 14 20  2  0  0  0  0
 11 12  1  0  0  0  0
 11 13  1  0  0  0  0
 11 14  1  0  0  0  0
  9 10  1  0  0  0  0
  9 11  1  0  0  0  0
  9 22  1  0  0  0  0
  7  8  1  0  0  0  0
  7  9  1  0  0  0  0
 26 27  1  0  0  0  0
 26 28  1  0  0  0  0
 26 29  1  0  0  0  0
 24 25  1  0  0  0  0
 24 26  1  0  0  0  0
M  END
$$$$
default_name
  -OEChem-02102213163D

 29 29  0     1  0  0  0  0  0999 V2000
   -3.6042   -3.5728    1.4576 H   0  0  0  0  0  0  0  0  0  0  0  0
   -3.5202   -2.6488    0.8866 C   0  0  0  0  0  0  0  0  0  0  0  0
   -4.2052   -1.9048    1.2896 H   0  0  0  0  0  0  0  0  0  0  0  0
   -3.7552   -2.8428   -0.1584 H   0  0  0  0  0  0  0  0  0  0  0  0
   -2.1052   -2.1358    0.9946 C   0  0  0  0  0  0  0  0  0  0  0  0
   -1.2852   -2.7288    1.6826 O   0  0  0  0  0  0  0  0  0  0  0  0
   -1.8202   -1.0288    0.3146 N   0  0  0  0  0  0  0  0  0  0  0  0
   -2.5542   -0.5788   -0.2104 H   0  0  0  0  0  0  0  0  0  0  0  0
   -0.5102   -0.3728    0.3086 C   0  0  1  0  0  0  0  0  0  0  0  0
    0.2354   -1.0844   -0.0490 H   0  0  0  0  0  0  0  0  0  0  0  0
   -0.5452    0.8158   -0.6698 C   0  0  0  0  0  0  0  0  0  0  0  0
   -1.4364    0.7379   -1.2950 H   0  0  0  0  0  0  0  0  0  0  0  0
   -0.6154    1.7439   -0.0996 H   0  0  0  0  0  0  0  0  0  0  0  0
    0.6635    0.8957   -1.5659 C   0  0  0  0  0  0  0  0  0  0  0  0
    1.2145    2.0445   -2.0920 N   0  0  0  0  0  0  0  0  0  0  0  0
    0.8374    2.9768   -2.0100 H   0  0  0  0  0  0  0  0  0  0  0  0
    2.3417    1.7057   -2.7400 C   0  0  0  0  0  0  0  0  0  0  0  0
    2.9941    2.3941   -3.2631 H   0  0  0  0  0  0  0  0  0  0  0  0
    2.5523    0.3846   -2.6459 N   0  0  0  0  0  0  0  0  0  0  0  0
    1.4904   -0.1416   -1.9058 C   0  0  0  0  0  0  0  0  0  0  0  0
    1.3622   -1.1776   -1.6199 H   0  0  0  0  0  0  0  0  0  0  0  0
   -0.1073    0.0565    1.7296 C   0  0  0  0  0  0  0  0  0  0  0  0
    1.0285   -0.1699    2.1459 O   0  0  0  0  0  0  0  0  0  0  0  0
   -1.0395    0.6588    2.4785 N   0  0  0  0  0  0  0  0  0  0  0  0
   -1.9636    0.7597    2.0849 H   0  0  0  0  0  0  0  0  0  0  0  0
   -0.8222    1.1334    3.8425 C   0  0  0  0  0  0  0  0  0  0  0  0
   -0.0212    1.8761    3.8521 H   0  0  0  0  0  0  0  0  0  0  0  0
   -1.7349    1.5853    4.2320 H   0  0  0  0  0  0  0  0  0  0  0  0
   -0.5312    0.2997    4.4834 H   0  0  0  0  0  0  0  0  0  0  0  0
  5  6  2  0  0  0  0
  5  7  1  0  0  0  0
  2  3  1  0  0  0  0
  2  4  1  0  0  0  0
  2  5  1  0  0  0  0
  1  2  1  0  0  0  0
 22 23  2  0  0  0  0
 22 24  1  0  0  0  0
 20 21  1  0  0  0  0
 19 20  1  0  0  0  0
 17 18  1  0  0  0  0
 17 19  2  0  0  0  0
 15 16  1  0  0  0  0
 15 17  1  0  0  0  0
 14 15  1  0  0  0  0
 14 20  2  0  0  0  0
 11 12  1  0  0  0  0
 11 13  1  0  0  0  0
 11 14  1  0  0  0  0
  9 10  1  0  0  0  0
  9 11  1  0  0  0  0
  9 22  1  0  0  0  0
  7  8  1  0  0  0  0
  7  9  1  0  0  0  0
 26 27  1  0  0  0  0
 26 28  1  0  0  0  0
 26 29  1  0  0  0  0
 24 25  1  0  0  0  0
 24 26  1  0  0  0  0
M  END
$$$$
default_name
  -OEChem-02102213163D

 29 29  0     1  0  0  0  0  0999 V2000
   -3.6042   -3.5728    1.4576 H   0  0  0  0  0  0  0  0  0  0  0  0
   -3.5202   -2.6488    0.8866 C   0  0  0  0  0  0  0  0  0  0  0  0
   -4.2052   -1.9048    1.2896 H   0  0  0  0  0  0  0  0  0  0  0  0
   -3.7552   -2.8428   -0.1584 H   0  0  0  0  0  0  0  0  0  0  0  0
   -2.1052   -2.1358    0.9946 C   0  0  0  0  0  0  0  0  0  0  0  0
   -1.2852   -2.7288    1.6826 O   0  0  0  0  0  0  0  0  0  0  0  0
   -1.8202   -1.0288    0.3146 N   0  0  0  0  0  0  0  0  0  0  0  0
   -2.5542   -0.5788   -0.2104 H   0  0  0  0  0  0  0  0  0  0  0  0
   -0.5102   -0.3728    0.3086 C   0  0  1  0  0  0  0  0  0  0  0  0
    0.2354   -1.0844   -0.0490 H   0  0  0  0  0  0  0  0  0  0  0  0
   -0.5452    0.8158   -0.6698 C   0  0  0  0  0  0  0  0  0  0  0  0
   -1.4364    0.7379   -1.2950 H   0  0  0  0  0  0  0  0  0  0  0  0
   -0.6154    1.7439   -0.0996 H   0  0  0  0  0  0  0  0  0  0  0  0
    0.6635    0.8957   -1.5659 C   0  0  0  0  0  0  0  0  0  0  0  0
    1.3876    2.0312   -1.8597 N   0  0  0  0  0  0  0  0  0  0  0  0
    1.1597    2.9722   -1.5756 H   0  0  0  0  0  0  0  0  0  0  0  0
    2.4502    1.6672   -2.5972 C   0  0  0  0  0  0  0  0  0  0  0  0
    3.2029    2.3420   -2.9861 H   0  0  0  0  0  0  0  0  0  0  0  0
    2.4527    0.3394   -2.7843 N   0  0  0  0  0  0  0  0  0  0  0  0
    1.3200   -0.1615   -2.1373 C   0  0  0  0  0  0  0  0  0  0  0  0
    1.0317   -1.2025   -2.0679 H   0  0  0  0  0  0  0  0  0  0  0  0
   -0.1073    0.0565    1.7296 C   0  0  0  0  0  0  0  0  0  0  0  0
    1.0285   -0.1699    2.1459 O   0  0  0  0  0  0  0  0  0  0  0  0
   -1.0395    0.6588    2.4785 N   0  0  0  0  0  0  0  0  0  0  0  0
   -1.9636    0.7597    2.0849 H   0  0  0  0  0  0  0  0  0  0  0  0
   -0.8222    1.1334    3.8425 C   0  0  0  0  0  0  0  0  0  0  0  0
   -0.0212    1.8761    3.8521 H   0  0  0  0  0  0  0  0  0  0  0  0
   -1.7349    1.5853    4.2320 H   0  0  0  0  0  0  0  0  0  0  0  0
   -0.5312    0.2997    4.4834 H   0  0  0  0  0  0  0  0  0  0  0  0
  5  6  2  0  0  0  0
  5  7  1  0  0  0  0
  2  3  1  0  0  0  0
  2  4  1  0  0  0  0
  2  5  1  0  0  0  0
  1  2  1  0  0  0  0
 22 23  2  0  0  0  0
 22 24  1  0  0  0  0
 20 21  1  0  0  0  0
 19 20  1  0  0  0  0
 17 18  1  0  0  0  0
 17 19  2  0  0  0  0
 15 16  1  0  0  0  0
 15 17  1  0  0  0  0
 14 15  1  0  0  0  0
 14 20  2  0  0  0  0
 11 12  1  0  0  0  0
 11 13  1  0  0  0  0
 11 14  1  0  0  0  0
  9 10  1  0  0  0  0
  9 11  1  0  0  0  0
  9 22  1  0  0  0  0
  7  8  1  0  0  0  0
  7  9  1  0  0  0  0
 26 27  1  0  0  0  0
 26 28  1  0  0  0  0
 26 29  1  0  0  0  0
 24 25  1  0  0  0  0
 24 26  1  0  0  0  0
M  END
$$$$
default_name
  -OEChem-02102213163D

 29 29  0     1  0  0  0  0  0999 V2000
   -3.6042   -3.5728    1.4576 H   0  0  0  0  0  0  0  0  0  0  0  0
   -3.5202   -2.6488    0.8866 C   0  0  0  0  0  0  0  0  0  0  0  0
   -4.2052   -1.9048    1.2896 H   0  0  0  0  0  0  0  0  0  0  0  0
   -3.7552   -2.8428   -0.1584 H   0  0  0  0  0  0  0  0  0  0  0  0
   -2.1052   -2.1358    0.9946 C   0  0  0  0  0  0  0  0  0  0  0  0
   -1.2852   -2.7288    1.6826 O   0  0  0  0  0  0  0  0  0  0  0  0
   -1.8202   -1.0288    0.3146 N   0  0  0  0  0  0  0  0  0  0  0  0
   -2.5542   -0.5788   -0.2104 H   0  0  0  0  0  0  0  0  0  0  0  0
   -0.5102   -0.3728    0.3086 C   0  0  1  0  0  0  0  0  0  0  0  0
    0.2354   -1.0844   -0.0490 H   0  0  0  0  0  0  0  0  0  0  0  0
   -0.5452    0.8158   -0.6698 C   0  0  0  0  0  0  0  0  0  0  0  0
   -1.4364    0.7379   -1.2950 H   0  0  0  0  0  0  0  0  0  0  0  0
   -0.6154    1.7439   -0.0996 H   0  0  0  0  0  0  0  0  0  0  0  0
    0.6635    0.8957   -1.5659 C   0  0  0  0  0  0  0  0  0  0  0  0
    1.5560    1.9435   -1.6404 N   0  0  0  0  0  0  0  0  0  0  0  0
    1.4764    2.8280   -1.1613 H   0  0  0  0  0  0  0  0  0  0  0  0
    2.5510    1.5838   -2.4686 C   0  0  0  0  0  0  0  0  0  0  0  0
    3.4004    2.2020   -2.7322 H   0  0  0  0  0  0  0  0  0  0  0  0
    2.3476    0.3397   -2.9260 N   0  0  0  0  0  0  0  0  0  0  0  0
    1.1492   -0.1065   -2.3628 C   0  0  0  0  0  0  0  0  0  0  0  0
    0.7025   -1.0826   -2.5012 H   0  0  0  0  0  0  0  0  0  0  0  0
   -0.1073    0.0565    1.7296 C   0  0  0  0  0  0  0  0  0  0  0  0
    1.0285   -0.1699    2.1459 O   0  0  0  0  0  0  0  0  0  0  0  0
   -1.0395    0.6588    2.4785 N   0  0  0  0  0  0  0  0  0  0  0  0
   -1.9636    0.7597    2.0849 H   0  0  0  0  0  0  0  0  0  0  0  0
   -0.8222    1.1334    3.8425 C   0  0  0  0  0  0  0  0  0  0  0  0
   -0.0212    1.8761    3.8521 H   0  0  0  0  0  0  0  0  0  0  0  0
   -1.7349    1.5853    4.2320 H   0  0  0  0  0  0  0  0  0  0  0  0
   -0.5312    0.2997    4.4834 H   0  0  0  0  0  0  0  0  0  0  0  0
  5  6  2  0  0  0  0
  5  7  1  0  0  0  0
  2  3  1  0  0  0  0
  2  4  1  0  0  0  0
  2  5  1  0  0  0  0
  1  2  1  0  0  0  0
 22 23  2  0  0  0  0
 22 24  1  0  0  0  0
 20 21  1  0  0  0  0
 19 20  1  0  0  0  0
 17 18  1  0  0  0  0
 17 19  2  0  0  0  0
 15 16  1  0  0  0  0
 15 17  1  0  0  0  0
 14 15  1  0  0  0  0
 14 20  2  0  0  0  0
 11 12  1  0  0  0  0
 11 13  1  0  0  0  0
 11 14  1  0  0  0  0
  9 10  1  0  0  0  0
  9 11  1  0  0  0  0
  9 22  1  0  0  0  0
  7  8  1  0  0  0  0
  7  9  1  0  0  0  0
 26 27  1  0  0  0  0
 26 28  1  0  0  0  0
 26 29  1  0  0  0  0
 24 25  1  0  0  0  0
 24 26  1  0  0  0  0
M  END
$$$$
default_name
  -OEChem-02102213163D

 29 29  0     1  0  0  0  0  0999 V2000
   -3.6042   -3.5728    1.4576 H   0  0  0  0  0  0  0  0  0  0  0  0
   -3.5202   -2.6488    0.8866 C   0  0  0  0  0  0  0  0  0  0  0  0
   -4.2052   -1.9048    1.2896 H   0  0  0  0  0  0  0  0  0  0  0  0
   -3.7552   -2.8428   -0.1584 H   0  0  0  0  0  0  0  0  0  0  0  0
   -2.1052   -2.1358    0.9946 C   0  0  0  0  0  0  0  0  0  0  0  0
   -1.2852   -2.7288    1.6826 O   0  0  0  0  0  0  0  0  0  0  0  0
   -1.8202   -1.0288    0.3146 N   0  0  0  0  0  0  0  0  0  0  0  0
   -2.5542   -0.5788   -0.2104 H   0  0  0  0  0  0  0  0  0  0  0  0
   -0.5102   -0.3728    0.3086 C   0  0  1  0  0  0  0  0  0  0  0  0
    0.2354   -1.0844   -0.0490 H   0  0  0  0  0  0  0  0  0  0  0  0
   -0.5452    0.8158   -0.6698 C   0  0  0  0  0  0  0  0  0  0  0  0
   -1.4364    0.7379   -1.2950 H   0  0  0  0  0  0  0  0  0  0  0  0
   -0.6154    1.7439   -0.0996 H   0  0  0  0  0  0  0  0  0  0  0  0
    0.6635    0.8957   -1.5659 C   0  0  0  0  0  0  0  0  0  0  0  0
    1.7081    1.7874   -1.4491 N   0  0  0  0  0  0  0  0  0  0  0  0
    1.7657    2.5540   -0.7955 H   0  0  0  0  0  0  0  0  0  0  0  0
    2.6372    1.4610   -2.3632 C   0  0  0  0  0  0  0  0  0  0  0  0
    3.5731    1.9837   -2.5188 H   0  0  0  0  0  0  0  0  0  0  0  0
    2.2442    0.3856   -3.0614 N   0  0  0  0  0  0  0  0  0  0  0  0
    0.9896    0.0198   -2.5668 C   0  0  0  0  0  0  0  0  0  0  0  0
    0.3970   -0.8261   -2.8904 H   0  0  0  0  0  0  0  0  0  0  0  0
   -0.1073    0.0565    1.7296 C   0  0  0  0  0  0  0  0  0  0  0  0
    1.0285   -0.1699    2.1459 O   0  0  0  0  0  0  0  0  0  0  0  0
   -1.0395    0.6588    2.4785 N   0  0  0  0  0  0  0  0  0  0  0  0
   -1.9636    0.7597    2.0849 H   0  0  0  0  0  0  0  0  0  0  0  0
   -0.8222    1.1334    3.8425 C   0  0  0  0  0  0  0  0  0  0  0  0
   -0.0212    1.8761    3.8521 H   0  0  0  0  0  0  0  0  0  0  0  0
   -1.7349    1.5853    4.2320 H   0  0  0  0  0  0  0  0  0  0  0  0
   -0.5312    0.2997    4.4834 H   0  0  0  0  0  0  0  0  0  0  0  0
  5  6  2  0  0  0  0
  5  7  1  0  0  0  0
  2  3  1  0  0  0  0
  2  4  1  0  0  0  0
  2  5  1  0  0  0  0
  1  2  1  0  0  0  0
 22 23  2  0  0  0  0
 22 24  1  0  0  0  0
 20 21  1  0  0  0  0
 19 20  1  0  0  0  0
 17 18  1  0  0  0  0
 17 19  2  0  0  0  0
 15 16  1  0  0  0  0
 15 17  1  0  0  0  0
 14 15  1  0  0  0  0
 14 20  2  0  0  0  0
 11 12  1  0  0  0  0
 11 13  1  0  0  0  0
 11 14  1  0  0  0  0
  9 10  1  0  0  0  0
  9 11  1  0  0  0  0
  9 22  1  0  0  0  0
  7  8  1  0  0  0  0
  7  9  1  0  0  0  0
 26 27  1  0  0  0  0
 26 28  1  0  0  0  0
 26 29  1  0  0  0  0
 24 25  1  0  0  0  0
 24 26  1  0  0  0  0
M  END
$$$$
default_name
  -OEChem-02102213163D

 29 29  0     1  0  0  0  0  0999 V2000
   -3.6042   -3.5728    1.4576 H   0  0  0  0  0  0  0  0  0  0  0  0
   -3.5202   -2.6488    0.8866 C   0  0  0  0  0  0  0  0  0  0  0  0
   -4.2052   -1.9048    1.2896 H   0  0  0  0  0  0  0  0  0  0  0  0
   -3.7552   -2.8428   -0.1584 H   0  0  0  0  0  0  0  0  0  0  0  0
   -2.1052   -2.1358    0.9946 C   0  0  0  0  0  0  0  0  0  0  0  0
   -1.2852   -2.7288    1.6826 O   0  0  0  0  0  0  0  0  0  0  0  0
   -1.8202   -1.0288    0.3146 N   0  0  0  0  0  0  0  0  0  0  0  0
   -2.5542   -0.5788   -0.2104 H   0  0  0  0  0  0  0  0  0  0  0  0
   -0.5102   -0.3728    0.3086 C   0  0  1  0  0  0  0  0  0  0  0  0
    0.2354   -1.0844   -0.0490 H   0  0  0  0  0  0  0  0  0  0  0  0
   -0.5452    0.8158   -0.6698 C   0  0  0  0  0  0  0  0  0  0  0  0
   -1.4364    0.7379   -1.2950 H   0  0  0  0  0  0  0  0  0  0  0  0
   -0.6154    1.7439   -0.0996 H   0  0  0  0  0  0  0  0  0  0  0  0
    0.6635    0.8957   -1.5659 C   0  0  0  0  0  0  0  0  0  0  0  0
    1.8337    1.5734   -1.2988 N   0  0  0  0  0  0  0  0  0  0  0  0
    2.0080    2.1688   -0.5030 H   0  0  0  0  0  0  0  0  0  0  0  0
    2.7031    1.3072   -2.2881 C   0  0  0  0  0  0  0  0  0  0  0  0
    3.7092    1.7019   -2.3603 H   0  0  0  0  0  0  0  0  0  0  0  0
    2.1495    0.4740   -3.1812 N   0  0  0  0  0  0  0  0  0  0  0  0
    0.8521    0.2087   -2.7354 C   0  0  0  0  0  0  0  0  0  0  0  0
    0.1361   -0.4506   -3.2088 H   0  0  0  0  0  0  0  0  0  0  0  0
   -0.1073    0.0565    1.7296 C   0  0  0  0  0  0  0  0  0  0  0  0
    1.0285   -0.1699    2.1459 O   0  0  0  0  0  0  0  0  0  0  0  0
   -1.0395    0.6588    2.4785 N   0  0  0  0  0  0  0  0  0  0  0  0
   -1.9636    0.7597    2.0849 H   0  0  0  0  0  0  0  0  0  0  0  0
   -0.8222    1.1334    3.8425 C   0  0  0  0  0  0  0  0  0  0  0  0
   -0.0212    1.8761    3.8521 H   0  0  0  0  0  0  0  0  0  0  0  0
   -1.7349    1.5853    4.2320 H   0  0  0  0  0  0  0  0  0  0  0  0
   -0.5312    0.2997    4.4834 H   0  0  0  0  0  0  0  0  0  0  0  0
  5  6  2  0  0  0  0
  5  7  1  0  0  0  0
  2  3  1  0  0  0  0
  2  4  1  0  0  0  0
  2  5  1  0  0  0  0
  1  2  1  0  0  0  0
 22 23  2  0  0  0  0
 22 24  1  0  0  0  0
 20 21  1  0  0  0  0
 19 20  1  0  0  0  0
 17 18  1  0  0  0  0
 17 19  2  0  0  0  0
 15 16  1  0  0  0  0
 15 17  1  0  0  0  0
 14 15  1  0  0  0  0
 14 20  2  0  0  0  0
 11 12  1  0  0  0  0
 11 13  1  0  0  0  0
 11 14  1  0  0  0  0
  9 10  1  0  0  0  0
  9 11  1  0  0  0  0
  9 22  1  0  0  0  0
  7  8  1  0  0  0  0
  7  9  1  0  0  0  0
 26 27  1  0  0  0  0
 26 28  1  0  0  0  0
 26 29  1  0  0  0  0
 24 25  1  0  0  0  0
 24 26  1  0  0  0  0
M  END
$$$$
default_name
  -OEChem-02102213163D

 29 29  0     1  0  0  0  0  0999 V2000
   -3.6042   -3.5728    1.4576 H   0  0  0  0  0  0  0  0  0  0  0  0
   -3.5202   -2.6488    0.8866 C   0  0  0  0  0  0  0  0  0  0  0  0
   -4.2052   -1.9048    1.2896 H   0  0  0  0  0  0  0  0  0  0  0  0
   -3.7552   -2.8428   -0.1584 H   0  0  0  0  0  0  0  0  0  0  0  0
   -2.1052   -2.1358    0.9946 C   0  0  0  0  0  0  0  0  0  0  0  0
   -1.2852   -2.7288    1.6826 O   0  0  0  0  0  0  0  0  0  0  0  0
   -1.8202   -1.0288    0.3146 N   0  0  0  0  0  0  0  0  0  0  0  0
   -2.5542   -0.5788   -0.2104 H   0  0  0  0  0  0  0  0  0  0  0  0
   -0.5102   -0.3728    0.3086 C   0  0  1  0  0  0  0  0  0  0  0  0
    0.2354   -1.0844   -0.0490 H   0  0  0  0  0  0  0  0  0  0  0  0
   -0.5452    0.8158   -0.6698 C   0  0  0  0  0  0  0  0  0  0  0  0
   -1.4364    0.7379   -1.2950 H   0  0  0  0  0  0  0  0  0  0  0  0
   -0.6154    1.7439   -0.0996 H   0  0  0  0  0  0  0  0  0  0  0  0
    0.6635    0.8957   -1.5659 C   0  0  0  0  0  0  0  0  0  0  0  0
    1.9241    1.3162   -1.1998 N   0  0  0  0  0  0  0  0  0  0  0  0
    2.1868    1.6987   -0.3038 H   0  0  0  0  0  0  0  0  0  0  0  0
    2.7441    1.1329   -2.2483 C   0  0  0  0  0  0  0  0  0  0  0  0
    3.7995    1.3759   -2.2676 H   0  0  0  0  0  0  0  0  0  0  0  0
    2.0701    0.5988   -3.2773 N   0  0  0  0  0  0  0  0  0  0  0  0
    0.7460    0.4473   -2.8572 C   0  0  0  0  0  0  0  0  0  0  0  0
   -0.0626    0.0184   -3.4349 H   0  0  0  0  0  0  0  0  0  0  0  0
   -0.1073    0.0565    1.7296 C   0  0  0  0  0  0  0  0  0  0  0  0
    1.0285   -0.1699    2.1459 O   0  0  0  0  0  0  0  0  0  0  0  0
   -1.0395    0.6588    2.4785 N   0  0  0  0  0  0  0  0  0  0  0  0
   -1.9636    0.7597    2.0849 H   0  0  0  0  0  0  0  0  0  0  0  0
   -0.8222    1.1334    3.8425 C   0  0  0  0  0  0  0  0  0  0  0  0
   -0.0212    1.8761    3.8521 H   0  0  0  0  0  0  0  0  0  0  0  0
   -1.7349    1.5853    4.2320 H   0  0  0  0  0  0  0  0  0  0  0  0
   -0.5312    0.2997    4.4834 H   0  0  0  0  0  0  0  0  0  0  0  0
  5  6  2  0  0  0  0
  5  7  1  0  0  0  0
  2  3  1  0  0  0  0
  2  4  1  0  0  0  0
  2  5  1  0  0  0  0
  1  2  1  0  0  0  0
 22 23  2  0  0  0  0
 22 24  1  0  0  0  0
 20 21  1  0  0  0  0
 19 20  1  0  0  0  0
 17 18  1  0  0  0  0
 17 19  2  0  0  0  0
 15 16  1  0  0  0  0
 15 17  1  0  0  0  0
 14 15  1  0  0  0  0
 14 20  2  0  0  0  0
 11 12  1  0  0  0  0
 11 13  1  0  0  0  0
 11 14  1  0  0  0  0
  9 10  1  0  0  0  0
  9 11  1  0  0  0  0
  9 22  1  0  0  0  0
  7  8  1  0  0  0  0
  7  9  1  0  0  0  0
 26 27  1  0  0  0  0
 26 28  1  0  0  0  0
 26 29  1  0  0  0  0
 24 25  1  0  0  0  0
 24 26  1  0  0  0  0
M  END
$$$$
default_name
  -OEChem-02102213163D

 29 29  0     1  0  0  0  0  0999 V2000
   -3.6042   -3.5728    1.4576 H   0  0  0  0  0  0  0  0  0  0  0  0
   -3.5202   -2.6488    0.8866 C   0  0  0  0  0  0  0  0  0  0  0  0
   -4.2052   -1.9048    1.2896 H   0  0  0  0  0  0  0  0  0  0  0  0
   -3.7552   -2.8428   -0.1584 H   0  0  0  0  0  0  0  0  0  0  0  0
   -2.1052   -2.1358    0.9946 C   0  0  0  0  0  0  0  0  0  0  0  0
   -1.2852   -2.7288    1.6826 O   0  0  0  0  0  0  0  0  0  0  0  0
   -1.8202   -1.0288    0.3146 N   0  0  0  0  0  0  0  0  0  0  0  0
   -2.5542   -0.5788   -0.2104 H   0  0  0  0  0  0  0  0  0  0  0  0
   -0.5102   -0.3728    0.3086 C   0  0  1  0  0  0  0  0  0  0  0  0
    0.2354   -1.0844   -0.0490 H   0  0  0  0  0  0  0  0  0  0  0  0
   -0.5452    0.8158   -0.6698 C   0  0  0  0  0  0  0  0  0  0  0  0
   -1.4364    0.7379   -1.2950 H   0  0  0  0  0  0  0  0  0  0  0  0
   -0.6154    1.7439   -0.0996 H   0  0  0  0  0  0  0  0  0  0  0  0
    0.6635    0.8957   -1.5659 C   0  0  0  0  0  0  0  0  0  0  0  0
    1.9732    1.0333   -1.1588 N   0  0  0  0  0  0  0  0  0  0  0  0
    2.2899    1.1757   -0.2114 H   0  0  0  0  0  0  0  0  0  0  0  0
    2.7574    0.9500   -2.2467 C   0  0  0  0  0  0  0  0  0  0  0  0
    3.8378    1.0278   -2.2470 H   0  0  0  0  0  0  0  0  0  0  0  0
    2.0112    0.7516   -3.3431 N   0  0  0  0  0  0  0  0  0  0  0  0
    0.6786    0.7195   -2.9239 C   0  0  0  0  0  0  0  0  0  0  0  0
   -0.1853    0.5490   -3.5532 H   0  0  0  0  0  0  0  0  0  0  0  0
   -0.1073    0.0565    1.7296 C   0  0  0  0  0  0  0  0  0  0  0  0
    1.0285   -0.1699    2.1459 O   0  0  0  0  0  0  0  0  0  0  0  0
   -1.0395    0.6588    2.4785 N   0  0  0  0  0  0  0  0  0  0  0  0
   -1.9636    0.7597    2.0849 H   0  0  0  0  0  0  0  0  0  0  0  0
   -0.8222    1.1334    3.8425 C   0  0  0  0  0  0  0  0  0  0  0  0
   -0.0212    1.8761    3.8521 H   0  0  0  0  0  0  0  0  0  0  0  0
   -1.7349    1.5853    4.2320 H   0  0  0  0  0  0  0  0  0  0  0  0
   -0.5312    0.2997    4.4834 H   0  0  0  0  0  0  0  0  0  0  0  0
  5  6  2  0  0  0  0
  5  7  1  0  0  0  0
  2  3  1  0  0  0  0
  2  4  1  0  0  0  0
  2  5  1  0  0  0  0
  1  2  1  0  0  0  0
 22 23  2  0  0  0  0
 22 24  1  0  0  0  0
 20 21  1  0  0  0  0
 19 20  1  0  0  0  0
 17 18  1  0  0  0  0
 17 19  2  0  0  0  0
 15 16  1  0  0  0  0
 15 17  1  0  0  0  0
 14 15  1  0  0  0  0
 14 20  2  0  0  0  0
 11 12  1  0  0  0  0
 11 13  1  0  0  0  0
 11 14  1  0  0  0  0
  9 10  1  0  0  0  0
  9 11  1  0  0  0  0
  9 22  1  0  0  0  0
  7  8  1  0  0  0  0
  7  9  1  0  0  0  0
 26 27  1  0  0  0  0
 26 28  1  0  0  0  0
 26 29  1  0  0  0  0
 24 25  1  0  0  0  0
 24 26  1  0  0  0  0
M  END
$$$$
default_name
  -OEChem-02102213163D

 29 29  0     1  0  0  0  0  0999 V2000
   -3.6042   -3.5728    1.4576 H   0  0  0  0  0  0  0  0  0  0  0  0
   -3.5202   -2.6488    0.8866 C   0  0  0  0  0  0  0  0  0  0  0  0
   -4.2052   -1.9048    1.2896 H   0  0  0  0  0  0  0  0  0  0  0  0
   -3.7552   -2.8428   -0.1584 H   0  0  0  0  0  0  0  0  0  0  0  0
   -2.1052   -2.1358    0.9946 C   0  0  0  0  0  0  0  0  0  0  0  0
   -1.2852   -2.7288    1.6826 O   0  0  0  0  0  0  0  0  0  0  0  0
   -1.8202   -1.0288    0.3146 N   0  0  0  0  0  0  0  0  0  0  0  0
   -2.5542   -0.5788   -0.2104 H   0  0  0  0  0  0  0  0  0  0  0  0
   -0.5102   -0.3728    0.3086 C   0  0  1  0  0  0  0  0  0  0  0  0
    0.2354   -1.0844   -0.0490 H   0  0  0  0  0  0  0  0  0  0  0  0
   -0.5452    0.8158   -0.6698 C   0  0  0  0  0  0  0  0  0  0  0  0
   -1.4364    0.7379   -1.2950 H   0  0  0  0  0  0  0  0  0  0  0  0
   -0.6154    1.7439   -0.0996 H   0  0  0  0  0  0  0  0  0  0  0  0
    0.6635    0.8957   -1.5659 C   0  0  0  0  0  0  0  0  0  0  0  0
    1.9776    0.7439   -1.1786 N   0  0  0  0  0  0  0  0  0  0  0  0
    2.3102    0.6355   -0.2322 H   0  0  0  0  0  0  0  0  0  0  0  0
    2.7421    0.7710   -2.2832 C   0  0  0  0  0  0  0  0  0  0  0  0
    3.8215    0.6814   -2.2999 H   0  0  0  0  0  0  0  0  0  0  0  0
    1.9769    0.9218   -3.3741 N   0  0  0  0  0  0  0  0  0  0  0  0
    0.6545    1.0065   -2.9308 C   0  0  0  0  0  0  0  0  0  0  0  0
   -0.2238    1.1049   -3.5556 H   0  0  0  0  0  0  0  0  0  0  0  0
   -0.1073    0.0565    1.7296 C   0  0  0  0  0  0  0  0  0  0  0  0
    1.0285   -0.1699    2.1459 O   0  0  0  0  0  0  0  0  0  0  0  0
   -1.0395    0.6588    2.4785 N   0  0  0  0  0  0  0  0  0  0  0  0
   -1.9636    0.7597    2.0849 H   0  0  0  0  0  0  0  0  0  0  0  0
   -0.8222    1.1334    3.8425 C   0  0  0  0  0  0  0  0  0  0  0  0
   -0.0212    1.8761    3.8521 H   0  0  0  0  0  0  0  0  0  0  0  0
   -1.7349    1.5853    4.2320 H   0  0  0  0  0  0  0  0  0  0  0  0
   -0.5312    0.2997    4.4834 H   0  0  0  0  0  0  0  0  0  0  0  0
  5  6  2  0  0  0  0
  5  7  1  0  0  0  0
  2  3  1  0  0  0  0
  2  4  1  0  0  0  0
  2  5  1  0  0  0  0
  1  2  1  0  0  0  0
 22 23  2  0  0  0  0
 22 24  1  0  0  0  0
 20 21  1  0  0  0  0
 19 20  1  0  0  0  0
 17 18  1  0  0  0  0
 17 19  2  0  0  0  0
 15 16  1  0  0  0  0
 15 17  1  0  0  0  0
 14 15  1  0  0  0  0
 14 20  2  0  0  0  0
 11 12  1  0  0  0  0
 11 13  1  0  0  0  0
 11 14  1  0  0  0  0
  9 10  1  0  0  0  0
  9 11  1  0  0  0  0
  9 22  1  0  0  0  0
  7  8  1  0  0  0  0
  7  9  1  0  0  0  0
 26 27  1  0  0  0  0
 26 28  1  0  0  0  0
 26 29  1  0  0  0  0
 24 25  1  0  0  0  0
 24 26  1  0  0  0  0
M  END
$$$$
default_name
  -OEChem-02102213163D

 29 29  0     1  0  0  0  0  0999 V2000
   -3.6042   -3.5728    1.4576 H   0  0  0  0  0  0  0  0  0  0  0  0
   -3.5202   -2.6488    0.8866 C   0  0  0  0  0  0  0  0  0  0  0  0
   -4.2052   -1.9048    1.2896 H   0  0  0  0  0  0  0  0  0  0  0  0
   -3.7552   -2.8428   -0.1584 H   0  0  0  0  0  0  0  0  0  0  0  0
   -2.1052   -2.1358    0.9946 C   0  0  0  0  0  0  0  0  0  0  0  0
   -1.2852   -2.7288    1.6826 O   0  0  0  0  0  0  0  0  0  0  0  0
   -1.8202   -1.0288    0.3146 N   0  0  0  0  0  0  0  0  0  0  0  0
   -2.5542   -0.5788   -0.2104 H   0  0  0  0  0  0  0  0  0  0  0  0
   -0.5102   -0.3728    0.3086 C   0  0  1  0  0  0  0  0  0  0  0  0
    0.2354   -1.0844   -0.0490 H   0  0  0  0  0  0  0  0  0  0  0  0
   -0.5452    0.8158   -0.6698 C   0  0  0  0  0  0  0  0  0  0  0  0
   -1.4364    0.7379   -1.2950 H   0  0  0  0  0  0  0  0  0  0  0  0
   -0.6154    1.7439   -0.0996 H   0  0  0  0  0  0  0  0  0  0  0  0
    0.6635    0.8957   -1.5659 C   0  0  0  0  0  0  0  0  0  0  0  0
    1.9371    0.4679   -1.2579 N   0  0  0  0  0  0  0  0  0  0  0  0
    2.2464    0.1149   -0.3647 H   0  0  0  0  0  0  0  0  0  0  0  0
    2.6993    0.6079   -2.3555 C   0  0  0  0  0  0  0  0  0  0  0  0
    3.7517    0.3603   -2.4227 H   0  0  0  0  0  0  0  0  0  0  0  0
    1.9696    1.0980   -3.3683 N   0  0  0  0  0  0  0  0  0  0  0  0
    0.6753    1.2890   -2.8776 C   0  0  0  0  0  0  0  0  0  0  0  0
   -0.1755    1.6483   -3.4420 H   0  0  0  0  0  0  0  0  0  0  0  0
   -0.1073    0.0565    1.7296 C   0  0  0  0  0  0  0  0  0  0  0  0
    1.0285   -0.1699    2.1459 O   0  0  0  0  0  0  0  0  0  0  0  0
   -1.0395    0.6588    2.4785 N   0  0  0  0  0  0  0  0  0  0  0  0
   -1.9636    0.7597    2.0849 H   0  0  0  0  0  0  0  0  0  0  0  0
   -0.8222    1.1334    3.8425 C   0  0  0  0  0  0  0  0  0  0  0  0
   -0.0212    1.8761    3.8521 H   0  0  0  0  0  0  0  0  0  0  0  0
   -1.7349    1.5853    4.2320 H   0  0  0  0  0  0  0  0  0  0  0  0
   -0.5312    0.2997    4.4834 H   0  0  0  0  0  0  0  0  0  0  0  0
  5  6  2  0  0  0  0
  5  7  1  0  0  0  0
  2  3  1  0  0  0  0
  2  4  1  0  0  0  0
  2  5  1  0  0  0  0
  1  2  1  0  0  0  0
 22 23  2  0  0  0  0
 22 24  1  0  0  0  0
 20 21  1  0  0  0  0
 19 20  1  0  0  0  0
 17 18  1  0  0  0  0
 17 19  2  0  0  0  0
 15 16  1  0  0  0  0
 15 17  1  0  0  0  0
 14 15  1  0  0  0  0
 14 20  2  0  0  0  0
 11 12  1  0  0  0  0
 11 13  1  0  0  0  0
 11 14  1  0  0  0  0
  9 10  1  0  0  0  0
  9 11  1  0  0  0  0
  9 22  1  0  0  0  0
  7  8  1  0  0  0  0
  7  9  1  0  0  0  0
 26 27  1  0  0  0  0
 26 28  1  0  0  0  0
 26 29  1  0  0  0  0
 24 25  1  0  0  0  0
 24 26  1  0  0  0  0
M  END
$$$$
default_name
  -OEChem-02102213163D

 29 29  0     1  0  0  0  0  0999 V2000
   -3.6042   -3.5728    1.4576 H   0  0  0  0  0  0  0  0  0  0  0  0
   -3.5202   -2.6488    0.8866 C   0  0  0  0  0  0  0  0  0  0  0  0
   -4.2052   -1.9048    1.2896 H   0  0  0  0  0  0  0  0  0  0  0  0
   -3.7552   -2.8428   -0.1584 H   0  0  0  0  0  0  0  0  0  0  0  0
   -2.1052   -2.1358    0.9946 C   0  0  0  0  0  0  0  0  0  0  0  0
   -1.2852   -2.7288    1.6826 O   0  0  0  0  0  0  0  0  0  0  0  0
   -1.8202   -1.0288    0.3146 N   0  0  0  0  0  0  0  0  0  0  0  0
   -2.5542   -0.5788   -0.2104 H   0  0  0  0  0  0  0  0  0  0  0  0
   -0.5102   -0.3728    0.3086 C   0  0  1  0  0  0  0  0  0  0  0  0
    0.2354   -1.0844   -0.0490 H   0  0  0  0  0  0  0  0  0  0  0  0
   -0.5452    0.8158   -0.6698 C   0  0  0  0  0  0  0  0  0  0  0  0
   -1.4364    0.7379   -1.2950 H   0  0  0  0  0  0  0  0  0  0  0  0
   -0.6154    1.7439   -0.0996 H   0  0  0  0  0  0  0  0  0  0  0  0
    0.6635    0.8957   -1.5659 C   0  0  0  0  0  0  0  0  0  0  0  0
    1.8544    0.2239   -1.3912 N   0  0  0  0  0  0  0  0  0  0  0  0
    2.1028   -0.3506   -0.5998 H   0  0  0  0  0  0  0  0  0  0  0  0
    2.6319    0.4721   -2.4586 C   0  0  0  0  0  0  0  0  0  0  0  0
    3.6331    0.0864   -2.6069 H   0  0  0  0  0  0  0  0  0  0  0  0
    1.9897    1.2681   -3.3259 N   0  0  0  0  0  0  0  0  0  0  0  0
    0.7396    1.5475   -2.7679 C   0  0  0  0  0  0  0  0  0  0  0  0
   -0.0436    2.1422   -3.2200 H   0  0  0  0  0  0  0  0  0  0  0  0
   -0.1073    0.0565    1.7296 C   0  0  0  0  0  0  0  0  0  0  0  0
    1.0285   -0.1699    2.1459 O   0  0  0  0  0  0  0  0  0  0  0  0
   -1.0395    0.6588    2.4785 N   0  0  0  0  0  0  0  0  0  0  0  0
   -1.9636    0.7597    2.0849 H   0  0  0  0  0  0  0  0  0  0  0  0
   -0.8222    1.1334    3.8425 C   0  0  0  0  0  0  0  0  0  0  0  0
   -0.0212    1.8761    3.8521 H   0  0  0  0  0  0  0  0  0  0  0  0
   -1.7349    1.5853    4.2320 H   0  0  0  0  0  0  0  0  0  0  0  0
   -0.5312    0.2997    4.4834 H   0  0  0  0  0  0  0  0  0  0  0  0
  5  6  2  0  0  0  0
  5  7  1  0  0  0  0
  2  3  1  0  0  0  0
  2  4  1  0  0  0  0
  2  5  1  0  0  0  0
  1  2  1  0  0  0  0
 22 23  2  0  0  0  0
 22 24  1  0  0  0  0
 20 21  1  0  0  0  0
 19 20  1  0  0  0  0
 17 18  1  0  0  0  0
 17 19  2  0  0  0  0
 15 16  1  0  0  0  0
 15 17  1  0  0  0  0
 14 15  1  0  0  0  0
 14 20  2  0  0  0  0
 11 12  1  0  0  0  0
 11 13  1  0  0  0  0
 11 14  1  0  0  0  0
  9 10  1  0  0  0  0
  9 11  1  0  0  0  0
  9 22  1  0  0  0  0
  7  8  1  0  0  0  0
  7  9  1  0  0  0  0
 26 27  1  0  0  0  0
 26 28  1  0  0  0  0
 26 29  1  0  0  0  0
 24 25  1  0  0  0  0
 24 26  1  0  0  0  0
M  END
$$$$
default_name
  -OEChem-02102213163D

 29 29  0     1  0  0  0  0  0999 V2000
   -3.6042   -3.5728    1.4576 H   0  0  0  0  0  0  0  0  0  0  0  0
   -3.5202   -2.6488    0.8866 C   0  0  0  0  0  0  0  0  0  0  0  0
   -4.2052   -1.9048    1.2896 H   0  0  0  0  0  0  0  0  0  0  0  0
   -3.7552   -2.8428   -0.1584 H   0  0  0  0  0  0  0  0  0  0  0  0
   -2.1052   -2.1358    0.9946 C   0  0  0  0  0  0  0  0  0  0  0  0
   -1.2852   -2.7288    1.6826 O   0  0  0  0  0  0  0  0  0  0  0  0
   -1.8202   -1.0288    0.3146 N   0  0  0  0  0  0  0  0  0  0  0  0
   -2.5542   -0.5788   -0.2104 H   0  0  0  0  0  0  0  0  0  0  0  0
   -0.5102   -0.3728    0.3086 C   0  0  1  0  0  0  0  0  0  0  0  0
    0.2354   -1.0844   -0.0490 H   0  0  0  0  0  0  0  0  0  0  0  0
   -0.5452    0.8158   -0.6698 C   0  0  0  0  0  0  0  0  0  0  0  0
   -1.4364    0.7379   -1.2950 H   0  0  0  0  0  0  0  0  0  0  0  0
   -0.6154    1.7439   -0.0996 H   0  0  0  0  0  0  0  0  0  0  0  0
    0.6635    0.8957   -1.5659 C   0  0  0  0  0  0  0  0  0  0  0  0
    1.7351    0.0287   -1.5695 N   0  0  0  0  0  0  0  0  0  0  0  0
    1.8892   -0.7293   -0.9217 H   0  0  0  0  0  0  0  0  0  0  0  0
    2.5444    0.3726   -2.5855 C   0  0  0  0  0  0  0  0  0  0  0  0
    3.4740   -0.1216   -2.8402 H   0  0  0  0  0  0  0  0  0  0  0  0
    2.0360    1.4205   -3.2500 N   0  0  0  0  0  0  0  0  0  0  0  0
    0.8430    1.7646   -2.6090 C   0  0  0  0  0  0  0  0  0  0  0  0
    0.1628    2.5528   -2.9050 H   0  0  0  0  0  0  0  0  0  0  0  0
   -0.1073    0.0565    1.7296 C   0  0  0  0  0  0  0  0  0  0  0  0
    1.0285   -0.1699    2.1459 O   0  0  0  0  0  0  0  0  0  0  0  0
   -1.0395    0.6588    2.4785 N   0  0  0  0  0  0  0  0  0  0  0  0
   -1.9636    0.7597    2.0849 H   0  0  0  0  0  0  0  0  0  0  0  0
   -0.8222    1.1334    3.8425 C   0  0  0  0  0  0  0  0  0  0  0  0
   -0.0212    1.8761    3.8521 H   0  0  0  0  0  0  0  0  0  0  0  0
   -1.7349    1.5853    4.2320 H   0  0  0  0  0  0  0  0  0  0  0  0
   -0.5312    0.2997    4.4834 H   0  0  0  0  0  0  0  0  0  0  0  0
  5  6  2  0  0  0  0
  5  7  1  0  0  0  0
  2  3  1  0  0  0  0
  2  4  1  0  0  0  0
  2  5  1  0  0  0  0
  1  2  1  0  0  0  0
 22 23  2  0  0  0  0
 22 24  1  0  0  0  0
 20 21  1  0  0  0  0
 19 20  1  0  0  0  0
 17 18  1  0  0  0  0
 17 19  2  0  0  0  0
 15 16  1  0  0  0  0
 15 17  1  0  0  0  0
 14 15  1  0  0  0  0
 14 20  2  0  0  0  0
 11 12  1  0  0  0  0
 11 13  1  0  0  0  0
 11 14  1  0  0  0  0
  9 10  1  0  0  0  0
  9 11  1  0  0  0  0
  9 22  1  0  0  0  0
  7  8  1  0  0  0  0
  7  9  1  0  0  0  0
 26 27  1  0  0  0  0
 26 28  1  0  0  0  0
 26 29  1  0  0  0  0
 24 25  1  0  0  0  0
 24 26  1  0  0  0  0
M  END
$$$$
default_name
  -OEChem-02102213163D

 29 29  0     1  0  0  0  0  0999 V2000
   -3.6042   -3.5728    1.4576 H   0  0  0  0  0  0  0  0  0  0  0  0
   -3.5202   -2.6488    0.8866 C   0  0  0  0  0  0  0  0  0  0  0  0
   -4.2052   -1.9048    1.2896 H   0  0  0  0  0  0  0  0  0  0  0  0
   -3.7552   -2.8428   -0.1584 H   0  0  0  0  0  0  0  0  0  0  0  0
   -2.1052   -2.1358    0.9946 C   0  0  0  0  0  0  0  0  0  0  0  0
   -1.2852   -2.7288    1.6826 O   0  0  0  0  0  0  0  0  0  0  0  0
   -1.8202   -1.0288    0.3146 N   0  0  0  0  0  0  0  0  0  0  0  0
   -2.5542   -0.5788   -0.2104 H   0  0  0  0  0  0  0  0  0  0  0  0
   -0.5102   -0.3728    0.3086 C   0  0  1  0  0  0  0  0  0  0  0  0
    0.2354   -1.0844   -0.0490 H   0  0  0  0  0  0  0  0  0  0  0  0
   -0.5452    0.8158   -0.6698 C   0  0  0  0  0  0  0  0  0  0  0  0
   -1.4364    0.7379   -1.2950 H   0  0  0  0  0  0  0  0  0  0  0  0
   -0.6154    1.7439   -0.0996 H   0  0  0  0  0  0  0  0  0  0  0  0
    0.6635    0.8957   -1.5659 C   0  0  0  0  0  0  0  0  0  0  0  0
    1.5873   -0.1045   -1.7807 N   0  0  0  0  0  0  0  0  0  0  0  0
    1.6202   -0.9955   -1.3082 H   0  0  0  0  0  0  0  0  0  0  0  0
    2.4429    0.3163   -2.7274 C   0  0  0  0  0  0  0  0  0  0  0  0
    3.2850   -0.2497   -3.1065 H   0  0  0  0  0  0  0  0  0  0  0  0
    2.1051    1.5449   -3.1457 N   0  0  0  0  0  0  0  0  0  0  0  0
    0.9784    1.9254   -2.4120 C   0  0  0  0  0  0  0  0  0  0  0  0
    0.4298    2.8523   -2.5182 H   0  0  0  0  0  0  0  0  0  0  0  0
   -0.1073    0.0565    1.7296 C   0  0  0  0  0  0  0  0  0  0  0  0
    1.0285   -0.1699    2.1459 O   0  0  0  0  0  0  0  0  0  0  0  0
   -1.0395    0.6588    2.4785 N   0  0  0  0  0  0  0  0  0  0  0  0
   -1.9636    0.7597    2.0849 H   0  0  0  0  0  0  0  0  0  0  0  0
   -0.8222    1.1334    3.8425 C   0  0  0  0  0  0  0  0  0  0  0  0
   -0.0212    1.8761    3.8521 H   0  0  0  0  0  0  0  0  0  0  0  0
   -1.7349    1.5853    4.2320 H   0  0  0  0  0  0  0  0  0  0  0  0
   -0.5312    0.2997    4.4834 H   0  0  0  0  0  0  0  0  0  0  0  0
  5  6  2  0  0  0  0
  5  7  1  0  0  0  0
  2  3  1  0  0  0  0
  2  4  1  0  0  0  0
  2  5  1  0  0  0  0
  1  2  1  0  0  0  0
 22 23  2  0  0  0  0
 22 24  1  0  0  0  0
 20 21  1  0  0  0  0
 19 20  1  0  0  0  0
 17 18  1  0  0  0  0
 17 19  2  0  0  0  0
 15 16  1  0  0  0  0
 15 17  1  0  0  0  0
 14 15  1  0  0  0  0
 14 20  2  0  0  0  0
 11 12  1  0  0  0  0
 11 13  1  0  0  0  0
 11 14  1  0  0  0  0
  9 10  1  0  0  0  0
  9 11  1  0  0  0  0
  9 22  1  0  0  0  0
  7  8  1  0  0  0  0
  7  9  1  0  0  0  0
 26 27  1  0  0  0  0
 26 28  1  0  0  0  0
 26 29  1  0  0  0  0
 24 25  1  0  0  0  0
 24 26  1  0  0  0  0
M  END
$$$$
default_name
  -OEChem-02102213163D

 29 29  0     1  0  0  0  0  0999 V2000
   -3.6042   -3.5728    1.4576 H   0  0  0  0  0  0  0  0  0  0  0  0
   -3.5202   -2.6488    0.8866 C   0  0  0  0  0  0  0  0  0  0  0  0
   -4.2052   -1.9048    1.2896 H   0  0  0  0  0  0  0  0  0  0  0  0
   -3.7552   -2.8428   -0.1584 H   0  0  0  0  0  0  0  0  0  0  0  0
   -2.1052   -2.1358    0.9946 C   0  0  0  0  0  0  0  0  0  0  0  0
   -1.2852   -2.7288    1.6826 O   0  0  0  0  0  0  0  0  0  0  0  0
   -1.8202   -1.0288    0.3146 N   0  0  0  0  0  0  0  0  0  0  0  0
   -2.5542   -0.5788   -0.2104 H   0  0  0  0  0  0  0  0  0  0  0  0
   -0.5102   -0.3728    0.3086 C   0  0  1  0  0  0  0  0  0  0  0  0
    0.2354   -1.0844   -0.0490 H   0  0  0  0  0  0  0  0  0  0  0  0
   -0.5452    0.8158   -0.6698 C   0  0  0  0  0  0  0  0  0  0  0  0
   -1.4364    0.7379   -1.2950 H   0  0  0  0  0  0  0  0  0  0  0  0
   -0.6154    1.7439   -0.0996 H   0  0  0  0  0  0  0  0  0  0  0  0
    0.6635    0.8957   -1.5659 C   0  0  0  0  0  0  0  0  0  0  0  0
    1.4213   -0.1666   -2.0102 N   0  0  0  0  0  0  0  0  0  0  0  0
    1.3141   -1.1309   -1.7332 H   0  0  0  0  0  0  0  0  0  0  0  0
    2.3342    0.3071   -2.8749 C   0  0  0  0  0  0  0  0  0  0  0  0
    3.0790   -0.2890   -3.3877 H   0  0  0  0  0  0  0  0  0  0  0  0
    2.1925    1.6327   -3.0200 N   0  0  0  0  0  0  0  0  0  0  0  0
    1.1368    2.0190   -2.1901 C   0  0  0  0  0  0  0  0  0  0  0  0
    0.7391    3.0202   -2.0861 H   0  0  0  0  0  0  0  0  0  0  0  0
   -0.1073    0.0565    1.7296 C   0  0  0  0  0  0  0  0  0  0  0  0
    1.0285   -0.1699    2.1459 O   0  0  0  0  0  0  0  0  0  0  0  0
   -1.0395    0.6588    2.4785 N   0  0  0  0  0  0  0  0  0  0  0  0
   -1.9636    0.7597    2.0849 H   0  0  0  0  0  0  0  0  0  0  0  0
   -0.8222    1.1334    3.8425 C   0  0  0  0  0  0  0  0  0  0  0  0
   -0.0212    1.8761    3.8521 H   0  0  0  0  0  0  0  0  0  0  0  0
   -1.7349    1.5853    4.2320 H   0  0  0  0  0  0  0  0  0  0  0  0
   -0.5312    0.2997    4.4834 H   0  0  0  0  0  0  0  0  0  0  0  0
  5  6  2  0  0  0  0
  5  7  1  0  0  0  0
  2  3  1  0  0  0  0
  2  4  1  0  0  0  0
  2  5  1  0  0  0  0
  1  2  1  0  0  0  0
 22 23  2  0  0  0  0
 22 24  1  0  0  0  0
 20 21  1  0  0  0  0
 19 20  1  0  0  0  0
 17 18  1  0  0  0  0
 17 19  2  0  0  0  0
 15 16  1  0  0  0  0
 15 17  1  0  0  0  0
 14 15  1  0  0  0  0
 14 20  2  0  0  0  0
 11 12  1  0  0  0  0
 11 13  1  0  0  0  0
 11 14  1  0  0  0  0
  9 10  1  0  0  0  0
  9 11  1  0  0  0  0
  9 22  1  0  0  0  0
  7  8  1  0  0  0  0
  7  9  1  0  0  0  0
 26 27  1  0  0  0  0
 26 28  1  0  0  0  0
 26 29  1  0  0  0  0
 24 25  1  0  0  0  0
 24 26  1  0  0  0  0
M  END
$$$$
default_name
  -OEChem-02102213163D

 29 29  0     1  0  0  0  0  0999 V2000
   -3.6042   -3.5728    1.4576 H   0  0  0  0  0  0  0  0  0  0  0  0
   -3.5202   -2.6488    0.8866 C   0  0  0  0  0  0  0  0  0  0  0  0
   -4.2052   -1.9048    1.2896 H   0  0  0  0  0  0  0  0  0  0  0  0
   -3.7552   -2.8428   -0.1584 H   0  0  0  0  0  0  0  0  0  0  0  0
   -2.1052   -2.1358    0.9946 C   0  0  0  0  0  0  0  0  0  0  0  0
   -1.2852   -2.7288    1.6826 O   0  0  0  0  0  0  0  0  0  0  0  0
   -1.8202   -1.0288    0.3146 N   0  0  0  0  0  0  0  0  0  0  0  0
   -2.5542   -0.5788   -0.2104 H   0  0  0  0  0  0  0  0  0  0  0  0
   -0.5102   -0.3728    0.3086 C   0  0  1  0  0  0  0  0  0  0  0  0
    0.2354   -1.0844   -0.0490 H   0  0  0  0  0  0  0  0  0  0  0  0
   -0.5452    0.8158   -0.6698 C   0  0  0  0  0  0  0  0  0  0  0  0
   -1.4364    0.7379   -1.2950 H   0  0  0  0  0  0  0  0  0  0  0  0
   -0.6154    1.7439   -0.0996 H   0  0  0  0  0  0  0  0  0  0  0  0
    0.6635    0.8957   -1.5659 C   0  0  0  0  0  0  0  0  0  0  0  0
    1.2481   -0.1533   -2.2425 N   0  0  0  0  0  0  0  0  0  0  0  0
    0.9917   -1.1263   -2.1676 H   0  0  0  0  0  0  0  0  0  0  0  0
    2.2257    0.3455   -3.0177 C   0  0  0  0  0  0  0  0  0  0  0  0
    2.8702   -0.2369   -3.6647 H   0  0  0  0  0  0  0  0  0  0  0  0
    2.2921    1.6779   -2.8816 N   0  0  0  0  0  0  0  0  0  0  0  0
    1.3071    2.0389   -1.9586 C   0  0  0  0  0  0  0  0  0  0  0  0
    1.0696    3.0450   -1.6381 H   0  0  0  0  0  0  0  0  0  0  0  0
   -0.1073    0.0565    1.7296 C   0  0  0  0  0  0  0  0  0  0  0  0
    1.0285   -0.1699    2.1459 O   0  0  0  0  0  0  0  0  0  0  0  0
   -1.0395    0.6588    2.4785 N   0  0  0  0  0  0  0  0  0  0  0  0
   -1.9636    0.7597    2.0849 H   0  0  0  0  0  0  0  0  0  0  0  0
   -0.8222    1.1334    3.8425 C   0  0  0  0  0  0  0  0  0  0  0  0
   -0.0212    1.8761    3.8521 H   0  0  0  0  0  0  0  0  0  0  0  0
   -1.7349    1.5853    4.2320 H   0  0  0  0  0  0  0  0  0  0  0  0
   -0.5312    0.2997    4.4834 H   0  0  0  0  0  0  0  0  0  0  0  0
  5  6  2  0  0  0  0
  5  7  1  0  0  0  0
  2  3  1  0  0  0  0
  2  4  1  0  0  0  0
  2  5  1  0  0  0  0
  1  2  1  0  0  0  0
 22 23  2  0  0  0  0
 22 24  1  0  0  0  0
 20 21  1  0  0  0  0
 19 20  1  0  0  0  0
 17 18  1  0  0  0  0
 17 19  2  0  0  0  0
 15 16  1  0  0  0  0
 15 17  1  0  0  0  0
 14 15  1  0  0  0  0
 14 20  2  0  0  0  0
 11 12  1  0  0  0  0
 11 13  1  0  0  0  0
 11 14  1  0  0  0  0
  9 10  1  0  0  0  0
  9 11  1  0  0  0  0
  9 22  1  0  0  0  0
  7  8  1  0  0  0  0
  7  9  1  0  0  0  0
 26 27  1  0  0  0  0
 26 28  1  0  0  0  0
 26 29  1  0  0  0  0
 24 25  1  0  0  0  0
 24 26  1  0  0  0  0
M  END
$$$$
default_name
  -OEChem-02102213163D

 29 29  0     1  0  0  0  0  0999 V2000
   -3.6042   -3.5728    1.4576 H   0  0  0  0  0  0  0  0  0  0  0  0
   -3.5202   -2.6488    0.8866 C   0  0  0  0  0  0  0  0  0  0  0  0
   -4.2052   -1.9048    1.2896 H   0  0  0  0  0  0  0  0  0  0  0  0
   -3.7552   -2.8428   -0.1584 H   0  0  0  0  0  0  0  0  0  0  0  0
   -2.1052   -2.1358    0.9946 C   0  0  0  0  0  0  0  0  0  0  0  0
   -1.2852   -2.7288    1.6826 O   0  0  0  0  0  0  0  0  0  0  0  0
   -1.8202   -1.0288    0.3146 N   0  0  0  0  0  0  0  0  0  0  0  0
   -2.5542   -0.5788   -0.2104 H   0  0  0  0  0  0  0  0  0  0  0  0
   -0.5102   -0.3728    0.3086 C   0  0  1  0  0  0  0  0  0  0  0  0
    0.2354   -1.0844   -0.0490 H   0  0  0  0  0  0  0  0  0  0  0  0
   -0.5452    0.8158   -0.6698 C   0  0  0  0  0  0  0  0  0  0  0  0
   -1.4364    0.7379   -1.2950 H   0  0  0  0  0  0  0  0  0  0  0  0
   -0.6154    1.7439   -0.0996 H   0  0  0  0  0  0  0  0  0  0  0  0
    0.6635    0.8957   -1.5659 C   0  0  0  0  0  0  0  0  0  0  0  0
    1.0797   -0.0656   -2.4618 N   0  0  0  0  0  0  0  0  0  0  0  0
    0.6750   -0.9821   -2.5818 H   0  0  0  0  0  0  0  0  0  0  0  0
    2.1249    0.4290   -3.1462 C   0  0  0  0  0  0  0  0  0  0  0  0
    2.6728   -0.0969   -3.9186 H   0  0  0  0  0  0  0  0  0  0  0  0
    2.3972    1.6776   -2.7399 N   0  0  0  0  0  0  0  0  0  0  0  0
    1.4779    1.9838   -1.7331 C   0  0  0  0  0  0  0  0  0  0  0  0
    1.3988    2.9251   -1.2048 H   0  0  0  0  0  0  0  0  0  0  0  0
   -0.1073    0.0565    1.7296 C   0  0  0  0  0  0  0  0  0  0  0  0
    1.0285   -0.1699    2.1459 O   0  0  0  0  0  0  0  0  0  0  0  0
   -1.0395    0.6588    2.4785 N   0  0  0  0  0  0  0  0  0  0  0  0
   -1.9636    0.7597    2.0849 H   0  0  0  0  0  0  0  0  0  0  0  0
   -0.8222    1.1334    3.8425 C   0  0  0  0  0  0  0  0  0  0  0  0
   -0.0212    1.8761    3.8521 H   0  0  0  0  0  0  0  0  0  0  0  0
   -1.7349    1.5853    4.2320 H   0  0  0  0  0  0  0  0  0  0  0  0
   -0.5312    0.2997    4.4834 H   0  0  0  0  0  0  0  0  0  0  0  0
  5  6  2  0  0  0  0
  5  7  1  0  0  0  0
  2  3  1  0  0  0  0
  2  4  1  0  0  0  0
  2  5  1  0  0  0  0
  1  2  1  0  0  0  0
 22 23  2  0  0  0  0
 22 24  1  0  0  0  0
 20 21  1  0  0  0  0
 19 20  1  0  0  0  0
 17 18  1  0  0  0  0
 17 19  2  0  0  0  0
 15 16  1  0  0  0  0
 15 17  1  0  0  0  0
 14 15  1  0  0  0  0
 14 20  2  0  0  0  0
 11 12  1  0  0  0  0
 11 13  1  0  0  0  0
 11 14  1  0  0  0  0
  9 10  1  0  0  0  0
  9 11  1  0  0  0  0
  9 22  1  0  0  0  0
  7  8  1  0  0  0  0
  7  9  1  0  0  0  0
 26 27  1  0  0  0  0
 26 28  1  0  0  0  0
 26 29  1  0  0  0  0
 24 25  1  0  0  0  0
 24 26  1  0  0  0  0
M  END
$$$$
default_name
  -OEChem-02102213163D

 29 29  0     1  0  0  0  0  0999 V2000
   -3.6042   -3.5728    1.4576 H   0  0  0  0  0  0  0  0  0  0  0  0
   -3.5202   -2.6488    0.8866 C   0  0  0  0  0  0  0  0  0  0  0  0
   -4.2052   -1.9048    1.2896 H   0  0  0  0  0  0  0  0  0  0  0  0
   -3.7552   -2.8428   -0.1584 H   0  0  0  0  0  0  0  0  0  0  0  0
   -2.1052   -2.1358    0.9946 C   0  0  0  0  0  0  0  0  0  0  0  0
   -1.2852   -2.7288    1.6826 O   0  0  0  0  0  0  0  0  0  0  0  0
   -1.8202   -1.0288    0.3146 N   0  0  0  0  0  0  0  0  0  0  0  0
   -2.5542   -0.5788   -0.2104 H   0  0  0  0  0  0  0  0  0  0  0  0
   -0.5102   -0.3728    0.3086 C   0  0  1  0  0  0  0  0  0  0  0  0
    0.2354   -1.0844   -0.0490 H   0  0  0  0  0  0  0  0  0  0  0  0
   -0.5452    0.8158   -0.6698 C   0  0  0  0  0  0  0  0  0  0  0  0
   -1.4364    0.7379   -1.2950 H   0  0  0  0  0  0  0  0  0  0  0  0
   -0.6154    1.7439   -0.0996 H   0  0  0  0  0  0  0  0  0  0  0  0
    0.6635    0.8957   -1.5659 C   0  0  0  0  0  0  0  0  0  0  0  0
    0.9276    0.0905   -2.6531 N   0  0  0  0  0  0  0  0  0  0  0  0
    0.3857   -0.7081   -2.9476 H   0  0  0  0  0  0  0  0  0  0  0  0
    2.0387    0.5518   -3.2516 C   0  0  0  0  0  0  0  0  0  0  0  0
    2.5001    0.1214   -4.1320 H   0  0  0  0  0  0  0  0  0  0  0  0
    2.5006    1.6317   -2.6045 N   0  0  0  0  0  0  0  0  0  0  0  0
    1.6375    1.8576   -1.5291 C   0  0  0  0  0  0  0  0  0  0  0  0
    1.7043    2.6687   -0.8156 H   0  0  0  0  0  0  0  0  0  0  0  0
   -0.1073    0.0565    1.7296 C   0  0  0  0  0  0  0  0  0  0  0  0
    1.0285   -0.1699    2.1459 O   0  0  0  0  0  0  0  0  0  0  0  0
   -1.0395    0.6588    2.4785 N   0  0  0  0  0  0  0  0  0  0  0  0
   -1.9636    0.7597    2.0849 H   0  0  0  0  0  0  0  0  0  0  0  0
   -0.8222    1.1334    3.8425 C   0  0  0  0  0  0  0  0  0  0  0  0
   -0.0212    1.8761    3.8521 H   0  0  0  0  0  0  0  0  0  0  0  0
   -1.7349    1.5853    4.2320 H   0  0  0  0  0  0  0  0  0  0  0  0
   -0.5312    0.2997    4.4834 H   0  0  0  0  0  0  0  0  0  0  0  0
  5  6  2  0  0  0  0
  5  7  1  0  0  0  0
  2  3  1  0  0  0  0
  2  4  1  0  0  0  0
  2  5  1  0  0  0  0
  1  2  1  0  0  0  0
 22 23  2  0  0  0  0
 22 24  1  0  0  0  0
 20 21  1  0  0  0  0
 19 20  1  0  0  0  0
 17 18  1  0  0  0  0
 17 19  2  0  0  0  0
 15 16  1  0  0  0  0
 15 17  1  0  0  0  0
 14 15  1  0  0  0  0
 14 20  2  0  0  0  0
 11 12  1  0  0  0  0
 11 13  1  0  0  0  0
 11 14  1  0  0  0  0
  9 10  1  0  0  0  0
  9 11  1  0  0  0  0
  9 22  1  0  0  0  0
  7  8  1  0  0  0  0
  7  9  1  0  0  0  0
 26 27  1  0  0  0  0
 26 28  1  0  0  0  0
 26 29  1  0  0  0  0
 24 25  1  0  0  0  0
 24 26  1  0  0  0  0
M  END
$$$$
default_name
  -OEChem-02102213163D

 29 29  0     1  0  0  0  0  0999 V2000
   -3.6042   -3.5728    1.4576 H   0  0  0  0  0  0  0  0  0  0  0  0
   -3.5202   -2.6488    0.8866 C   0  0  0  0  0  0  0  0  0  0  0  0
   -4.2052   -1.9048    1.2896 H   0  0  0  0  0  0  0  0  0  0  0  0
   -3.7552   -2.8428   -0.1584 H   0  0  0  0  0  0  0  0  0  0  0  0
   -2.1052   -2.1358    0.9946 C   0  0  0  0  0  0  0  0  0  0  0  0
   -1.2852   -2.7288    1.6826 O   0  0  0  0  0  0  0  0  0  0  0  0
   -1.8202   -1.0288    0.3146 N   0  0  0  0  0  0  0  0  0  0  0  0
   -2.5542   -0.5788   -0.2104 H   0  0  0  0  0  0  0  0  0  0  0  0
   -0.5102   -0.3728    0.3086 C   0  0  1  0  0  0  0  0  0  0  0  0
    0.2354   -1.0844   -0.0490 H   0  0  0  0  0  0  0  0  0  0  0  0
   -0.5452    0.8158   -0.6698 C   0  0  0  0  0  0  0  0  0  0  0  0
   -1.4364    0.7379   -1.2950 H   0  0  0  0  0  0  0  0  0  0  0  0
   -0.6154    1.7439   -0.0996 H   0  0  0  0  0  0  0  0  0  0  0  0
    0.6635    0.8957   -1.5659 C   0  0  0  0  0  0  0  0  0  0  0  0
    0.8020    0.3045   -2.8034 N   0  0  0  0  0  0  0  0  0  0  0  0
    0.1434   -0.3229   -3.2401 H   0  0  0  0  0  0  0  0  0  0  0  0
    1.9728    0.7055   -3.3268 C   0  0  0  0  0  0  0  0  0  0  0  0
    2.3640    0.4032   -4.2905 H   0  0  0  0  0  0  0  0  0  0  0  0
    2.5953    1.5433   -2.4847 N   0  0  0  0  0  0  0  0  0  0  0  0
    1.7750    1.6687   -1.3604 C   0  0  0  0  0  0  0  0  0  0  0  0
    1.9652    2.2932   -0.4971 H   0  0  0  0  0  0  0  0  0  0  0  0
   -0.1073    0.0565    1.7296 C   0  0  0  0  0  0  0  0  0  0  0  0
    1.0285   -0.1699    2.1459 O   0  0  0  0  0  0  0  0  0  0  0  0
   -1.0395    0.6588    2.4785 N   0  0  0  0  0  0  0  0  0  0  0  0
   -1.9636    0.7597    2.0849 H   0  0  0  0  0  0  0  0  0  0  0  0
   -0.8222    1.1334    3.8425 C   0  0  0  0  0  0  0  0  0  0  0  0
   -0.0212    1.8761    3.8521 H   0  0  0  0  0  0  0  0  0  0  0  0
   -1.7349    1.5853    4.2320 H   0  0  0  0  0  0  0  0  0  0  0  0
   -0.5312    0.2997    4.4834 H   0  0  0  0  0  0  0  0  0  0  0  0
  5  6  2  0  0  0  0
  5  7  1  0  0  0  0
  2  3  1  0  0  0  0
  2  4  1  0  0  0  0
  2  5  1  0  0  0  0
  1  2  1  0  0  0  0
 22 23  2  0  0  0  0
 22 24  1  0  0  0  0
 20 21  1  0  0  0  0
 19 20  1  0  0  0  0
 17 18  1  0  0  0  0
 17 19  2  0  0  0  0
 15 16  1  0  0  0  0
 15 17  1  0  0  0  0
 14 15  1  0  0  0  0
 14 20  2  0  0  0  0
 11 12  1  0  0  0  0
 11 13  1  0  0  0  0
 11 14  1  0  0  0  0
  9 10  1  0  0  0  0
  9 11  1  0  0  0  0
  9 22  1  0  0  0  0
  7  8  1  0  0  0  0
  7  9  1  0  0  0  0
 26 27  1  0  0  0  0
 26 28  1  0  0  0  0
 26 29  1  0  0  0  0
 24 25  1  0  0  0  0
 24 26  1  0  0  0  0
M  END
$$$$
default_name
  -OEChem-02102213163D

 29 29  0     1  0  0  0  0  0999 V2000
   -3.6042   -3.5728    1.4576 H   0  0  0  0  0  0  0  0  0  0  0  0
   -3.5202   -2.6488    0.8866 C   0  0  0  0  0  0  0  0  0  0  0  0
   -4.2052   -1.9048    1.2896 H   0  0  0  0  0  0  0  0  0  0  0  0
   -3.7552   -2.8428   -0.1584 H   0  0  0  0  0  0  0  0  0  0  0  0
   -2.1052   -2.1358    0.9946 C   0  0  0  0  0  0  0  0  0  0  0  0
   -1.2852   -2.7288    1.6826 O   0  0  0  0  0  0  0  0  0  0  0  0
   -1.8202   -1.0288    0.3146 N   0  0  0  0  0  0  0  0  0  0  0  0
   -2.5542   -0.5788   -0.2104 H   0  0  0  0  0  0  0  0  0  0  0  0
   -0.5102   -0.3728    0.3086 C   0  0  1  0  0  0  0  0  0  0  0  0
    0.2354   -1.0844   -0.0490 H   0  0  0  0  0  0  0  0  0  0  0  0
   -0.5452    0.8158   -0.6698 C   0  0  0  0  0  0  0  0  0  0  0  0
   -1.4364    0.7379   -1.2950 H   0  0  0  0  0  0  0  0  0  0  0  0
   -0.6154    1.7439   -0.0996 H   0  0  0  0  0  0  0  0  0  0  0  0
    0.6635    0.8957   -1.5659 C   0  0  0  0  0  0  0  0  0  0  0  0
    0.7116    0.5617   -2.9024 N   0  0  0  0  0  0  0  0  0  0  0  0
   -0.0354    0.1472   -3.4394 H   0  0  0  0  0  0  0  0  0  0  0  0
    1.9318    0.8798   -3.3665 C   0  0  0  0  0  0  0  0  0  0  0  0
    2.2737    0.7292   -4.3832 H   0  0  0  0  0  0  0  0  0  0  0  0
    2.6747    1.4185   -2.3887 N   0  0  0  0  0  0  0  0  0  0  0  0
    1.8811    1.4300   -1.2386 C   0  0  0  0  0  0  0  0  0  0  0  0
    2.1638    1.8241   -0.2711 H   0  0  0  0  0  0  0  0  0  0  0  0
   -0.1073    0.0565    1.7296 C   0  0  0  0  0  0  0  0  0  0  0  0
    1.0285   -0.1699    2.1459 O   0  0  0  0  0  0  0  0  0  0  0  0
   -1.0395    0.6588    2.4785 N   0  0  0  0  0  0  0  0  0  0  0  0
   -1.9636    0.7597    2.0849 H   0  0  0  0  0  0  0  0  0  0  0  0
   -0.8222    1.1334    3.8425 C   0  0  0  0  0  0  0  0  0  0  0  0
   -0.0212    1.8761    3.8521 H   0  0  0  0  0  0  0  0  0  0  0  0
   -1.7349    1.5853    4.2320 H   0  0  0  0  0  0  0  0  0  0  0  0
   -0.5312    0.2997    4.4834 H   0  0  0  0  0  0  0  0  0  0  0  0
  5  6  2  0  0  0  0
  5  7  1  0  0  0  0
  2  3  1  0  0  0  0
  2  4  1  0  0  0  0
  2  5  1  0  0  0  0
  1  2  1  0  0  0  0
 22 23  2  0  0  0  0
 22 24  1  0  0  0  0
 20 21  1  0  0  0  0
 19 20  1  0  0  0  0
 17 18  1  0  0  0  0
 17 19  2  0  0  0  0
 15 16  1  0  0  0  0
 15 17  1  0  0  0  0
 14 15  1  0  0  0  0
 14 20  2  0  0  0  0
 11 12  1  0  0  0  0
 11 13  1  0  0  0  0
 11 14  1  0  0  0  0
  9 10  1  0  0  0  0
  9 11  1  0  0  0  0
  9 22  1  0  0  0  0
  7  8  1  0  0  0  0
  7  9  1  0  0  0  0
 26 27  1  0  0  0  0
 26 28  1  0  0  0  0
 26 29  1  0  0  0  0
 24 25  1  0  0  0  0
 24 26  1  0  0  0  0
M  END
$$$$
default_name
  -OEChem-02102213163D

 29 29  0     1  0  0  0  0  0999 V2000
   -3.6042   -3.5728    1.4576 H   0  0  0  0  0  0  0  0  0  0  0  0
   -3.5202   -2.6488    0.8866 C   0  0  0  0  0  0  0  0  0  0  0  0
   -4.2052   -1.9048    1.2896 H   0  0  0  0  0  0  0  0  0  0  0  0
   -3.7552   -2.8428   -0.1584 H   0  0  0  0  0  0  0  0  0  0  0  0
   -2.1052   -2.1358    0.9946 C   0  0  0  0  0  0  0  0  0  0  0  0
   -1.2852   -2.7288    1.6826 O   0  0  0  0  0  0  0  0  0  0  0  0
   -1.8202   -1.0288    0.3146 N   0  0  0  0  0  0  0  0  0  0  0  0
   -2.5542   -0.5788   -0.2104 H   0  0  0  0  0  0  0  0  0  0  0  0
   -0.5102   -0.3728    0.3086 C   0  0  1  0  0  0  0  0  0  0  0  0
    0.2354   -1.0844   -0.0490 H   0  0  0  0  0  0  0  0  0  0  0  0
   -0.5452    0.8158   -0.6698 C   0  0  0  0  0  0  0  0  0  0  0  0
   -1.4364    0.7379   -1.2950 H   0  0  0  0  0  0  0  0  0  0  0  0
   -0.6154    1.7439   -0.0996 H   0  0  0  0  0  0  0  0  0  0  0  0
    0.6635    0.8957   -1.5659 C   0  0  0  0  0  0  0  0  0  0  0  0
    0.6625    0.8446   -2.9434 N   0  0  0  0  0  0  0  0  0  0  0  0
   -0.1385    0.6702   -3.5317 H   0  0  0  0  0  0  0  0  0  0  0  0
    1.9185    1.0627   -3.3682 C   0  0  0  0  0  0  0  0  0  0  0  0
    2.2354    1.0773   -4.4038 H   0  0  0  0  0  0  0  0  0  0  0  0
    2.7336    1.2657   -2.3229 N   0  0  0  0  0  0  0  0  0  0  0  0
    1.9485    1.1579   -1.1720 C   0  0  0  0  0  0  0  0  0  0  0  0
    2.2866    1.2936   -0.1528 H   0  0  0  0  0  0  0  0  0  0  0  0
   -0.1073    0.0565    1.7296 C   0  0  0  0  0  0  0  0  0  0  0  0
    1.0285   -0.1699    2.1459 O   0  0  0  0  0  0  0  0  0  0  0  0
   -1.0395    0.6588    2.4785 N   0  0  0  0  0  0  0  0  0  0  0  0
   -1.9636    0.7597    2.0849 H   0  0  0  0  0  0  0  0  0  0  0  0
   -0.8222    1.1334    3.8425 C   0  0  0  0  0  0  0  0  0  0  0  0
   -0.0212    1.8761    3.8521 H   0  0  0  0  0  0  0  0  0  0  0  0
   -1.7349    1.5853    4.2320 H   0  0  0  0  0  0  0  0  0  0  0  0
   -0.5312    0.2997    4.4834 H   0  0  0  0  0  0  0  0  0  0  0  0
  5  6  2  0  0  0  0
  5  7  1  0  0  0  0
  2  3  1  0  0  0  0
  2  4  1  0  0  0  0
  2  5  1  0  0  0  0
  1  2  1  0  0  0  0
 22 23  2  0  0  0  0
 22 24  1  0  0  0  0
 20 21  1  0  0  0  0
 19 20  1  0  0  0  0
 17 18  1  0  0  0  0
 17 19  2  0  0  0  0
 15 16  1  0  0  0  0
 15 17  1  0  0  0  0
 14 15  1  0  0  0  0
 14 20  2  0  0  0  0
 11 12  1  0  0  0  0
 11 13  1  0  0  0  0
 11 14  1  0  0  0  0
  9 10  1  0  0  0  0
  9 11  1  0  0  0  0
  9 22  1  0  0  0  0
  7  8  1  0  0  0  0
  7  9  1  0  0  0  0
 26 27  1  0  0  0  0
 26 28  1  0  0  0  0
 26 29  1  0  0  0  0
 24 25  1  0  0  0  0
 24 26  1  0  0  0  0
M  END
$$$$
default_name
  -OEChem-02102213163D

 29 29  0     1  0  0  0  0  0999 V2000
   -3.6042   -3.5728    1.4576 H   0  0  0  0  0  0  0  0  0  0  0  0
   -3.5202   -2.6488    0.8866 C   0  0  0  0  0  0  0  0  0  0  0  0
   -4.2052   -1.9048    1.2896 H   0  0  0  0  0  0  0  0  0  0  0  0
   -3.7552   -2.8428   -0.1584 H   0  0  0  0  0  0  0  0  0  0  0  0
   -2.1052   -2.1358    0.9946 C   0  0  0  0  0  0  0  0  0  0  0  0
   -1.2852   -2.7288    1.6826 O   0  0  0  0  0  0  0  0  0  0  0  0
   -1.8202   -1.0288    0.3146 N   0  0  0  0  0  0  0  0  0  0  0  0
   -2.5542   -0.5788   -0.2104 H   0  0  0  0  0  0  0  0  0  0  0  0
   -0.5102   -0.3728    0.3086 C   0  0  1  0  0  0  0  0  0  0  0  0
    0.2354   -1.0844   -0.0490 H   0  0  0  0  0  0  0  0  0  0  0  0
   -0.5452    0.8158   -0.6698 C   0  0  0  0  0  0  0  0  0  0  0  0
   -1.4364    0.7379   -1.2950 H   0  0  0  0  0  0  0  0  0  0  0  0
   -0.6154    1.7439   -0.0996 H   0  0  0  0  0  0  0  0  0  0  0  0
    0.6635    0.8957   -1.5659 C   0  0  0  0  0  0  0  0  0  0  0  0
    0.6581    1.1340   -2.9236 N   0  0  0  0  0  0  0  0  0  0  0  0
   -0.1588    1.2104   -3.5110 H   0  0  0  0  0  0  0  0  0  0  0  0
    1.9337    1.2418   -3.3316 C   0  0  0  0  0  0  0  0  0  0  0  0
    2.2517    1.4237   -4.3509 H   0  0  0  0  0  0  0  0  0  0  0  0
    2.7679    1.0955   -2.2918 N   0  0  0  0  0  0  0  0  0  0  0  0
    1.9727    0.8708   -1.1650 C   0  0  0  0  0  0  0  0  0  0  0  0
    2.3251    0.7377   -0.1504 H   0  0  0  0  0  0  0  0  0  0  0  0
   -0.1073    0.0565    1.7296 C   0  0  0  0  0  0  0  0  0  0  0  0
    1.0285   -0.1699    2.1459 O   0  0  0  0  0  0  0  0  0  0  0  0
   -1.0395    0.6588    2.4785 N   0  0  0  0  0  0  0  0  0  0  0  0
   -1.9636    0.7597    2.0849 H   0  0  0  0  0  0  0  0  0  0  0  0
   -0.8222    1.1334    3.8425 C   0  0  0  0  0  0  0  0  0  0  0  0
   -0.0212    1.8761    3.8521 H   0  0  0  0  0  0  0  0  0  0  0  0
   -1.7349    1.5853    4.2320 H   0  0  0  0  0  0  0  0  0  0  0  0
   -0.5312    0.2997    4.4834 H   0  0  0  0  0  0  0  0  0  0  0  0
  5  6  2  0  0  0  0
  5  7  1  0  0  0  0
  2  3  1  0  0  0  0
  2  4  1  0  0  0  0
  2  5  1  0  0  0  0
  1  2  1  0  0  0  0
 22 23  2  0  0  0  0
 22 24  1  0  0  0  0
 20 21  1  0  0  0  0
 19 20  1  0  0  0  0
 17 18  1  0  0  0  0
 17 19  2  0  0  0  0
 15 16  1  0  0  0  0
 15 17  1  0  0  0  0
 14 15  1  0  0  0  0
 14 20  2  0  0  0  0
 11 12  1  0  0  0  0
 11 13  1  0  0  0  0
 11 14  1  0  0  0  0
  9 10  1  0  0  0  0
  9 11  1  0  0  0  0
  9 22  1  0  0  0  0
  7  8  1  0  0  0  0
  7  9  1  0  0  0  0
 26 27  1  0  0  0  0
 26 28  1  0  0  0  0
 26 29  1  0  0  0  0
 24 25  1  0  0  0  0
 24 26  1  0  0  0  0
M  END
$$$$
default_name
  -OEChem-02102213163D

 29 29  0     1  0  0  0  0  0999 V2000
   -3.6042   -3.5728    1.4576 H   0  0  0  0  0  0  0  0  0  0  0  0
   -3.5202   -2.6488    0.8866 C   0  0  0  0  0  0  0  0  0  0  0  0
   -4.2052   -1.9048    1.2896 H   0  0  0  0  0  0  0  0  0  0  0  0
   -3.7552   -2.8428   -0.1584 H   0  0  0  0  0  0  0  0  0  0  0  0
   -2.1052   -2.1358    0.9946 C   0  0  0  0  0  0  0  0  0  0  0  0
   -1.2852   -2.7288    1.6826 O   0  0  0  0  0  0  0  0  0  0  0  0
   -1.8202   -1.0288    0.3146 N   0  0  0  0  0  0  0  0  0  0  0  0
   -2.5542   -0.5788   -0.2104 H   0  0  0  0  0  0  0  0  0  0  0  0
   -0.5102   -0.3728    0.3086 C   0  0  1  0  0  0  0  0  0  0  0  0
    0.2354   -1.0844   -0.0490 H   0  0  0  0  0  0  0  0  0  0  0  0
   -0.5452    0.8158   -0.6698 C   0  0  0  0  0  0  0  0  0  0  0  0
   -1.4364    0.7379   -1.2950 H   0  0  0  0  0  0  0  0  0  0  0  0
   -0.6154    1.7439   -0.0996 H   0  0  0  0  0  0  0  0  0  0  0  0
    0.6635    0.8957   -1.5659 C   0  0  0  0  0  0  0  0  0  0  0  0
    0.6986    1.4100   -2.8443 N   0  0  0  0  0  0  0  0  0  0  0  0
   -0.0950    1.7310   -3.3785 H   0  0  0  0  0  0  0  0  0  0  0  0
    1.9766    1.4048   -3.2593 C   0  0  0  0  0  0  0  0  0  0  0  0
    2.3215    1.7448   -4.2282 H   0  0  0  0  0  0  0  0  0  0  0  0
    2.7752    0.9193   -2.2977 N   0  0  0  0  0  0  0  0  0  0  0  0
    1.9519    0.5884   -1.2183 C   0  0  0  0  0  0  0  0  0  0  0  0
    2.2768    0.1943   -0.2640 H   0  0  0  0  0  0  0  0  0  0  0  0
   -0.1073    0.0565    1.7296 C   0  0  0  0  0  0  0  0  0  0  0  0
    1.0285   -0.1699    2.1459 O   0  0  0  0  0  0  0  0  0  0  0  0
   -1.0395    0.6588    2.4785 N   0  0  0  0  0  0  0  0  0  0  0  0
   -1.9636    0.7597    2.0849 H   0  0  0  0  0  0  0  0  0  0  0  0
   -0.8222    1.1334    3.8425 C   0  0  0  0  0  0  0  0  0  0  0  0
   -0.0212    1.8761    3.8521 H   0  0  0  0  0  0  0  0  0  0  0  0
   -1.7349    1.5853    4.2320 H   0  0  0  0  0  0  0  0  0  0  0  0
   -0.5312    0.2997    4.4834 H   0  0  0  0  0  0  0  0  0  0  0  0
  5  6  2  0  0  0  0
  5  7  1  0  0  0  0
  2  3  1  0  0  0  0
  2  4  1  0  0  0  0
  2  5  1  0  0  0  0
  1  2  1  0  0  0  0
 22 23  2  0  0  0  0
 22 24  1  0  0  0  0
 20 21  1  0  0  0  0
 19 20  1  0  0  0  0
 17 18  1  0  0  0  0
 17 19  2  0  0  0  0
 15 16  1  0  0  0  0
 15 17  1  0  0  0  0
 14 15  1  0  0  0  0
 14 20  2  0  0  0  0
 11 12  1  0  0  0  0
 11 13  1  0  0  0  0
 11 14  1  0  0  0  0
  9 10  1  0  0  0  0
  9 11  1  0  0  0  0
  9 22  1  0  0  0  0
  7  8  1  0  0  0  0
  7  9  1  0  0  0  0
 26 27  1  0  0  0  0
 26 28  1  0  0  0  0
 26 29  1  0  0  0  0
 24 25  1  0  0  0  0
 24 26  1  0  0  0  0
M  END
$$$$
default_name
  -OEChem-02102213163D

 29 29  0     1  0  0  0  0  0999 V2000
   -3.6042   -3.5728    1.4576 H   0  0  0  0  0  0  0  0  0  0  0  0
   -3.5202   -2.6488    0.8866 C   0  0  0  0  0  0  0  0  0  0  0  0
   -4.2052   -1.9048    1.2896 H   0  0  0  0  0  0  0  0  0  0  0  0
   -3.7552   -2.8428   -0.1584 H   0  0  0  0  0  0  0  0  0  0  0  0
   -2.1052   -2.1358    0.9946 C   0  0  0  0  0  0  0  0  0  0  0  0
   -1.2852   -2.7288    1.6826 O   0  0  0  0  0  0  0  0  0  0  0  0
   -1.8202   -1.0288    0.3146 N   0  0  0  0  0  0  0  0  0  0  0  0
   -2.5542   -0.5788   -0.2104 H   0  0  0  0  0  0  0  0  0  0  0  0
   -0.5102   -0.3728    0.3086 C   0  0  1  0  0  0  0  0  0  0  0  0
    0.2354   -1.0844   -0.0490 H   0  0  0  0  0  0  0  0  0  0  0  0
   -0.5452    0.8158   -0.6698 C   0  0  0  0  0  0  0  0  0  0  0  0
   -1.4364    0.7379   -1.2950 H   0  0  0  0  0  0  0  0  0  0  0  0
   -0.6154    1.7439   -0.0996 H   0  0  0  0  0  0  0  0  0  0  0  0
    0.6635    0.8957   -1.5659 C   0  0  0  0  0  0  0  0  0  0  0  0
    0.7814    1.6540   -2.7110 N   0  0  0  0  0  0  0  0  0  0  0  0
    0.0486    2.1965   -3.1433 H   0  0  0  0  0  0  0  0  0  0  0  0
    2.0440    1.5407   -3.1562 C   0  0  0  0  0  0  0  0  0  0  0  0
    2.4400    2.0187   -4.0439 H   0  0  0  0  0  0  0  0  0  0  0  0
    2.7550    0.7492   -2.3400 N   0  0  0  0  0  0  0  0  0  0  0  0
    1.8876    0.3298   -1.3280 C   0  0  0  0  0  0  0  0  0  0  0  0
    2.1449   -0.2996   -0.4859 H   0  0  0  0  0  0  0  0  0  0  0  0
   -0.1073    0.0565    1.7296 C   0  0  0  0  0  0  0  0  0  0  0  0
    1.0285   -0.1699    2.1459 O   0  0  0  0  0  0  0  0  0  0  0  0
   -1.0395    0.6588    2.4785 N   0  0  0  0  0  0  0  0  0  0  0  0
   -1.9636    0.7597    2.0849 H   0  0  0  0  0  0  0  0  0  0  0  0
   -0.8222    1.1334    3.8425 C   0  0  0  0  0  0  0  0  0  0  0  0
   -0.0212    1.8761    3.8521 H   0  0  0  0  0  0  0  0  0  0  0  0
   -1.7349    1.5853    4.2320 H   0  0  0  0  0  0  0  0  0  0  0  0
   -0.5312    0.2997    4.4834 H   0  0  0  0  0  0  0  0  0  0  0  0
  5  6  2  0  0  0  0
  5  7  1  0  0  0  0
  2  3  1  0  0  0  0
  2  4  1  0  0  0  0
  2  5  1  0  0  0  0
  1  2  1  0  0  0  0
 22 23  2  0  0  0  0
 22 24  1  0  0  0  0
 20 21  1  0  0  0  0
 19 20  1  0  0  0  0
 17 18  1  0  0  0  0
 17 19  2  0  0  0  0
 15 16  1  0  0  0  0
 15 17  1  0  0  0  0
 14 15  1  0  0  0  0
 14 20  2  0  0  0  0
 11 12  1  0  0  0  0
 11 13  1  0  0  0  0
 11 14  1  0  0  0  0
  9 10  1  0  0  0  0
  9 11  1  0  0  0  0
  9 22  1  0  0  0  0
  7  8  1  0  0  0  0
  7  9  1  0  0  0  0
 26 27  1  0  0  0  0
 26 28  1  0  0  0  0
 26 29  1  0  0  0  0
 24 25  1  0  0  0  0
 24 26  1  0  0  0  0
M  END
$$$$
default_name
  -OEChem-02102213163D

 29 29  0     1  0  0  0  0  0999 V2000
   -3.6042   -3.5728    1.4576 H   0  0  0  0  0  0  0  0  0  0  0  0
   -3.5202   -2.6488    0.8866 C   0  0  0  0  0  0  0  0  0  0  0  0
   -4.2052   -1.9048    1.2896 H   0  0  0  0  0  0  0  0  0  0  0  0
   -3.7552   -2.8428   -0.1584 H   0  0  0  0  0  0  0  0  0  0  0  0
   -2.1052   -2.1358    0.9946 C   0  0  0  0  0  0  0  0  0  0  0  0
   -1.2852   -2.7288    1.6826 O   0  0  0  0  0  0  0  0  0  0  0  0
   -1.8202   -1.0288    0.3146 N   0  0  0  0  0  0  0  0  0  0  0  0
   -2.5542   -0.5788   -0.2104 H   0  0  0  0  0  0  0  0  0  0  0  0
   -0.5102   -0.3728    0.3086 C   0  0  1  0  0  0  0  0  0  0  0  0
    0.2354   -1.0844   -0.0490 H   0  0  0  0  0  0  0  0  0  0  0  0
   -0.5452    0.8158   -0.6698 C   0  0  0  0  0  0  0  0  0  0  0  0
   -1.5440    0.8928   -1.1030 H   0  0  0  0  0  0  0  0  0  0  0  0
   -0.3468    1.7366   -0.1182 H   0  0  0  0  0  0  0  0  0  0  0  0
    0.4559    0.7048   -1.7904 C   0  0  0  0  0  0  0  0  0  0  0  0
    0.6477    1.6165   -2.8063 N   0  0  0  0  0  0  0  0  0  0  0  0
    0.0921    2.4411   -2.9784 H   0  0  0  0  0  0  0  0  0  0  0  0
    1.7029    1.2126   -3.5335 C   0  0  0  0  0  0  0  0  0  0  0  0
    2.0943    1.7224   -4.4053 H   0  0  0  0  0  0  0  0  0  0  0  0
    2.2124    0.0817   -3.0240 N   0  0  0  0  0  0  0  0  0  0  0  0
    1.4260   -0.2532   -1.9186 C   0  0  0  0  0  0  0  0  0  0  0  0
    1.5775   -1.0977   -1.2588 H   0  0  0  0  0  0  0  0  0  0  0  0
   -0.1073    0.0565    1.7296 C   0  0  0  0  0  0  0  0  0  0  0  0
    1.0285   -0.1699    2.1459 O   0  0  0  0  0  0  0  0  0  0  0  0
   -1.0395    0.6588    2.4785 N   0  0  0  0  0  0  0  0  0  0  0  0
   -1.9636    0.7597    2.0849 H   0  0  0  0  0  0  0  0  0  0  0  0
   -0.8222    1.1334    3.8425 C   0  0  0  0  0  0  0  0  0  0  0  0
   -0.0212    1.8761    3.8521 H   0  0  0  0  0  0  0  0  0  0  0  0
   -1.7349    1.5853    4.2320 H   0  0  0  0  0  0  0  0  0  0  0  0
   -0.5312    0.2997    4.4834 H   0  0  0  0  0  0  0  0  0  0  0  0
  5  6  2  0  0  0  0
  5  7  1  0  0  0  0
  2  3  1  0  0  0  0
  2  4  1  0  0  0  0
  2  5  1  0  0  0  0
  1  2  1  0  0  0  0
 22 23  2  0  0  0  0
 22 24  1  0  0  0  0
 20 21  1  0  0  0  0
 19 20  1  0  0  0  0
 17 18  1  0  0  0  0
 17 19  2  0  0  0  0
 15 16  1  0  0  0  0
 15 17  1  0  0  0  0
 14 15  1  0  0  0  0
 14 20  2  0  0  0  0
 11 12  1  0  0  0  0
 11 13  1  0  0  0  0
 11 14  1  0  0  0  0
  9 10  1  0  0  0  0
  9 11  1  0  0  0  0
  9 22  1  0  0  0  0
  7  8  1  0  0  0  0
  7  9  1  0  0  0  0
 26 27  1  0  0  0  0
 26 28  1  0  0  0  0
 26 29  1  0  0  0  0
 24 25  1  0  0  0  0
 24 26  1  0  0  0  0
M  END
$$$$
default_name
  -OEChem-02102213163D

 29 29  0     1  0  0  0  0  0999 V2000
   -3.6042   -3.5728    1.4576 H   0  0  0  0  0  0  0  0  0  0  0  0
   -3.5202   -2.6488    0.8866 C   0  0  0  0  0  0  0  0  0  0  0  0
   -4.2052   -1.9048    1.2896 H   0  0  0  0  0  0  0  0  0  0  0  0
   -3.7552   -2.8428   -0.1584 H   0  0  0  0  0  0  0  0  0  0  0  0
   -2.1052   -2.1358    0.9946 C   0  0  0  0  0  0  0  0  0  0  0  0
   -1.2852   -2.7288    1.6826 O   0  0  0  0  0  0  0  0  0  0  0  0
   -1.8202   -1.0288    0.3146 N   0  0  0  0  0  0  0  0  0  0  0  0
   -2.5542   -0.5788   -0.2104 H   0  0  0  0  0  0  0  0  0  0  0  0
   -0.5102   -0.3728    0.3086 C   0  0  1  0  0  0  0  0  0  0  0  0
    0.2354   -1.0844   -0.0490 H   0  0  0  0  0  0  0  0  0  0  0  0
   -0.5452    0.8158   -0.6698 C   0  0  0  0  0  0  0  0  0  0  0  0
   -1.5440    0.8928   -1.1030 H   0  0  0  0  0  0  0  0  0  0  0  0
   -0.3468    1.7366   -0.1182 H   0  0  0  0  0  0  0  0  0  0  0  0
    0.4559    0.7048   -1.7904 C   0  0  0  0  0  0  0  0  0  0  0  0
    0.8545    1.7212   -2.6319 N   0  0  0  0  0  0  0  0  0  0  0  0
    0.4730    2.6550   -2.6593 H   0  0  0  0  0  0  0  0  0  0  0  0
    1.8386    1.2498   -3.4159 C   0  0  0  0  0  0  0  0  0  0  0  0
    2.3512    1.8146   -4.1850 H   0  0  0  0  0  0  0  0  0  0  0  0
    2.1044   -0.0284   -3.1096 N   0  0  0  0  0  0  0  0  0  0  0  0
    1.2294   -0.3873   -2.0810 C   0  0  0  0  0  0  0  0  0  0  0  0
    1.1931   -1.3448   -1.5778 H   0  0  0  0  0  0  0  0  0  0  0  0
   -0.1073    0.0565    1.7296 C   0  0  0  0  0  0  0  0  0  0  0  0
    1.0285   -0.1699    2.1459 O   0  0  0  0  0  0  0  0  0  0  0  0
   -1.0395    0.6588    2.4785 N   0  0  0  0  0  0  0  0  0  0  0  0
   -1.9636    0.7597    2.0849 H   0  0  0  0  0  0  0  0  0  0  0  0
   -0.8222    1.1334    3.8425 C   0  0  0  0  0  0  0  0  0  0  0  0
   -0.0212    1.8761    3.8521 H   0  0  0  0  0  0  0  0  0  0  0  0
   -1.7349    1.5853    4.2320 H   0  0  0  0  0  0  0  0  0  0  0  0
   -0.5312    0.2997    4.4834 H   0  0  0  0  0  0  0  0  0  0  0  0
  5  6  2  0  0  0  0
  5  7  1  0  0  0  0
  2  3  1  0  0  0  0
  2  4  1  0  0  0  0
  2  5  1  0  0  0  0
  1  2  1  0  0  0  0
 22 23  2  0  0  0  0
 22 24  1  0  0  0  0
 20 21  1  0  0  0  0
 19 20  1  0  0  0  0
 17 18  1  0  0  0  0
 17 19  2  0  0  0  0
 15 16  1  0  0  0  0
 15 17  1  0  0  0  0
 14 15  1  0  0  0  0
 14 20  2  0  0  0  0
 11 12  1  0  0  0  0
 11 13  1  0  0  0  0
 11 14  1  0  0  0  0
  9 10  1  0  0  0  0
  9 11  1  0  0  0  0
  9 22  1  0  0  0  0
  7  8  1  0  0  0  0
  7  9  1  0  0  0  0
 26 27  1  0  0  0  0
 26 28  1  0  0  0  0
 26 29  1  0  0  0  0
 24 25  1  0  0  0  0
 24 26  1  0  0  0  0
M  END
$$$$
default_name
  -OEChem-02102213163D

 29 29  0     1  0  0  0  0  0999 V2000
   -3.6042   -3.5728    1.4576 H   0  0  0  0  0  0  0  0  0  0  0  0
   -3.5202   -2.6488    0.8866 C   0  0  0  0  0  0  0  0  0  0  0  0
   -4.2052   -1.9048    1.2896 H   0  0  0  0  0  0  0  0  0  0  0  0
   -3.7552   -2.8428   -0.1584 H   0  0  0  0  0  0  0  0  0  0  0  0
   -2.1052   -2.1358    0.9946 C   0  0  0  0  0  0  0  0  0  0  0  0
   -1.2852   -2.7288    1.6826 O   0  0  0  0  0  0  0  0  0  0  0  0
   -1.8202   -1.0288    0.3146 N   0  0  0  0  0  0  0  0  0  0  0  0
   -2.5542   -0.5788   -0.2104 H   0  0  0  0  0  0  0  0  0  0  0  0
   -0.5102   -0.3728    0.3086 C   0  0  1  0  0  0  0  0  0  0  0  0
    0.2354   -1.0844   -0.0490 H   0  0  0  0  0  0  0  0  0  0  0  0
   -0.5452    0.8158   -0.6698 C   0  0  0  0  0  0  0  0  0  0  0  0
   -1.5440    0.8928   -1.1030 H   0  0  0  0  0  0  0  0  0  0  0  0
   -0.3468    1.7366   -0.1182 H   0  0  0  0  0  0  0  0  0  0  0  0
    0.4559    0.7048   -1.7904 C   0  0  0  0  0  0  0  0  0  0  0  0
    1.0710    1.7525   -2.4415 N   0  0  0  0  0  0  0  0  0  0  0  0
    0.8760    2.7334   -2.3071 H   0  0  0  0  0  0  0  0  0  0  0  0
    1.9746    1.2394   -3.2933 C   0  0  0  0  0  0  0  0  0  0  0  0
    2.6129    1.8163   -3.9514 H   0  0  0  0  0  0  0  0  0  0  0  0
    1.9804   -0.0992   -3.2133 N   0  0  0  0  0  0  0  0  0  0  0  0
    1.0167   -0.4510   -2.2647 C   0  0  0  0  0  0  0  0  0  0  0  0
    0.7803   -1.4547   -1.9357 H   0  0  0  0  0  0  0  0  0  0  0  0
   -0.1073    0.0565    1.7296 C   0  0  0  0  0  0  0  0  0  0  0  0
    1.0285   -0.1699    2.1459 O   0  0  0  0  0  0  0  0  0  0  0  0
   -1.0395    0.6588    2.4785 N   0  0  0  0  0  0  0  0  0  0  0  0
   -1.9636    0.7597    2.0849 H   0  0  0  0  0  0  0  0  0  0  0  0
   -0.8222    1.1334    3.8425 C   0  0  0  0  0  0  0  0  0  0  0  0
   -0.0212    1.8761    3.8521 H   0  0  0  0  0  0  0  0  0  0  0  0
   -1.7349    1.5853    4.2320 H   0  0  0  0  0  0  0  0  0  0  0  0
   -0.5312    0.2997    4.4834 H   0  0  0  0  0  0  0  0  0  0  0  0
  5  6  2  0  0  0  0
  5  7  1  0  0  0  0
  2  3  1  0  0  0  0
  2  4  1  0  0  0  0
  2  5  1  0  0  0  0
  1  2  1  0  0  0  0
 22 23  2  0  0  0  0
 22 24  1  0  0  0  0
 20 21  1  0  0  0  0
 19 20  1  0  0  0  0
 17 18  1  0  0  0  0
 17 19  2  0  0  0  0
 15 16  1  0  0  0  0
 15 17  1  0  0  0  0
 14 15  1  0  0  0  0
 14 20  2  0  0  0  0
 11 12  1  0  0  0  0
 11 13  1  0  0  0  0
 11 14  1  0  0  0  0
  9 10  1  0  0  0  0
  9 11  1  0  0  0  0
  9 22  1  0  0  0  0
  7  8  1  0  0  0  0
  7  9  1  0  0  0  0
 26 27  1  0  0  0  0
 26 28  1  0  0  0  0
 26 29  1  0  0  0  0
 24 25  1  0  0  0  0
 24 26  1  0  0  0  0
M  END
$$$$
default_name
  -OEChem-02102213163D

 29 29  0     1  0  0  0  0  0999 V2000
   -3.6042   -3.5728    1.4576 H   0  0  0  0  0  0  0  0  0  0  0  0
   -3.5202   -2.6488    0.8866 C   0  0  0  0  0  0  0  0  0  0  0  0
   -4.2052   -1.9048    1.2896 H   0  0  0  0  0  0  0  0  0  0  0  0
   -3.7552   -2.8428   -0.1584 H   0  0  0  0  0  0  0  0  0  0  0  0
   -2.1052   -2.1358    0.9946 C   0  0  0  0  0  0  0  0  0  0  0  0
   -1.2852   -2.7288    1.6826 O   0  0  0  0  0  0  0  0  0  0  0  0
   -1.8202   -1.0288    0.3146 N   0  0  0  0  0  0  0  0  0  0  0  0
   -2.5542   -0.5788   -0.2104 H   0  0  0  0  0  0  0  0  0  0  0  0
   -0.5102   -0.3728    0.3086 C   0  0  1  0  0  0  0  0  0  0  0  0
    0.2354   -1.0844   -0.0490 H   0  0  0  0  0  0  0  0  0  0  0  0
   -0.5452    0.8158   -0.6698 C   0  0  0  0  0  0  0  0  0  0  0  0
   -1.5440    0.8928   -1.1030 H   0  0  0  0  0  0  0  0  0  0  0  0
   -0.3468    1.7366   -0.1182 H   0  0  0  0  0  0  0  0  0  0  0  0
    0.4559    0.7048   -1.7904 C   0  0  0  0  0  0  0  0  0  0  0  0
    1.2826    1.7084   -2.2481 N   0  0  0  0  0  0  0  0  0  0  0  0
    1.2736    2.6710   -1.9456 H   0  0  0  0  0  0  0  0  0  0  0  0
    2.1017    1.1820   -3.1741 C   0  0  0  0  0  0  0  0  0  0  0  0
    2.8615    1.7275   -3.7205 H   0  0  0  0  0  0  0  0  0  0  0  0
    1.8491   -0.1260   -3.3280 N   0  0  0  0  0  0  0  0  0  0  0  0
    0.8025   -0.4400   -2.4571 C   0  0  0  0  0  0  0  0  0  0  0  0
    0.3673   -1.4198   -2.3081 H   0  0  0  0  0  0  0  0  0  0  0  0
   -0.1073    0.0565    1.7296 C   0  0  0  0  0  0  0  0  0  0  0  0
    1.0285   -0.1699    2.1459 O   0  0  0  0  0  0  0  0  0  0  0  0
   -1.0395    0.6588    2.4785 N   0  0  0  0  0  0  0  0  0  0  0  0
   -1.9636    0.7597    2.0849 H   0  0  0  0  0  0  0  0  0  0  0  0
   -0.8222    1.1334    3.8425 C   0  0  0  0  0  0  0  0  0  0  0  0
   -0.0212    1.8761    3.8521 H   0  0  0  0  0  0  0  0  0  0  0  0
   -1.7349    1.5853    4.2320 H   0  0  0  0  0  0  0  0  0  0  0  0
   -0.5312    0.2997    4.4834 H   0  0  0  0  0  0  0  0  0  0  0  0
  5  6  2  0  0  0  0
  5  7  1  0  0  0  0
  2  3  1  0  0  0  0
  2  4  1  0  0  0  0
  2  5  1  0  0  0  0
  1  2  1  0  0  0  0
 22 23  2  0  0  0  0
 22 24  1  0  0  0  0
 20 21  1  0  0  0  0
 19 20  1  0  0  0  0
 17 18  1  0  0  0  0
 17 19  2  0  0  0  0
 15 16  1  0  0  0  0
 15 17  1  0  0  0  0
 14 15  1  0  0  0  0
 14 20  2  0  0  0  0
 11 12  1  0  0  0  0
 11 13  1  0  0  0  0
 11 14  1  0  0  0  0
  9 10  1  0  0  0  0
  9 11  1  0  0  0  0
  9 22  1  0  0  0  0
  7  8  1  0  0  0  0
  7  9  1  0  0  0  0
 26 27  1  0  0  0  0
 26 28  1  0  0  0  0
 26 29  1  0  0  0  0
 24 25  1  0  0  0  0
 24 26  1  0  0  0  0
M  END
$$$$
default_name
  -OEChem-02102213163D

 29 29  0     1  0  0  0  0  0999 V2000
   -3.6042   -3.5728    1.4576 H   0  0  0  0  0  0  0  0  0  0  0  0
   -3.5202   -2.6488    0.8866 C   0  0  0  0  0  0  0  0  0  0  0  0
   -4.2052   -1.9048    1.2896 H   0  0  0  0  0  0  0  0  0  0  0  0
   -3.7552   -2.8428   -0.1584 H   0  0  0  0  0  0  0  0  0  0  0  0
   -2.1052   -2.1358    0.9946 C   0  0  0  0  0  0  0  0  0  0  0  0
   -1.2852   -2.7288    1.6826 O   0  0  0  0  0  0  0  0  0  0  0  0
   -1.8202   -1.0288    0.3146 N   0  0  0  0  0  0  0  0  0  0  0  0
   -2.5542   -0.5788   -0.2104 H   0  0  0  0  0  0  0  0  0  0  0  0
   -0.5102   -0.3728    0.3086 C   0  0  1  0  0  0  0  0  0  0  0  0
    0.2354   -1.0844   -0.0490 H   0  0  0  0  0  0  0  0  0  0  0  0
   -0.5452    0.8158   -0.6698 C   0  0  0  0  0  0  0  0  0  0  0  0
   -1.5440    0.8928   -1.1030 H   0  0  0  0  0  0  0  0  0  0  0  0
   -0.3468    1.7366   -0.1182 H   0  0  0  0  0  0  0  0  0  0  0  0
    0.4559    0.7048   -1.7904 C   0  0  0  0  0  0  0  0  0  0  0  0
    1.4748    1.5917   -2.0649 N   0  0  0  0  0  0  0  0  0  0  0  0
    1.6388    2.4720   -1.5997 H   0  0  0  0  0  0  0  0  0  0  0  0
    2.2111    1.0817   -3.0665 C   0  0  0  0  0  0  0  0  0  0  0  0
    3.0801    1.5541   -3.5079 H   0  0  0  0  0  0  0  0  0  0  0  0
    1.7192   -0.1067   -3.4459 N   0  0  0  0  0  0  0  0  0  0  0  0
    0.6014   -0.3551   -2.6452 C   0  0  0  0  0  0  0  0  0  0  0  0
   -0.0178   -1.2425   -2.6698 H   0  0  0  0  0  0  0  0  0  0  0  0
   -0.1073    0.0565    1.7296 C   0  0  0  0  0  0  0  0  0  0  0  0
    1.0285   -0.1699    2.1459 O   0  0  0  0  0  0  0  0  0  0  0  0
   -1.0395    0.6588    2.4785 N   0  0  0  0  0  0  0  0  0  0  0  0
   -1.9636    0.7597    2.0849 H   0  0  0  0  0  0  0  0  0  0  0  0
   -0.8222    1.1334    3.8425 C   0  0  0  0  0  0  0  0  0  0  0  0
   -0.0212    1.8761    3.8521 H   0  0  0  0  0  0  0  0  0  0  0  0
   -1.7349    1.5853    4.2320 H   0  0  0  0  0  0  0  0  0  0  0  0
   -0.5312    0.2997    4.4834 H   0  0  0  0  0  0  0  0  0  0  0  0
  5  6  2  0  0  0  0
  5  7  1  0  0  0  0
  2  3  1  0  0  0  0
  2  4  1  0  0  0  0
  2  5  1  0  0  0  0
  1  2  1  0  0  0  0
 22 23  2  0  0  0  0
 22 24  1  0  0  0  0
 20 21  1  0  0  0  0
 19 20  1  0  0  0  0
 17 18  1  0  0  0  0
 17 19  2  0  0  0  0
 15 16  1  0  0  0  0
 15 17  1  0  0  0  0
 14 15  1  0  0  0  0
 14 20  2  0  0  0  0
 11 12  1  0  0  0  0
 11 13  1  0  0  0  0
 11 14  1  0  0  0  0
  9 10  1  0  0  0  0
  9 11  1  0  0  0  0
  9 22  1  0  0  0  0
  7  8  1  0  0  0  0
  7  9  1  0  0  0  0
 26 27  1  0  0  0  0
 26 28  1  0  0  0  0
 26 29  1  0  0  0  0
 24 25  1  0  0  0  0
 24 26  1  0  0  0  0
M  END
$$$$
default_name
  -OEChem-02102213163D

 29 29  0     1  0  0  0  0  0999 V2000
   -3.6042   -3.5728    1.4576 H   0  0  0  0  0  0  0  0  0  0  0  0
   -3.5202   -2.6488    0.8866 C   0  0  0  0  0  0  0  0  0  0  0  0
   -4.2052   -1.9048    1.2896 H   0  0  0  0  0  0  0  0  0  0  0  0
   -3.7552   -2.8428   -0.1584 H   0  0  0  0  0  0  0  0  0  0  0  0
   -2.1052   -2.1358    0.9946 C   0  0  0  0  0  0  0  0  0  0  0  0
   -1.2852   -2.7288    1.6826 O   0  0  0  0  0  0  0  0  0  0  0  0
   -1.8202   -1.0288    0.3146 N   0  0  0  0  0  0  0  0  0  0  0  0
   -2.5542   -0.5788   -0.2104 H   0  0  0  0  0  0  0  0  0  0  0  0
   -0.5102   -0.3728    0.3086 C   0  0  1  0  0  0  0  0  0  0  0  0
    0.2354   -1.0844   -0.0490 H   0  0  0  0  0  0  0  0  0  0  0  0
   -0.5452    0.8158   -0.6698 C   0  0  0  0  0  0  0  0  0  0  0  0
   -1.5440    0.8928   -1.1030 H   0  0  0  0  0  0  0  0  0  0  0  0
   -0.3468    1.7366   -0.1182 H   0  0  0  0  0  0  0  0  0  0  0  0
    0.4559    0.7048   -1.7904 C   0  0  0  0  0  0  0  0  0  0  0  0
    1.6345    1.4105   -1.9042 N   0  0  0  0  0  0  0  0  0  0  0  0
    1.9466    2.1500   -1.2927 H   0  0  0  0  0  0  0  0  0  0  0  0
    2.2954    0.9452   -2.9776 C   0  0  0  0  0  0  0  0  0  0  0  0
    3.2539    1.3079   -3.3283 H   0  0  0  0  0  0  0  0  0  0  0  0
    1.5998   -0.0429   -3.5590 N   0  0  0  0  0  0  0  0  0  0  0  0
    0.4270   -0.2020   -2.8161 C   0  0  0  0  0  0  0  0  0  0  0  0
   -0.3488   -0.9349   -2.9959 H   0  0  0  0  0  0  0  0  0  0  0  0
   -0.1073    0.0565    1.7296 C   0  0  0  0  0  0  0  0  0  0  0  0
    1.0285   -0.1699    2.1459 O   0  0  0  0  0  0  0  0  0  0  0  0
   -1.0395    0.6588    2.4785 N   0  0  0  0  0  0  0  0  0  0  0  0
   -1.9636    0.7597    2.0849 H   0  0  0  0  0  0  0  0  0  0  0  0
   -0.8222    1.1334    3.8425 C   0  0  0  0  0  0  0  0  0  0  0  0
   -0.0212    1.8761    3.8521 H   0  0  0  0  0  0  0  0  0  0  0  0
   -1.7349    1.5853    4.2320 H   0  0  0  0  0  0  0  0  0  0  0  0
   -0.5312    0.2997    4.4834 H   0  0  0  0  0  0  0  0  0  0  0  0
  5  6  2  0  0  0  0
  5  7  1  0  0  0  0
  2  3  1  0  0  0  0
  2  4  1  0  0  0  0
  2  5  1  0  0  0  0
  1  2  1  0  0  0  0
 22 23  2  0  0  0  0
 22 24  1  0  0  0  0
 20 21  1  0  0  0  0
 19 20  1  0  0  0  0
 17 18  1  0  0  0  0
 17 19  2  0  0  0  0
 15 16  1  0  0  0  0
 15 17  1  0  0  0  0
 14 15  1  0  0  0  0
 14 20  2  0  0  0  0
 11 12  1  0  0  0  0
 11 13  1  0  0  0  0
 11 14  1  0  0  0  0
  9 10  1  0  0  0  0
  9 11  1  0  0  0  0
  9 22  1  0  0  0  0
  7  8  1  0  0  0  0
  7  9  1  0  0  0  0
 26 27  1  0  0  0  0
 26 28  1  0  0  0  0
 26 29  1  0  0  0  0
 24 25  1  0  0  0  0
 24 26  1  0  0  0  0
M  END
$$$$
default_name
  -OEChem-02102213163D

 29 29  0     1  0  0  0  0  0999 V2000
   -3.6042   -3.5728    1.4576 H   0  0  0  0  0  0  0  0  0  0  0  0
   -3.5202   -2.6488    0.8866 C   0  0  0  0  0  0  0  0  0  0  0  0
   -4.2052   -1.9048    1.2896 H   0  0  0  0  0  0  0  0  0  0  0  0
   -3.7552   -2.8428   -0.1584 H   0  0  0  0  0  0  0  0  0  0  0  0
   -2.1052   -2.1358    0.9946 C   0  0  0  0  0  0  0  0  0  0  0  0
   -1.2852   -2.7288    1.6826 O   0  0  0  0  0  0  0  0  0  0  0  0
   -1.8202   -1.0288    0.3146 N   0  0  0  0  0  0  0  0  0  0  0  0
   -2.5542   -0.5788   -0.2104 H   0  0  0  0  0  0  0  0  0  0  0  0
   -0.5102   -0.3728    0.3086 C   0  0  1  0  0  0  0  0  0  0  0  0
    0.2354   -1.0844   -0.0490 H   0  0  0  0  0  0  0  0  0  0  0  0
   -0.5452    0.8158   -0.6698 C   0  0  0  0  0  0  0  0  0  0  0  0
   -1.5440    0.8928   -1.1030 H   0  0  0  0  0  0  0  0  0  0  0  0
   -0.3468    1.7366   -0.1182 H   0  0  0  0  0  0  0  0  0  0  0  0
    0.4559    0.7048   -1.7904 C   0  0  0  0  0  0  0  0  0  0  0  0
    1.7508    1.1771   -1.7772 N   0  0  0  0  0  0  0  0  0  0  0  0
    2.1762    1.7269   -1.0458 H   0  0  0  0  0  0  0  0  0  0  0  0
    2.3489    0.7819   -2.9136 C   0  0  0  0  0  0  0  0  0  0  0  0
    3.3709    1.0059   -3.1938 H   0  0  0  0  0  0  0  0  0  0  0  0
    1.4988    0.0612   -3.6595 N   0  0  0  0  0  0  0  0  0  0  0  0
    0.2914    0.0088   -2.9582 C   0  0  0  0  0  0  0  0  0  0  0  0
   -0.6031   -0.5180   -3.2644 H   0  0  0  0  0  0  0  0  0  0  0  0
   -0.1073    0.0565    1.7296 C   0  0  0  0  0  0  0  0  0  0  0  0
    1.0285   -0.1699    2.1459 O   0  0  0  0  0  0  0  0  0  0  0  0
   -1.0395    0.6588    2.4785 N   0  0  0  0  0  0  0  0  0  0  0  0
   -1.9636    0.7597    2.0849 H   0  0  0  0  0  0  0  0  0  0  0  0
   -0.8222    1.1334    3.8425 C   0  0  0  0  0  0  0  0  0  0  0  0
   -0.0212    1.8761    3.8521 H   0  0  0  0  0  0  0  0  0  0  0  0
   -1.7349    1.5853    4.2320 H   0  0  0  0  0  0  0  0  0  0  0  0
   -0.5312    0.2997    4.4834 H   0  0  0  0  0  0  0  0  0  0  0  0
  5  6  2  0  0  0  0
  5  7  1  0  0  0  0
  2  3  1  0  0  0  0
  2  4  1  0  0  0  0
  2  5  1  0  0  0  0
  1  2  1  0  0  0  0
 22 23  2  0  0  0  0
 22 24  1  0  0  0  0
 20 21  1  0  0  0  0
 19 20  1  0  0  0  0
 17 18  1  0  0  0  0
 17 19  2  0  0  0  0
 15 16  1  0  0  0  0
 15 17  1  0  0  0  0
 14 15  1  0  0  0  0
 14 20  2  0  0  0  0
 11 12  1  0  0  0  0
 11 13  1  0  0  0  0
 11 14  1  0  0  0  0
  9 10  1  0  0  0  0
  9 11  1  0  0  0  0
  9 22  1  0  0  0  0
  7  8  1  0  0  0  0
  7  9  1  0  0  0  0
 26 27  1  0  0  0  0
 26 28  1  0  0  0  0
 26 29  1  0  0  0  0
 24 25  1  0  0  0  0
 24 26  1  0  0  0  0
M  END
$$$$
default_name
  -OEChem-02102213163D

 29 29  0     1  0  0  0  0  0999 V2000
   -3.6042   -3.5728    1.4576 H   0  0  0  0  0  0  0  0  0  0  0  0
   -3.5202   -2.6488    0.8866 C   0  0  0  0  0  0  0  0  0  0  0  0
   -4.2052   -1.9048    1.2896 H   0  0  0  0  0  0  0  0  0  0  0  0
   -3.7552   -2.8428   -0.1584 H   0  0  0  0  0  0  0  0  0  0  0  0
   -2.1052   -2.1358    0.9946 C   0  0  0  0  0  0  0  0  0  0  0  0
   -1.2852   -2.7288    1.6826 O   0  0  0  0  0  0  0  0  0  0  0  0
   -1.8202   -1.0288    0.3146 N   0  0  0  0  0  0  0  0  0  0  0  0
   -2.5542   -0.5788   -0.2104 H   0  0  0  0  0  0  0  0  0  0  0  0
   -0.5102   -0.3728    0.3086 C   0  0  1  0  0  0  0  0  0  0  0  0
    0.2354   -1.0844   -0.0490 H   0  0  0  0  0  0  0  0  0  0  0  0
   -0.5452    0.8158   -0.6698 C   0  0  0  0  0  0  0  0  0  0  0  0
   -1.5440    0.8928   -1.1030 H   0  0  0  0  0  0  0  0  0  0  0  0
   -0.3468    1.7366   -0.1182 H   0  0  0  0  0  0  0  0  0  0  0  0
    0.4559    0.7048   -1.7904 C   0  0  0  0  0  0  0  0  0  0  0  0
    1.8158    0.9075   -1.6924 N   0  0  0  0  0  0  0  0  0  0  0  0
    2.3117    1.2316   -0.8756 H   0  0  0  0  0  0  0  0  0  0  0  0
    2.3679    0.6028   -2.8789 C   0  0  0  0  0  0  0  0  0  0  0  0
    3.4233    0.6684   -3.1136 H   0  0  0  0  0  0  0  0  0  0  0  0
    1.4233    0.1984   -3.7406 N   0  0  0  0  0  0  0  0  0  0  0  0
    0.2036    0.2630   -3.0618 C   0  0  0  0  0  0  0  0  0  0  0  0
   -0.7634   -0.0203   -3.4569 H   0  0  0  0  0  0  0  0  0  0  0  0
   -0.1073    0.0565    1.7296 C   0  0  0  0  0  0  0  0  0  0  0  0
    1.0285   -0.1699    2.1459 O   0  0  0  0  0  0  0  0  0  0  0  0
   -1.0395    0.6588    2.4785 N   0  0  0  0  0  0  0  0  0  0  0  0
   -1.9636    0.7597    2.0849 H   0  0  0  0  0  0  0  0  0  0  0  0
   -0.8222    1.1334    3.8425 C   0  0  0  0  0  0  0  0  0  0  0  0
   -0.0212    1.8761    3.8521 H   0  0  0  0  0  0  0  0  0  0  0  0
   -1.7349    1.5853    4.2320 H   0  0  0  0  0  0  0  0  0  0  0  0
   -0.5312    0.2997    4.4834 H   0  0  0  0  0  0  0  0  0  0  0  0
  5  6  2  0  0  0  0
  5  7  1  0  0  0  0
  2  3  1  0  0  0  0
  2  4  1  0  0  0  0
  2  5  1  0  0  0  0
  1  2  1  0  0  0  0
 22 23  2  0  0  0  0
 22 24  1  0  0  0  0
 20 21  1  0  0  0  0
 19 20  1  0  0  0  0
 17 18  1  0  0  0  0
 17 19  2  0  0  0  0
 15 16  1  0  0  0  0
 15 17  1  0  0  0  0
 14 15  1  0  0  0  0
 14 20  2  0  0  0  0
 11 12  1  0  0  0  0
 11 13  1  0  0  0  0
 11 14  1  0  0  0  0
  9 10  1  0  0  0  0
  9 11  1  0  0  0  0
  9 22  1  0  0  0  0
  7  8  1  0  0  0  0
  7  9  1  0  0  0  0
 26 27  1  0  0  0  0
 26 28  1  0  0  0  0
 26 29  1  0  0  0  0
 24 25  1  0  0  0  0
 24 26  1  0  0  0  0
M  END
$$$$
default_name
  -OEChem-02102213163D

 29 29  0     1  0  0  0  0  0999 V2000
   -3.6042   -3.5728    1.4576 H   0  0  0  0  0  0  0  0  0  0  0  0
   -3.5202   -2.6488    0.8866 C   0  0  0  0  0  0  0  0  0  0  0  0
   -4.2052   -1.9048    1.2896 H   0  0  0  0  0  0  0  0  0  0  0  0
   -3.7552   -2.8428   -0.1584 H   0  0  0  0  0  0  0  0  0  0  0  0
   -2.1052   -2.1358    0.9946 C   0  0  0  0  0  0  0  0  0  0  0  0
   -1.2852   -2.7288    1.6826 O   0  0  0  0  0  0  0  0  0  0  0  0
   -1.8202   -1.0288    0.3146 N   0  0  0  0  0  0  0  0  0  0  0  0
   -2.5542   -0.5788   -0.2104 H   0  0  0  0  0  0  0  0  0  0  0  0
   -0.5102   -0.3728    0.3086 C   0  0  1  0  0  0  0  0  0  0  0  0
    0.2354   -1.0844   -0.0490 H   0  0  0  0  0  0  0  0  0  0  0  0
   -0.5452    0.8158   -0.6698 C   0  0  0  0  0  0  0  0  0  0  0  0
   -1.5440    0.8928   -1.1030 H   0  0  0  0  0  0  0  0  0  0  0  0
   -0.3468    1.7366   -0.1182 H   0  0  0  0  0  0  0  0  0  0  0  0
    0.4559    0.7048   -1.7904 C   0  0  0  0  0  0  0  0  0  0  0  0
    1.8251    0.6199   -1.6557 N   0  0  0  0  0  0  0  0  0  0  0  0
    2.3441    0.6979   -0.7938 H   0  0  0  0  0  0  0  0  0  0  0  0
    2.3511    0.4202   -2.8758 C   0  0  0  0  0  0  0  0  0  0  0  0
    3.4074    0.3186   -3.0932 H   0  0  0  0  0  0  0  0  0  0  0  0
    1.3782    0.3595   -3.7968 N   0  0  0  0  0  0  0  0  0  0  0  0
    0.1697    0.5432   -3.1198 C   0  0  0  0  0  0  0  0  0  0  0  0
   -0.8187    0.5245   -3.5603 H   0  0  0  0  0  0  0  0  0  0  0  0
   -0.1073    0.0565    1.7296 C   0  0  0  0  0  0  0  0  0  0  0  0
    1.0285   -0.1699    2.1459 O   0  0  0  0  0  0  0  0  0  0  0  0
   -1.0395    0.6588    2.4785 N   0  0  0  0  0  0  0  0  0  0  0  0
   -1.9636    0.7597    2.0849 H   0  0  0  0  0  0  0  0  0  0  0  0
   -0.8222    1.1334    3.8425 C   0  0  0  0  0  0  0  0  0  0  0  0
   -0.0212    1.8761    3.8521 H   0  0  0  0  0  0  0  0  0  0  0  0
   -1.7349    1.5853    4.2320 H   0  0  0  0  0  0  0  0  0  0  0  0
   -0.5312    0.2997    4.4834 H   0  0  0  0  0  0  0  0  0  0  0  0
  5  6  2  0  0  0  0
  5  7  1  0  0  0  0
  2  3  1  0  0  0  0
  2  4  1  0  0  0  0
  2  5  1  0  0  0  0
  1  2  1  0  0  0  0
 22 23  2  0  0  0  0
 22 24  1  0  0  0  0
 20 21  1  0  0  0  0
 19 20  1  0  0  0  0
 17 18  1  0  0  0  0
 17 19  2  0  0  0  0
 15 16  1  0  0  0  0
 15 17  1  0  0  0  0
 14 15  1  0  0  0  0
 14 20  2  0  0  0  0
 11 12  1  0  0  0  0
 11 13  1  0  0  0  0
 11 14  1  0  0  0  0
  9 10  1  0  0  0  0
  9 11  1  0  0  0  0
  9 22  1  0  0  0  0
  7  8  1  0  0  0  0
  7  9  1  0  0  0  0
 26 27  1  0  0  0  0
 26 28  1  0  0  0  0
 26 29  1  0  0  0  0
 24 25  1  0  0  0  0
 24 26  1  0  0  0  0
M  END
$$$$
default_name
  -OEChem-02102213163D

 29 29  0     1  0  0  0  0  0999 V2000
   -3.6042   -3.5728    1.4576 H   0  0  0  0  0  0  0  0  0  0  0  0
   -3.5202   -2.6488    0.8866 C   0  0  0  0  0  0  0  0  0  0  0  0
   -4.2052   -1.9048    1.2896 H   0  0  0  0  0  0  0  0  0  0  0  0
   -3.7552   -2.8428   -0.1584 H   0  0  0  0  0  0  0  0  0  0  0  0
   -2.1052   -2.1358    0.9946 C   0  0  0  0  0  0  0  0  0  0  0  0
   -1.2852   -2.7288    1.6826 O   0  0  0  0  0  0  0  0  0  0  0  0
   -1.8202   -1.0288    0.3146 N   0  0  0  0  0  0  0  0  0  0  0  0
   -2.5542   -0.5788   -0.2104 H   0  0  0  0  0  0  0  0  0  0  0  0
   -0.5102   -0.3728    0.3086 C   0  0  1  0  0  0  0  0  0  0  0  0
    0.2354   -1.0844   -0.0490 H   0  0  0  0  0  0  0  0  0  0  0  0
   -0.5452    0.8158   -0.6698 C   0  0  0  0  0  0  0  0  0  0  0  0
   -1.5440    0.8928   -1.1030 H   0  0  0  0  0  0  0  0  0  0  0  0
   -0.3468    1.7366   -0.1182 H   0  0  0  0  0  0  0  0  0  0  0  0
    0.4559    0.7048   -1.7904 C   0  0  0  0  0  0  0  0  0  0  0  0
    1.7780    0.3340   -1.6694 N   0  0  0  0  0  0  0  0  0  0  0  0
    2.2711    0.1620   -0.8060 H   0  0  0  0  0  0  0  0  0  0  0  0
    2.2997    0.2465   -2.9046 C   0  0  0  0  0  0  0  0  0  0  0  0
    3.3243   -0.0197   -3.1339 H   0  0  0  0  0  0  0  0  0  0  0  0
    1.3668    0.5334   -3.8242 N   0  0  0  0  0  0  0  0  0  0  0  0
    0.1921    0.8304   -3.1283 C   0  0  0  0  0  0  0  0  0  0  0  0
   -0.7653    1.0792   -3.5675 H   0  0  0  0  0  0  0  0  0  0  0  0
   -0.1073    0.0565    1.7296 C   0  0  0  0  0  0  0  0  0  0  0  0
    1.0285   -0.1699    2.1459 O   0  0  0  0  0  0  0  0  0  0  0  0
   -1.0395    0.6588    2.4785 N   0  0  0  0  0  0  0  0  0  0  0  0
   -1.9636    0.7597    2.0849 H   0  0  0  0  0  0  0  0  0  0  0  0
   -0.8222    1.1334    3.8425 C   0  0  0  0  0  0  0  0  0  0  0  0
   -0.0212    1.8761    3.8521 H   0  0  0  0  0  0  0  0  0  0  0  0
   -1.7349    1.5853    4.2320 H   0  0  0  0  0  0  0  0  0  0  0  0
   -0.5312    0.2997    4.4834 H   0  0  0  0  0  0  0  0  0  0  0  0
  5  6  2  0  0  0  0
  5  7  1  0  0  0  0
  2  3  1  0  0  0  0
  2  4  1  0  0  0  0
  2  5  1  0  0  0  0
  1  2  1  0  0  0  0
 22 23  2  0  0  0  0
 22 24  1  0  0  0  0
 20 21  1  0  0  0  0
 19 20  1  0  0  0  0
 17 18  1  0  0  0  0
 17 19  2  0  0  0  0
 15 16  1  0  0  0  0
 15 17  1  0  0  0  0
 14 15  1  0  0  0  0
 14 20  2  0  0  0  0
 11 12  1  0  0  0  0
 11 13  1  0  0  0  0
 11 14  1  0  0  0  0
  9 10  1  0  0  0  0
  9 11  1  0  0  0  0
  9 22  1  0  0  0  0
  7  8  1  0  0  0  0
  7  9  1  0  0  0  0
 26 27  1  0  0  0  0
 26 28  1  0  0  0  0
 26 29  1  0  0  0  0
 24 25  1  0  0  0  0
 24 26  1  0  0  0  0
M  END
$$$$
default_name
  -OEChem-02102213163D

 29 29  0     1  0  0  0  0  0999 V2000
   -3.6042   -3.5728    1.4576 H   0  0  0  0  0  0  0  0  0  0  0  0
   -3.5202   -2.6488    0.8866 C   0  0  0  0  0  0  0  0  0  0  0  0
   -4.2052   -1.9048    1.2896 H   0  0  0  0  0  0  0  0  0  0  0  0
   -3.7552   -2.8428   -0.1584 H   0  0  0  0  0  0  0  0  0  0  0  0
   -2.1052   -2.1358    0.9946 C   0  0  0  0  0  0  0  0  0  0  0  0
   -1.2852   -2.7288    1.6826 O   0  0  0  0  0  0  0  0  0  0  0  0
   -1.8202   -1.0288    0.3146 N   0  0  0  0  0  0  0  0  0  0  0  0
   -2.5542   -0.5788   -0.2104 H   0  0  0  0  0  0  0  0  0  0  0  0
   -0.5102   -0.3728    0.3086 C   0  0  1  0  0  0  0  0  0  0  0  0
    0.2354   -1.0844   -0.0490 H   0  0  0  0  0  0  0  0  0  0  0  0
   -0.5452    0.8158   -0.6698 C   0  0  0  0  0  0  0  0  0  0  0  0
   -1.5440    0.8928   -1.1030 H   0  0  0  0  0  0  0  0  0  0  0  0
   -0.3468    1.7366   -0.1182 H   0  0  0  0  0  0  0  0  0  0  0  0
    0.4559    0.7048   -1.7904 C   0  0  0  0  0  0  0  0  0  0  0  0
    1.6778    0.0693   -1.7328 N   0  0  0  0  0  0  0  0  0  0  0  0
    2.0976   -0.3395   -0.9113 H   0  0  0  0  0  0  0  0  0  0  0  0
    2.2172    0.0936   -2.9632 C   0  0  0  0  0  0  0  0  0  0  0  0
    3.1797   -0.3236   -3.2331 H   0  0  0  0  0  0  0  0  0  0  0  0
    1.3898    0.7083   -3.8210 N   0  0  0  0  0  0  0  0  0  0  0  0
    0.2691    1.1049   -3.0867 C   0  0  0  0  0  0  0  0  0  0  0  0
   -0.6069    1.6059   -3.4781 H   0  0  0  0  0  0  0  0  0  0  0  0
   -0.1073    0.0565    1.7296 C   0  0  0  0  0  0  0  0  0  0  0  0
    1.0285   -0.1699    2.1459 O   0  0  0  0  0  0  0  0  0  0  0  0
   -1.0395    0.6588    2.4785 N   0  0  0  0  0  0  0  0  0  0  0  0
   -1.9636    0.7597    2.0849 H   0  0  0  0  0  0  0  0  0  0  0  0
   -0.8222    1.1334    3.8425 C   0  0  0  0  0  0  0  0  0  0  0  0
   -0.0212    1.8761    3.8521 H   0  0  0  0  0  0  0  0  0  0  0  0
   -1.7349    1.5853    4.2320 H   0  0  0  0  0  0  0  0  0  0  0  0
   -0.5312    0.2997    4.4834 H   0  0  0  0  0  0  0  0  0  0  0  0
  5  6  2  0  0  0  0
  5  7  1  0  0  0  0
  2  3  1  0  0  0  0
  2  4  1  0  0  0  0
  2  5  1  0  0  0  0
  1  2  1  0  0  0  0
 22 23  2  0  0  0  0
 22 24  1  0  0  0  0
 20 21  1  0  0  0  0
 19 20  1  0  0  0  0
 17 18  1  0  0  0  0
 17 19  2  0  0  0  0
 15 16  1  0  0  0  0
 15 17  1  0  0  0  0
 14 15  1  0  0  0  0
 14 20  2  0  0  0  0
 11 12  1  0  0  0  0
 11 13  1  0  0  0  0
 11 14  1  0  0  0  0
  9 10  1  0  0  0  0
  9 11  1  0  0  0  0
  9 22  1  0  0  0  0
  7  8  1  0  0  0  0
  7  9  1  0  0  0  0
 26 27  1  0  0  0  0
 26 28  1  0  0  0  0
 26 29  1  0  0  0  0
 24 25  1  0  0  0  0
 24 26  1  0  0  0  0
M  END
$$$$
default_name
  -OEChem-02102213163D

 29 29  0     1  0  0  0  0  0999 V2000
   -3.6042   -3.5728    1.4576 H   0  0  0  0  0  0  0  0  0  0  0  0
   -3.5202   -2.6488    0.8866 C   0  0  0  0  0  0  0  0  0  0  0  0
   -4.2052   -1.9048    1.2896 H   0  0  0  0  0  0  0  0  0  0  0  0
   -3.7552   -2.8428   -0.1584 H   0  0  0  0  0  0  0  0  0  0  0  0
   -2.1052   -2.1358    0.9946 C   0  0  0  0  0  0  0  0  0  0  0  0
   -1.2852   -2.7288    1.6826 O   0  0  0  0  0  0  0  0  0  0  0  0
   -1.8202   -1.0288    0.3146 N   0  0  0  0  0  0  0  0  0  0  0  0
   -2.5542   -0.5788   -0.2104 H   0  0  0  0  0  0  0  0  0  0  0  0
   -0.5102   -0.3728    0.3086 C   0  0  1  0  0  0  0  0  0  0  0  0
    0.2354   -1.0844   -0.0490 H   0  0  0  0  0  0  0  0  0  0  0  0
   -0.5452    0.8158   -0.6698 C   0  0  0  0  0  0  0  0  0  0  0  0
   -1.5440    0.8928   -1.1030 H   0  0  0  0  0  0  0  0  0  0  0  0
   -0.3468    1.7366   -0.1182 H   0  0  0  0  0  0  0  0  0  0  0  0
    0.4559    0.7048   -1.7904 C   0  0  0  0  0  0  0  0  0  0  0  0
    1.5312   -0.1561   -1.8414 N   0  0  0  0  0  0  0  0  0  0  0  0
    1.8355   -0.7723   -1.1026 H   0  0  0  0  0  0  0  0  0  0  0  0
    2.1091   -0.0282   -3.0476 C   0  0  0  0  0  0  0  0  0  0  0  0
    2.9834   -0.5721   -3.3838 H   0  0  0  0  0  0  0  0  0  0  0  0
    1.4456    0.8723   -3.7874 N   0  0  0  0  0  0  0  0  0  0  0  0
    0.3955    1.3482   -2.9978 C   0  0  0  0  0  0  0  0  0  0  0  0
   -0.3541    2.0688   -3.2981 H   0  0  0  0  0  0  0  0  0  0  0  0
   -0.1073    0.0565    1.7296 C   0  0  0  0  0  0  0  0  0  0  0  0
    1.0285   -0.1699    2.1459 O   0  0  0  0  0  0  0  0  0  0  0  0
   -1.0395    0.6588    2.4785 N   0  0  0  0  0  0  0  0  0  0  0  0
   -1.9636    0.7597    2.0849 H   0  0  0  0  0  0  0  0  0  0  0  0
   -0.8222    1.1334    3.8425 C   0  0  0  0  0  0  0  0  0  0  0  0
   -0.0212    1.8761    3.8521 H   0  0  0  0  0  0  0  0  0  0  0  0
   -1.7349    1.5853    4.2320 H   0  0  0  0  0  0  0  0  0  0  0  0
   -0.5312    0.2997    4.4834 H   0  0  0  0  0  0  0  0  0  0  0  0
  5  6  2  0  0  0  0
  5  7  1  0  0  0  0
  2  3  1  0  0  0  0
  2  4  1  0  0  0  0
  2  5  1  0  0  0  0
  1  2  1  0  0  0  0
 22 23  2  0  0  0  0
 22 24  1  0  0  0  0
 20 21  1  0  0  0  0
 19 20  1  0  0  0  0
 17 18  1  0  0  0  0
 17 19  2  0  0  0  0
 15 16  1  0  0  0  0
 15 17  1  0  0  0  0
 14 15  1  0  0  0  0
 14 20  2  0  0  0  0
 11 12  1  0  0  0  0
 11 13  1  0  0  0  0
 11 14  1  0  0  0  0
  9 10  1  0  0  0  0
  9 11  1  0  0  0  0
  9 22  1  0  0  0  0
  7  8  1  0  0  0  0
  7  9  1  0  0  0  0
 26 27  1  0  0  0  0
 26 28  1  0  0  0  0
 26 29  1  0  0  0  0
 24 25  1  0  0  0  0
 24 26  1  0  0  0  0
M  END
$$$$
default_name
  -OEChem-02102213163D

 29 29  0     1  0  0  0  0  0999 V2000
   -3.6042   -3.5728    1.4576 H   0  0  0  0  0  0  0  0  0  0  0  0
   -3.5202   -2.6488    0.8866 C   0  0  0  0  0  0  0  0  0  0  0  0
   -4.2052   -1.9048    1.2896 H   0  0  0  0  0  0  0  0  0  0  0  0
   -3.7552   -2.8428   -0.1584 H   0  0  0  0  0  0  0  0  0  0  0  0
   -2.1052   -2.1358    0.9946 C   0  0  0  0  0  0  0  0  0  0  0  0
   -1.2852   -2.7288    1.6826 O   0  0  0  0  0  0  0  0  0  0  0  0
   -1.8202   -1.0288    0.3146 N   0  0  0  0  0  0  0  0  0  0  0  0
   -2.5542   -0.5788   -0.2104 H   0  0  0  0  0  0  0  0  0  0  0  0
   -0.5102   -0.3728    0.3086 C   0  0  1  0  0  0  0  0  0  0  0  0
    0.2354   -1.0844   -0.0490 H   0  0  0  0  0  0  0  0  0  0  0  0
   -0.5452    0.8158   -0.6698 C   0  0  0  0  0  0  0  0  0  0  0  0
   -1.5440    0.8928   -1.1030 H   0  0  0  0  0  0  0  0  0  0  0  0
   -0.3468    1.7366   -0.1182 H   0  0  0  0  0  0  0  0  0  0  0  0
    0.4559    0.7048   -1.7904 C   0  0  0  0  0  0  0  0  0  0  0  0
    1.3483   -0.3271   -1.9879 N   0  0  0  0  0  0  0  0  0  0  0  0
    1.5027   -1.1071   -1.3668 H   0  0  0  0  0  0  0  0  0  0  0  0
    1.9829   -0.1105   -3.1522 C   0  0  0  0  0  0  0  0  0  0  0  0
    2.7488   -0.7485   -3.5759 H   0  0  0  0  0  0  0  0  0  0  0  0
    1.5304    1.0142   -3.7256 N   0  0  0  0  0  0  0  0  0  0  0  0
    0.5628    1.5435   -2.8677 C   0  0  0  0  0  0  0  0  0  0  0  0
   -0.0243    2.4363   -3.0399 H   0  0  0  0  0  0  0  0  0  0  0  0
   -0.1073    0.0565    1.7296 C   0  0  0  0  0  0  0  0  0  0  0  0
    1.0285   -0.1699    2.1459 O   0  0  0  0  0  0  0  0  0  0  0  0
   -1.0395    0.6588    2.4785 N   0  0  0  0  0  0  0  0  0  0  0  0
   -1.9636    0.7597    2.0849 H   0  0  0  0  0  0  0  0  0  0  0  0
   -0.8222    1.1334    3.8425 C   0  0  0  0  0  0  0  0  0  0  0  0
   -0.0212    1.8761    3.8521 H   0  0  0  0  0  0  0  0  0  0  0  0
   -1.7349    1.5853    4.2320 H   0  0  0  0  0  0  0  0  0  0  0  0
   -0.5312    0.2997    4.4834 H   0  0  0  0  0  0  0  0  0  0  0  0
  5  6  2  0  0  0  0
  5  7  1  0  0  0  0
  2  3  1  0  0  0  0
  2  4  1  0  0  0  0
  2  5  1  0  0  0  0
  1  2  1  0  0  0  0
 22 23  2  0  0  0  0
 22 24  1  0  0  0  0
 20 21  1  0  0  0  0
 19 20  1  0  0  0  0
 17 18  1  0  0  0  0
 17 19  2  0  0  0  0
 15 16  1  0  0  0  0
 15 17  1  0  0  0  0
 14 15  1  0  0  0  0
 14 20  2  0  0  0  0
 11 12  1  0  0  0  0
 11 13  1  0  0  0  0
 11 14  1  0  0  0  0
  9 10  1  0  0  0  0
  9 11  1  0  0  0  0
  9 22  1  0  0  0  0
  7  8  1  0  0  0  0
  7  9  1  0  0  0  0
 26 27  1  0  0  0  0
 26 28  1  0  0  0  0
 26 29  1  0  0  0  0
 24 25  1  0  0  0  0
 24 26  1  0  0  0  0
M  END
$$$$
default_name
  -OEChem-02102213163D

 29 29  0     1  0  0  0  0  0999 V2000
   -3.6042   -3.5728    1.4576 H   0  0  0  0  0  0  0  0  0  0  0  0
   -3.5202   -2.6488    0.8866 C   0  0  0  0  0  0  0  0  0  0  0  0
   -4.2052   -1.9048    1.2896 H   0  0  0  0  0  0  0  0  0  0  0  0
   -3.7552   -2.8428   -0.1584 H   0  0  0  0  0  0  0  0  0  0  0  0
   -2.1052   -2.1358    0.9946 C   0  0  0  0  0  0  0  0  0  0  0  0
   -1.2852   -2.7288    1.6826 O   0  0  0  0  0  0  0  0  0  0  0  0
   -1.8202   -1.0288    0.3146 N   0  0  0  0  0  0  0  0  0  0  0  0
   -2.5542   -0.5788   -0.2104 H   0  0  0  0  0  0  0  0  0  0  0  0
   -0.5102   -0.3728    0.3086 C   0  0  1  0  0  0  0  0  0  0  0  0
    0.2354   -1.0844   -0.0490 H   0  0  0  0  0  0  0  0  0  0  0  0
   -0.5452    0.8158   -0.6698 C   0  0  0  0  0  0  0  0  0  0  0  0
   -1.5440    0.8928   -1.1030 H   0  0  0  0  0  0  0  0  0  0  0  0
   -0.3468    1.7366   -0.1182 H   0  0  0  0  0  0  0  0  0  0  0  0
    0.4559    0.7048   -1.7904 C   0  0  0  0  0  0  0  0  0  0  0  0
    1.1415   -0.4317   -2.1623 N   0  0  0  0  0  0  0  0  0  0  0  0
    1.1218   -1.3210   -1.6859 H   0  0  0  0  0  0  0  0  0  0  0  0
    1.8472   -0.1476   -3.2698 C   0  0  0  0  0  0  0  0  0  0  0  0
    2.4920   -0.8408   -3.7962 H   0  0  0  0  0  0  0  0  0  0  0  0
    1.6385    1.1243   -3.6400 N   0  0  0  0  0  0  0  0  0  0  0  0
    0.7595    1.6775   -2.7053 C   0  0  0  0  0  0  0  0  0  0  0  0
    0.3601    2.6834   -2.7209 H   0  0  0  0  0  0  0  0  0  0  0  0
   -0.1073    0.0565    1.7296 C   0  0  0  0  0  0  0  0  0  0  0  0
    1.0285   -0.1699    2.1459 O   0  0  0  0  0  0  0  0  0  0  0  0
   -1.0395    0.6588    2.4785 N   0  0  0  0  0  0  0  0  0  0  0  0
   -1.9636    0.7597    2.0849 H   0  0  0  0  0  0  0  0  0  0  0  0
   -0.8222    1.1334    3.8425 C   0  0  0  0  0  0  0  0  0  0  0  0
   -0.0212    1.8761    3.8521 H   0  0  0  0  0  0  0  0  0  0  0  0
   -1.7349    1.5853    4.2320 H   0  0  0  0  0  0  0  0  0  0  0  0
   -0.5312    0.2997    4.4834 H   0  0  0  0  0  0  0  0  0  0  0  0
  5  6  2  0  0  0  0
  5  7  1  0  0  0  0
  2  3  1  0  0  0  0
  2  4  1  0  0  0  0
  2  5  1  0  0  0  0
  1  2  1  0  0  0  0
 22 23  2  0  0  0  0
 22 24  1  0  0  0  0
 20 21  1  0  0  0  0
 19 20  1  0  0  0  0
 17 18  1  0  0  0  0
 17 19  2  0  0  0  0
 15 16  1  0  0  0  0
 15 17  1  0  0  0  0
 14 15  1  0  0  0  0
 14 20  2  0  0  0  0
 11 12  1  0  0  0  0
 11 13  1  0  0  0  0
 11 14  1  0  0  0  0
  9 10  1  0  0  0  0
  9 11  1  0  0  0  0
  9 22  1  0  0  0  0
  7  8  1  0  0  0  0
  7  9  1  0  0  0  0
 26 27  1  0  0  0  0
 26 28  1  0  0  0  0
 26 29  1  0  0  0  0
 24 25  1  0  0  0  0
 24 26  1  0  0  0  0
M  END
$$$$
default_name
  -OEChem-02102213163D

 29 29  0     1  0  0  0  0  0999 V2000
   -3.6042   -3.5728    1.4576 H   0  0  0  0  0  0  0  0  0  0  0  0
   -3.5202   -2.6488    0.8866 C   0  0  0  0  0  0  0  0  0  0  0  0
   -4.2052   -1.9048    1.2896 H   0  0  0  0  0  0  0  0  0  0  0  0
   -3.7552   -2.8428   -0.1584 H   0  0  0  0  0  0  0  0  0  0  0  0
   -2.1052   -2.1358    0.9946 C   0  0  0  0  0  0  0  0  0  0  0  0
   -1.2852   -2.7288    1.6826 O   0  0  0  0  0  0  0  0  0  0  0  0
   -1.8202   -1.0288    0.3146 N   0  0  0  0  0  0  0  0  0  0  0  0
   -2.5542   -0.5788   -0.2104 H   0  0  0  0  0  0  0  0  0  0  0  0
   -0.5102   -0.3728    0.3086 C   0  0  1  0  0  0  0  0  0  0  0  0
    0.2354   -1.0844   -0.0490 H   0  0  0  0  0  0  0  0  0  0  0  0
   -0.5452    0.8158   -0.6698 C   0  0  0  0  0  0  0  0  0  0  0  0
   -1.5440    0.8928   -1.1030 H   0  0  0  0  0  0  0  0  0  0  0  0
   -0.3468    1.7366   -0.1182 H   0  0  0  0  0  0  0  0  0  0  0  0
    0.4559    0.7048   -1.7904 C   0  0  0  0  0  0  0  0  0  0  0  0
    0.9249   -0.4631   -2.3527 N   0  0  0  0  0  0  0  0  0  0  0  0
    0.7188   -1.3994   -2.0381 H   0  0  0  0  0  0  0  0  0  0  0  0
    1.7111   -0.1372   -3.3924 C   0  0  0  0  0  0  0  0  0  0  0  0
    2.2303   -0.8425   -4.0298 H   0  0  0  0  0  0  0  0  0  0  0  0
    1.7624    1.1951   -3.5363 N   0  0  0  0  0  0  0  0  0  0  0  0
    0.9721    1.7413   -2.5216 C   0  0  0  0  0  0  0  0  0  0  0  0
    0.7729    2.7932   -2.3630 H   0  0  0  0  0  0  0  0  0  0  0  0
   -0.1073    0.0565    1.7296 C   0  0  0  0  0  0  0  0  0  0  0  0
    1.0285   -0.1699    2.1459 O   0  0  0  0  0  0  0  0  0  0  0  0
   -1.0395    0.6588    2.4785 N   0  0  0  0  0  0  0  0  0  0  0  0
   -1.9636    0.7597    2.0849 H   0  0  0  0  0  0  0  0  0  0  0  0
   -0.8222    1.1334    3.8425 C   0  0  0  0  0  0  0  0  0  0  0  0
   -0.0212    1.8761    3.8521 H   0  0  0  0  0  0  0  0  0  0  0  0
   -1.7349    1.5853    4.2320 H   0  0  0  0  0  0  0  0  0  0  0  0
   -0.5312    0.2997    4.4834 H   0  0  0  0  0  0  0  0  0  0  0  0
  5  6  2  0  0  0  0
  5  7  1  0  0  0  0
  2  3  1  0  0  0  0
  2  4  1  0  0  0  0
  2  5  1  0  0  0  0
  1  2  1  0  0  0  0
 22 23  2  0  0  0  0
 22 24  1  0  0  0  0
 20 21  1  0  0  0  0
 19 20  1  0  0  0  0
 17 18  1  0  0  0  0
 17 19  2  0  0  0  0
 15 16  1  0  0  0  0
 15 17  1  0  0  0  0
 14 15  1  0  0  0  0
 14 20  2  0  0  0  0
 11 12  1  0  0  0  0
 11 13  1  0  0  0  0
 11 14  1  0  0  0  0
  9 10  1  0  0  0  0
  9 11  1  0  0  0  0
  9 22  1  0  0  0  0
  7  8  1  0  0  0  0
  7  9  1  0  0  0  0
 26 27  1  0  0  0  0
 26 28  1  0  0  0  0
 26 29  1  0  0  0  0
 24 25  1  0  0  0  0
 24 26  1  0  0  0  0
M  END
$$$$
default_name
  -OEChem-02102213163D

 29 29  0     1  0  0  0  0  0999 V2000
   -3.6042   -3.5728    1.4576 H   0  0  0  0  0  0  0  0  0  0  0  0
   -3.5202   -2.6488    0.8866 C   0  0  0  0  0  0  0  0  0  0  0  0
   -4.2052   -1.9048    1.2896 H   0  0  0  0  0  0  0  0  0  0  0  0
   -3.7552   -2.8428   -0.1584 H   0  0  0  0  0  0  0  0  0  0  0  0
   -2.1052   -2.1358    0.9946 C   0  0  0  0  0  0  0  0  0  0  0  0
   -1.2852   -2.7288    1.6826 O   0  0  0  0  0  0  0  0  0  0  0  0
   -1.8202   -1.0288    0.3146 N   0  0  0  0  0  0  0  0  0  0  0  0
   -2.5542   -0.5788   -0.2104 H   0  0  0  0  0  0  0  0  0  0  0  0
   -0.5102   -0.3728    0.3086 C   0  0  1  0  0  0  0  0  0  0  0  0
    0.2354   -1.0844   -0.0490 H   0  0  0  0  0  0  0  0  0  0  0  0
   -0.5452    0.8158   -0.6698 C   0  0  0  0  0  0  0  0  0  0  0  0
   -1.5440    0.8928   -1.1030 H   0  0  0  0  0  0  0  0  0  0  0  0
   -0.3468    1.7366   -0.1182 H   0  0  0  0  0  0  0  0  0  0  0  0
    0.4559    0.7048   -1.7904 C   0  0  0  0  0  0  0  0  0  0  0  0
    0.7133   -0.4189   -2.5461 N   0  0  0  0  0  0  0  0  0  0  0  0
    0.3212   -1.3370   -2.3996 H   0  0  0  0  0  0  0  0  0  0  0  0
    1.5841   -0.0799   -3.5116 C   0  0  0  0  0  0  0  0  0  0  0  0
    1.9817   -0.7536   -4.2607 H   0  0  0  0  0  0  0  0  0  0  0  0
    1.8938    1.2218   -3.4216 N   0  0  0  0  0  0  0  0  0  0  0  0
    1.1863    1.7303   -2.3291 C   0  0  0  0  0  0  0  0  0  0  0  0
    1.1859    2.7583   -1.9906 H   0  0  0  0  0  0  0  0  0  0  0  0
   -0.1073    0.0565    1.7296 C   0  0  0  0  0  0  0  0  0  0  0  0
    1.0285   -0.1699    2.1459 O   0  0  0  0  0  0  0  0  0  0  0  0
   -1.0395    0.6588    2.4785 N   0  0  0  0  0  0  0  0  0  0  0  0
   -1.9636    0.7597    2.0849 H   0  0  0  0  0  0  0  0  0  0  0  0
   -0.8222    1.1334    3.8425 C   0  0  0  0  0  0  0  0  0  0  0  0
   -0.0212    1.8761    3.8521 H   0  0  0  0  0  0  0  0  0  0  0  0
   -1.7349    1.5853    4.2320 H   0  0  0  0  0  0  0  0  0  0  0  0
   -0.5312    0.2997    4.4834 H   0  0  0  0  0  0  0  0  0  0  0  0
  5  6  2  0  0  0  0
  5  7  1  0  0  0  0
  2  3  1  0  0  0  0
  2  4  1  0  0  0  0
  2  5  1  0  0  0  0
  1  2  1  0  0  0  0
 22 23  2  0  0  0  0
 22 24  1  0  0  0  0
 20 21  1  0  0  0  0
 19 20  1  0  0  0  0
 17 18  1  0  0  0  0
 17 19  2  0  0  0  0
 15 16  1  0  0  0  0
 15 17  1  0  0  0  0
 14 15  1  0  0  0  0
 14 20  2  0  0  0  0
 11 12  1  0  0  0  0
 11 13  1  0  0  0  0
 11 14  1  0  0  0  0
  9 10  1  0  0  0  0
  9 11  1  0  0  0  0
  9 22  1  0  0  0  0
  7  8  1  0  0  0  0
  7  9  1  0  0  0  0
 26 27  1  0  0  0  0
 26 28  1  0  0  0  0
 26 29  1  0  0  0  0
 24 25  1  0  0  0  0
 24 26  1  0  0  0  0
M  END
$$$$
default_name
  -OEChem-02102213163D

 29 29  0     1  0  0  0  0  0999 V2000
   -3.6042   -3.5728    1.4576 H   0  0  0  0  0  0  0  0  0  0  0  0
   -3.5202   -2.6488    0.8866 C   0  0  0  0  0  0  0  0  0  0  0  0
   -4.2052   -1.9048    1.2896 H   0  0  0  0  0  0  0  0  0  0  0  0
   -3.7552   -2.8428   -0.1584 H   0  0  0  0  0  0  0  0  0  0  0  0
   -2.1052   -2.1358    0.9946 C   0  0  0  0  0  0  0  0  0  0  0  0
   -1.2852   -2.7288    1.6826 O   0  0  0  0  0  0  0  0  0  0  0  0
   -1.8202   -1.0288    0.3146 N   0  0  0  0  0  0  0  0  0  0  0  0
   -2.5542   -0.5788   -0.2104 H   0  0  0  0  0  0  0  0  0  0  0  0
   -0.5102   -0.3728    0.3086 C   0  0  1  0  0  0  0  0  0  0  0  0
    0.2354   -1.0844   -0.0490 H   0  0  0  0  0  0  0  0  0  0  0  0
   -0.5452    0.8158   -0.6698 C   0  0  0  0  0  0  0  0  0  0  0  0
   -1.5440    0.8928   -1.1030 H   0  0  0  0  0  0  0  0  0  0  0  0
   -0.3468    1.7366   -0.1182 H   0  0  0  0  0  0  0  0  0  0  0  0
    0.4559    0.7048   -1.7904 C   0  0  0  0  0  0  0  0  0  0  0  0
    0.5211   -0.3022   -2.7293 N   0  0  0  0  0  0  0  0  0  0  0  0
   -0.0440   -1.1380   -2.7455 H   0  0  0  0  0  0  0  0  0  0  0  0
    1.4747    0.0204   -3.6193 C   0  0  0  0  0  0  0  0  0  0  0  0
    1.7630   -0.5802   -4.4733 H   0  0  0  0  0  0  0  0  0  0  0  0
    2.0236    1.2026   -3.3037 N   0  0  0  0  0  0  0  0  0  0  0  0
    1.3875    1.6454   -2.1410 C   0  0  0  0  0  0  0  0  0  0  0  0
    1.5711    2.5810   -1.6289 H   0  0  0  0  0  0  0  0  0  0  0  0
   -0.1073    0.0565    1.7296 C   0  0  0  0  0  0  0  0  0  0  0  0
    1.0285   -0.1699    2.1459 O   0  0  0  0  0  0  0  0  0  0  0  0
   -1.0395    0.6588    2.4785 N   0  0  0  0  0  0  0  0  0  0  0  0
   -1.9636    0.7597    2.0849 H   0  0  0  0  0  0  0  0  0  0  0  0
   -0.8222    1.1334    3.8425 C   0  0  0  0  0  0  0  0  0  0  0  0
   -0.0212    1.8761    3.8521 H   0  0  0  0  0  0  0  0  0  0  0  0
   -1.7349    1.5853    4.2320 H   0  0  0  0  0  0  0  0  0  0  0  0
   -0.5312    0.2997    4.4834 H   0  0  0  0  0  0  0  0  0  0  0  0
  5  6  2  0  0  0  0
  5  7  1  0  0  0  0
  2  3  1  0  0  0  0
  2  4  1  0  0  0  0
  2  5  1  0  0  0  0
  1  2  1  0  0  0  0
 22 23  2  0  0  0  0
 22 24  1  0  0  0  0
 20 21  1  0  0  0  0
 19 20  1  0  0  0  0
 17 18  1  0  0  0  0
 17 19  2  0  0  0  0
 15 16  1  0  0  0  0
 15 17  1  0  0  0  0
 14 15  1  0  0  0  0
 14 20  2  0  0  0  0
 11 12  1  0  0  0  0
 11 13  1  0  0  0  0
 11 14  1  0  0  0  0
  9 10  1  0  0  0  0
  9 11  1  0  0  0  0
  9 22  1  0  0  0  0
  7  8  1  0  0  0  0
  7  9  1  0  0  0  0
 26 27  1  0  0  0  0
 26 28  1  0  0  0  0
 26 29  1  0  0  0  0
 24 25  1  0  0  0  0
 24 26  1  0  0  0  0
M  END
$$$$
default_name
  -OEChem-02102213163D

 29 29  0     1  0  0  0  0  0999 V2000
   -3.6042   -3.5728    1.4576 H   0  0  0  0  0  0  0  0  0  0  0  0
   -3.5202   -2.6488    0.8866 C   0  0  0  0  0  0  0  0  0  0  0  0
   -4.2052   -1.9048    1.2896 H   0  0  0  0  0  0  0  0  0  0  0  0
   -3.7552   -2.8428   -0.1584 H   0  0  0  0  0  0  0  0  0  0  0  0
   -2.1052   -2.1358    0.9946 C   0  0  0  0  0  0  0  0  0  0  0  0
   -1.2852   -2.7288    1.6826 O   0  0  0  0  0  0  0  0  0  0  0  0
   -1.8202   -1.0288    0.3146 N   0  0  0  0  0  0  0  0  0  0  0  0
   -2.5542   -0.5788   -0.2104 H   0  0  0  0  0  0  0  0  0  0  0  0
   -0.5102   -0.3728    0.3086 C   0  0  1  0  0  0  0  0  0  0  0  0
    0.2354   -1.0844   -0.0490 H   0  0  0  0  0  0  0  0  0  0  0  0
   -0.5452    0.8158   -0.6698 C   0  0  0  0  0  0  0  0  0  0  0  0
   -1.5440    0.8928   -1.1030 H   0  0  0  0  0  0  0  0  0  0  0  0
   -0.3468    1.7366   -0.1182 H   0  0  0  0  0  0  0  0  0  0  0  0
    0.4559    0.7048   -1.7904 C   0  0  0  0  0  0  0  0  0  0  0  0
    0.3614   -0.1210   -2.8900 N   0  0  0  0  0  0  0  0  0  0  0  0
   -0.3519   -0.8160   -3.0524 H   0  0  0  0  0  0  0  0  0  0  0  0
    1.3903    0.1569   -3.7081 C   0  0  0  0  0  0  0  0  0  0  0  0
    1.5892   -0.3341   -4.6529 H   0  0  0  0  0  0  0  0  0  0  0  0
    2.1431    1.1387   -3.1906 N   0  0  0  0  0  0  0  0  0  0  0  0
    1.5618    1.4923   -1.9701 C   0  0  0  0  0  0  0  0  0  0  0  0
    1.9021    2.2735   -1.3028 H   0  0  0  0  0  0  0  0  0  0  0  0
   -0.1073    0.0565    1.7296 C   0  0  0  0  0  0  0  0  0  0  0  0
    1.0285   -0.1699    2.1459 O   0  0  0  0  0  0  0  0  0  0  0  0
   -1.0395    0.6588    2.4785 N   0  0  0  0  0  0  0  0  0  0  0  0
   -1.9636    0.7597    2.0849 H   0  0  0  0  0  0  0  0  0  0  0  0
   -0.8222    1.1334    3.8425 C   0  0  0  0  0  0  0  0  0  0  0  0
   -0.0212    1.8761    3.8521 H   0  0  0  0  0  0  0  0  0  0  0  0
   -1.7349    1.5853    4.2320 H   0  0  0  0  0  0  0  0  0  0  0  0
   -0.5312    0.2997    4.4834 H   0  0  0  0  0  0  0  0  0  0  0  0
  5  6  2  0  0  0  0
  5  7  1  0  0  0  0
  2  3  1  0  0  0  0
  2  4  1  0  0  0  0
  2  5  1  0  0  0  0
  1  2  1  0  0  0  0
 22 23  2  0  0  0  0
 22 24  1  0  0  0  0
 20 21  1  0  0  0  0
 19 20  1  0  0  0  0
 17 18  1  0  0  0  0
 17 19  2  0  0  0  0
 15 16  1  0  0  0  0
 15 17  1  0  0  0  0
 14 15  1  0  0  0  0
 14 20  2  0  0  0  0
 11 12  1  0  0  0  0
 11 13  1  0  0  0  0
 11 14  1  0  0  0  0
  9 10  1  0  0  0  0
  9 11  1  0  0  0  0
  9 22  1  0  0  0  0
  7  8  1  0  0  0  0
  7  9  1  0  0  0  0
 26 27  1  0  0  0  0
 26 28  1  0  0  0  0
 26 29  1  0  0  0  0
 24 25  1  0  0  0  0
 24 26  1  0  0  0  0
M  END
$$$$
default_name
  -OEChem-02102213163D

 29 29  0     1  0  0  0  0  0999 V2000
   -3.6042   -3.5728    1.4576 H   0  0  0  0  0  0  0  0  0  0  0  0
   -3.5202   -2.6488    0.8866 C   0  0  0  0  0  0  0  0  0  0  0  0
   -4.2052   -1.9048    1.2896 H   0  0  0  0  0  0  0  0  0  0  0  0
   -3.7552   -2.8428   -0.1584 H   0  0  0  0  0  0  0  0  0  0  0  0
   -2.1052   -2.1358    0.9946 C   0  0  0  0  0  0  0  0  0  0  0  0
   -1.2852   -2.7288    1.6826 O   0  0  0  0  0  0  0  0  0  0  0  0
   -1.8202   -1.0288    0.3146 N   0  0  0  0  0  0  0  0  0  0  0  0
   -2.5542   -0.5788   -0.2104 H   0  0  0  0  0  0  0  0  0  0  0  0
   -0.5102   -0.3728    0.3086 C   0  0  1  0  0  0  0  0  0  0  0  0
    0.2354   -1.0844   -0.0490 H   0  0  0  0  0  0  0  0  0  0  0  0
   -0.5452    0.8158   -0.6698 C   0  0  0  0  0  0  0  0  0  0  0  0
   -1.5440    0.8928   -1.1030 H   0  0  0  0  0  0  0  0  0  0  0  0
   -0.3468    1.7366   -0.1182 H   0  0  0  0  0  0  0  0  0  0  0  0
    0.4559    0.7048   -1.7904 C   0  0  0  0  0  0  0  0  0  0  0  0
    0.2451    0.1123   -3.0170 N   0  0  0  0  0  0  0  0  0  0  0  0
   -0.5814   -0.3930   -3.2994 H   0  0  0  0  0  0  0  0  0  0  0  0
    1.3369    0.3203   -3.7721 C   0  0  0  0  0  0  0  0  0  0  0  0
    1.4722   -0.0320   -4.7874 H   0  0  0  0  0  0  0  0  0  0  0  0
    2.2440    1.0346   -3.0901 N   0  0  0  0  0  0  0  0  0  0  0  0
    1.6975    1.2815   -1.8280 C   0  0  0  0  0  0  0  0  0  0  0  0
    2.1564    1.8566   -1.0343 H   0  0  0  0  0  0  0  0  0  0  0  0
   -0.1073    0.0565    1.7296 C   0  0  0  0  0  0  0  0  0  0  0  0
    1.0285   -0.1699    2.1459 O   0  0  0  0  0  0  0  0  0  0  0  0
   -1.0395    0.6588    2.4785 N   0  0  0  0  0  0  0  0  0  0  0  0
   -1.9636    0.7597    2.0849 H   0  0  0  0  0  0  0  0  0  0  0  0
   -0.8222    1.1334    3.8425 C   0  0  0  0  0  0  0  0  0  0  0  0
   -0.0212    1.8761    3.8521 H   0  0  0  0  0  0  0  0  0  0  0  0
   -1.7349    1.5853    4.2320 H   0  0  0  0  0  0  0  0  0  0  0  0
   -0.5312    0.2997    4.4834 H   0  0  0  0  0  0  0  0  0  0  0  0
  5  6  2  0  0  0  0
  5  7  1  0  0  0  0
  2  3  1  0  0  0  0
  2  4  1  0  0  0  0
  2  5  1  0  0  0  0
  1  2  1  0  0  0  0
 22 23  2  0  0  0  0
 22 24  1  0  0  0  0
 20 21  1  0  0  0  0
 19 20  1  0  0  0  0
 17 18  1  0  0  0  0
 17 19  2  0  0  0  0
 15 16  1  0  0  0  0
 15 17  1  0  0  0  0
 14 15  1  0  0  0  0
 14 20  2  0  0  0  0
 11 12  1  0  0  0  0
 11 13  1  0  0  0  0
 11 14  1  0  0  0  0
  9 10  1  0  0  0  0
  9 11  1  0  0  0  0
  9 22  1  0  0  0  0
  7  8  1  0  0  0  0
  7  9  1  0  0  0  0
 26 27  1  0  0  0  0
 26 28  1  0  0  0  0
 26 29  1  0  0  0  0
 24 25  1  0  0  0  0
 24 26  1  0  0  0  0
M  END
$$$$
default_name
  -OEChem-02102213163D

 29 29  0     1  0  0  0  0  0999 V2000
   -3.6042   -3.5728    1.4576 H   0  0  0  0  0  0  0  0  0  0  0  0
   -3.5202   -2.6488    0.8866 C   0  0  0  0  0  0  0  0  0  0  0  0
   -4.2052   -1.9048    1.2896 H   0  0  0  0  0  0  0  0  0  0  0  0
   -3.7552   -2.8428   -0.1584 H   0  0  0  0  0  0  0  0  0  0  0  0
   -2.1052   -2.1358    0.9946 C   0  0  0  0  0  0  0  0  0  0  0  0
   -1.2852   -2.7288    1.6826 O   0  0  0  0  0  0  0  0  0  0  0  0
   -1.8202   -1.0288    0.3146 N   0  0  0  0  0  0  0  0  0  0  0  0
   -2.5542   -0.5788   -0.2104 H   0  0  0  0  0  0  0  0  0  0  0  0
   -0.5102   -0.3728    0.3086 C   0  0  1  0  0  0  0  0  0  0  0  0
    0.2354   -1.0844   -0.0490 H   0  0  0  0  0  0  0  0  0  0  0  0
   -0.5452    0.8158   -0.6698 C   0  0  0  0  0  0  0  0  0  0  0  0
   -1.5440    0.8928   -1.1030 H   0  0  0  0  0  0  0  0  0  0  0  0
   -0.3468    1.7366   -0.1182 H   0  0  0  0  0  0  0  0  0  0  0  0
    0.4559    0.7048   -1.7904 C   0  0  0  0  0  0  0  0  0  0  0  0
    0.1801    0.3820   -3.1018 N   0  0  0  0  0  0  0  0  0  0  0  0
   -0.7170    0.1023   -3.4696 H   0  0  0  0  0  0  0  0  0  0  0  0
    1.3179    0.4994   -3.8068 C   0  0  0  0  0  0  0  0  0  0  0  0
    1.4198    0.3054   -4.8676 H   0  0  0  0  0  0  0  0  0  0  0  0
    2.3196    0.8974   -3.0090 N   0  0  0  0  0  0  0  0  0  0  0  0
    1.7852    1.0273   -1.7245 C   0  0  0  0  0  0  0  0  0  0  0  0
    2.3166    1.3588   -0.8418 H   0  0  0  0  0  0  0  0  0  0  0  0
   -0.1073    0.0565    1.7296 C   0  0  0  0  0  0  0  0  0  0  0  0
    1.0285   -0.1699    2.1459 O   0  0  0  0  0  0  0  0  0  0  0  0
   -1.0395    0.6588    2.4785 N   0  0  0  0  0  0  0  0  0  0  0  0
   -1.9636    0.7597    2.0849 H   0  0  0  0  0  0  0  0  0  0  0  0
   -0.8222    1.1334    3.8425 C   0  0  0  0  0  0  0  0  0  0  0  0
   -0.0212    1.8761    3.8521 H   0  0  0  0  0  0  0  0  0  0  0  0
   -1.7349    1.5853    4.2320 H   0  0  0  0  0  0  0  0  0  0  0  0
   -0.5312    0.2997    4.4834 H   0  0  0  0  0  0  0  0  0  0  0  0
  5  6  2  0  0  0  0
  5  7  1  0  0  0  0
  2  3  1  0  0  0  0
  2  4  1  0  0  0  0
  2  5  1  0  0  0  0
  1  2  1  0  0  0  0
 22 23  2  0  0  0  0
 22 24  1  0  0  0  0
 20 21  1  0  0  0  0
 19 20  1  0  0  0  0
 17 18  1  0  0  0  0
 17 19  2  0  0  0  0
 15 16  1  0  0  0  0
 15 17  1  0  0  0  0
 14 15  1  0  0  0  0
 14 20  2  0  0  0  0
 11 12  1  0  0  0  0
 11 13  1  0  0  0  0
 11 14  1  0  0  0  0
  9 10  1  0  0  0  0
  9 11  1  0  0  0  0
  9 22  1  0  0  0  0
  7  8  1  0  0  0  0
  7  9  1  0  0  0  0
 26 27  1  0  0  0  0
 26 28  1  0  0  0  0
 26 29  1  0  0  0  0
 24 25  1  0  0  0  0
 24 26  1  0  0  0  0
M  END
$$$$
default_name
  -OEChem-02102213163D

 29 29  0     1  0  0  0  0  0999 V2000
   -3.6042   -3.5728    1.4576 H   0  0  0  0  0  0  0  0  0  0  0  0
   -3.5202   -2.6488    0.8866 C   0  0  0  0  0  0  0  0  0  0  0  0
   -4.2052   -1.9048    1.2896 H   0  0  0  0  0  0  0  0  0  0  0  0
   -3.7552   -2.8428   -0.1584 H   0  0  0  0  0  0  0  0  0  0  0  0
   -2.1052   -2.1358    0.9946 C   0  0  0  0  0  0  0  0  0  0  0  0
   -1.2852   -2.7288    1.6826 O   0  0  0  0  0  0  0  0  0  0  0  0
   -1.8202   -1.0288    0.3146 N   0  0  0  0  0  0  0  0  0  0  0  0
   -2.5542   -0.5788   -0.2104 H   0  0  0  0  0  0  0  0  0  0  0  0
   -0.5102   -0.3728    0.3086 C   0  0  1  0  0  0  0  0  0  0  0  0
    0.2354   -1.0844   -0.0490 H   0  0  0  0  0  0  0  0  0  0  0  0
   -0.5452    0.8158   -0.6698 C   0  0  0  0  0  0  0  0  0  0  0  0
   -1.5440    0.8928   -1.1030 H   0  0  0  0  0  0  0  0  0  0  0  0
   -0.3468    1.7366   -0.1182 H   0  0  0  0  0  0  0  0  0  0  0  0
    0.4559    0.7048   -1.7904 C   0  0  0  0  0  0  0  0  0  0  0  0
    0.1708    0.6696   -3.1385 N   0  0  0  0  0  0  0  0  0  0  0  0
   -0.7493    0.6361   -3.5514 H   0  0  0  0  0  0  0  0  0  0  0  0
    1.3346    0.6820   -3.8099 C   0  0  0  0  0  0  0  0  0  0  0  0
    1.4358    0.6552   -4.8880 H   0  0  0  0  0  0  0  0  0  0  0  0
    2.3646    0.7363   -2.9528 N   0  0  0  0  0  0  0  0  0  0  0  0
    1.8191    0.7470   -1.6665 C   0  0  0  0  0  0  0  0  0  0  0  0
    2.3720    0.8140   -0.7384 H   0  0  0  0  0  0  0  0  0  0  0  0
   -0.1073    0.0565    1.7296 C   0  0  0  0  0  0  0  0  0  0  0  0
    1.0285   -0.1699    2.1459 O   0  0  0  0  0  0  0  0  0  0  0  0
   -1.0395    0.6588    2.4785 N   0  0  0  0  0  0  0  0  0  0  0  0
   -1.9636    0.7597    2.0849 H   0  0  0  0  0  0  0  0  0  0  0  0
   -0.8222    1.1334    3.8425 C   0  0  0  0  0  0  0  0  0  0  0  0
   -0.0212    1.8761    3.8521 H   0  0  0  0  0  0  0  0  0  0  0  0
   -1.7349    1.5853    4.2320 H   0  0  0  0  0  0  0  0  0  0  0  0
   -0.5312    0.2997    4.4834 H   0  0  0  0  0  0  0  0  0  0  0  0
  5  6  2  0  0  0  0
  5  7  1  0  0  0  0
  2  3  1  0  0  0  0
  2  4  1  0  0  0  0
  2  5  1  0  0  0  0
  1  2  1  0  0  0  0
 22 23  2  0  0  0  0
 22 24  1  0  0  0  0
 20 21  1  0  0  0  0
 19 20  1  0  0  0  0
 17 18  1  0  0  0  0
 17 19  2  0  0  0  0
 15 16  1  0  0  0  0
 15 17  1  0  0  0  0
 14 15  1  0  0  0  0
 14 20  2  0  0  0  0
 11 12  1  0  0  0  0
 11 13  1  0  0  0  0
 11 14  1  0  0  0  0
  9 10  1  0  0  0  0
  9 11  1  0  0  0  0
  9 22  1  0  0  0  0
  7  8  1  0  0  0  0
  7  9  1  0  0  0  0
 26 27  1  0  0  0  0
 26 28  1  0  0  0  0
 26 29  1  0  0  0  0
 24 25  1  0  0  0  0
 24 26  1  0  0  0  0
M  END
$$$$
default_name
  -OEChem-02102213163D

 29 29  0     1  0  0  0  0  0999 V2000
   -3.6042   -3.5728    1.4576 H   0  0  0  0  0  0  0  0  0  0  0  0
   -3.5202   -2.6488    0.8866 C   0  0  0  0  0  0  0  0  0  0  0  0
   -4.2052   -1.9048    1.2896 H   0  0  0  0  0  0  0  0  0  0  0  0
   -3.7552   -2.8428   -0.1584 H   0  0  0  0  0  0  0  0  0  0  0  0
   -2.1052   -2.1358    0.9946 C   0  0  0  0  0  0  0  0  0  0  0  0
   -1.2852   -2.7288    1.6826 O   0  0  0  0  0  0  0  0  0  0  0  0
   -1.8202   -1.0288    0.3146 N   0  0  0  0  0  0  0  0  0  0  0  0
   -2.5542   -0.5788   -0.2104 H   0  0  0  0  0  0  0  0  0  0  0  0
   -0.5102   -0.3728    0.3086 C   0  0  1  0  0  0  0  0  0  0  0  0
    0.2354   -1.0844   -0.0490 H   0  0  0  0  0  0  0  0  0  0  0  0
   -0.5452    0.8158   -0.6698 C   0  0  0  0  0  0  0  0  0  0  0  0
   -1.5440    0.8928   -1.1030 H   0  0  0  0  0  0  0  0  0  0  0  0
   -0.3468    1.7366   -0.1182 H   0  0  0  0  0  0  0  0  0  0  0  0
    0.4559    0.7048   -1.7904 C   0  0  0  0  0  0  0  0  0  0  0  0
    0.2179    0.9554   -3.1248 N   0  0  0  0  0  0  0  0  0  0  0  0
   -0.6763    1.1720   -3.5392 H   0  0  0  0  0  0  0  0  0  0  0  0
    1.3861    0.8556   -3.7812 C   0  0  0  0  0  0  0  0  0  0  0  0
    1.5189    0.9936   -4.8473 H   0  0  0  0  0  0  0  0  0  0  0  0
    2.3760    0.5624   -2.9254 N   0  0  0  0  0  0  0  0  0  0  0  0
    1.7967    0.4599   -1.6580 C   0  0  0  0  0  0  0  0  0  0  0  0
    2.3186    0.2594   -0.7312 H   0  0  0  0  0  0  0  0  0  0  0  0
   -0.1073    0.0565    1.7296 C   0  0  0  0  0  0  0  0  0  0  0  0
    1.0285   -0.1699    2.1459 O   0  0  0  0  0  0  0  0  0  0  0  0
   -1.0395    0.6588    2.4785 N   0  0  0  0  0  0  0  0  0  0  0  0
   -1.9636    0.7597    2.0849 H   0  0  0  0  0  0  0  0  0  0  0  0
   -0.8222    1.1334    3.8425 C   0  0  0  0  0  0  0  0  0  0  0  0
   -0.0212    1.8761    3.8521 H   0  0  0  0  0  0  0  0  0  0  0  0
   -1.7349    1.5853    4.2320 H   0  0  0  0  0  0  0  0  0  0  0  0
   -0.5312    0.2997    4.4834 H   0  0  0  0  0  0  0  0  0  0  0  0
  5  6  2  0  0  0  0
  5  7  1  0  0  0  0
  2  3  1  0  0  0  0
  2  4  1  0  0  0  0
  2  5  1  0  0  0  0
  1  2  1  0  0  0  0
 22 23  2  0  0  0  0
 22 24  1  0  0  0  0
 20 21  1  0  0  0  0
 19 20  1  0  0  0  0
 17 18  1  0  0  0  0
 17 19  2  0  0  0  0
 15 16  1  0  0  0  0
 15 17  1  0  0  0  0
 14 15  1  0  0  0  0
 14 20  2  0  0  0  0
 11 12  1  0  0  0  0
 11 13  1  0  0  0  0
 11 14  1  0  0  0  0
  9 10  1  0  0  0  0
  9 11  1  0  0  0  0
  9 22  1  0  0  0  0
  7  8  1  0  0  0  0
  7  9  1  0  0  0  0
 26 27  1  0  0  0  0
 26 28  1  0  0  0  0
 26 29  1  0  0  0  0
 24 25  1  0  0  0  0
 24 26  1  0  0  0  0
M  END
$$$$
default_name
  -OEChem-02102213163D

 29 29  0     1  0  0  0  0  0999 V2000
   -3.6042   -3.5728    1.4576 H   0  0  0  0  0  0  0  0  0  0  0  0
   -3.5202   -2.6488    0.8866 C   0  0  0  0  0  0  0  0  0  0  0  0
   -4.2052   -1.9048    1.2896 H   0  0  0  0  0  0  0  0  0  0  0  0
   -3.7552   -2.8428   -0.1584 H   0  0  0  0  0  0  0  0  0  0  0  0
   -2.1052   -2.1358    0.9946 C   0  0  0  0  0  0  0  0  0  0  0  0
   -1.2852   -2.7288    1.6826 O   0  0  0  0  0  0  0  0  0  0  0  0
   -1.8202   -1.0288    0.3146 N   0  0  0  0  0  0  0  0  0  0  0  0
   -2.5542   -0.5788   -0.2104 H   0  0  0  0  0  0  0  0  0  0  0  0
   -0.5102   -0.3728    0.3086 C   0  0  1  0  0  0  0  0  0  0  0  0
    0.2354   -1.0844   -0.0490 H   0  0  0  0  0  0  0  0  0  0  0  0
   -0.5452    0.8158   -0.6698 C   0  0  0  0  0  0  0  0  0  0  0  0
   -1.5440    0.8928   -1.1030 H   0  0  0  0  0  0  0  0  0  0  0  0
   -0.3468    1.7366   -0.1182 H   0  0  0  0  0  0  0  0  0  0  0  0
    0.4559    0.7048   -1.7904 C   0  0  0  0  0  0  0  0  0  0  0  0
    0.3182    1.2201   -3.0614 N   0  0  0  0  0  0  0  0  0  0  0  0
   -0.5028    1.6734   -3.4339 H   0  0  0  0  0  0  0  0  0  0  0  0
    1.4686    1.0086   -3.7226 C   0  0  0  0  0  0  0  0  0  0  0  0
    1.6635    1.2974   -4.7481 H   0  0  0  0  0  0  0  0  0  0  0  0
    2.3531    0.3875   -2.9286 N   0  0  0  0  0  0  0  0  0  0  0  0
    1.7197    0.1853   -1.6996 C   0  0  0  0  0  0  0  0  0  0  0  0
    2.1601   -0.2673   -0.8206 H   0  0  0  0  0  0  0  0  0  0  0  0
   -0.1073    0.0565    1.7296 C   0  0  0  0  0  0  0  0  0  0  0  0
    1.0285   -0.1699    2.1459 O   0  0  0  0  0  0  0  0  0  0  0  0
   -1.0395    0.6588    2.4785 N   0  0  0  0  0  0  0  0  0  0  0  0
   -1.9636    0.7597    2.0849 H   0  0  0  0  0  0  0  0  0  0  0  0
   -0.8222    1.1334    3.8425 C   0  0  0  0  0  0  0  0  0  0  0  0
   -0.0212    1.8761    3.8521 H   0  0  0  0  0  0  0  0  0  0  0  0
   -1.7349    1.5853    4.2320 H   0  0  0  0  0  0  0  0  0  0  0  0
   -0.5312    0.2997    4.4834 H   0  0  0  0  0  0  0  0  0  0  0  0
  5  6  2  0  0  0  0
  5  7  1  0  0  0  0
  2  3  1  0  0  0  0
  2  4  1  0  0  0  0
  2  5  1  0  0  0  0
  1  2  1  0  0  0  0
 22 23  2  0  0  0  0
 22 24  1  0  0  0  0
 20 21  1  0  0  0  0
 19 20  1  0  0  0  0
 17 18  1  0  0  0  0
 17 19  2  0  0  0  0
 15 16  1  0  0  0  0
 15 17  1  0  0  0  0
 14 15  1  0  0  0  0
 14 20  2  0  0  0  0
 11 12  1  0  0  0  0
 11 13  1  0  0  0  0
 11 14  1  0  0  0  0
  9 10  1  0  0  0  0
  9 11  1  0  0  0  0
  9 22  1  0  0  0  0
  7  8  1  0  0  0  0
  7  9  1  0  0  0  0
 26 27  1  0  0  0  0
 26 28  1  0  0  0  0
 26 29  1  0  0  0  0
 24 25  1  0  0  0  0
 24 26  1  0  0  0  0
M  END
$$$$
default_name
  -OEChem-02102213163D

 29 29  0     1  0  0  0  0  0999 V2000
   -3.6042   -3.5728    1.4576 H   0  0  0  0  0  0  0  0  0  0  0  0
   -3.5202   -2.6488    0.8866 C   0  0  0  0  0  0  0  0  0  0  0  0
   -4.2052   -1.9048    1.2896 H   0  0  0  0  0  0  0  0  0  0  0  0
   -3.7552   -2.8428   -0.1584 H   0  0  0  0  0  0  0  0  0  0  0  0
   -2.1052   -2.1358    0.9946 C   0  0  0  0  0  0  0  0  0  0  0  0
   -1.2852   -2.7288    1.6826 O   0  0  0  0  0  0  0  0  0  0  0  0
   -1.8202   -1.0288    0.3146 N   0  0  0  0  0  0  0  0  0  0  0  0
   -2.5542   -0.5788   -0.2104 H   0  0  0  0  0  0  0  0  0  0  0  0
   -0.5102   -0.3728    0.3086 C   0  0  1  0  0  0  0  0  0  0  0  0
    0.2354   -1.0844   -0.0490 H   0  0  0  0  0  0  0  0  0  0  0  0
   -0.5452    0.8158   -0.6698 C   0  0  0  0  0  0  0  0  0  0  0  0
   -1.5440    0.8928   -1.1030 H   0  0  0  0  0  0  0  0  0  0  0  0
   -0.3468    1.7366   -0.1182 H   0  0  0  0  0  0  0  0  0  0  0  0
    0.4559    0.7048   -1.7904 C   0  0  0  0  0  0  0  0  0  0  0  0
    0.4647    1.4456   -2.9528 N   0  0  0  0  0  0  0  0  0  0  0  0
   -0.2407    2.1063   -3.2426 H   0  0  0  0  0  0  0  0  0  0  0  0
    1.5767    1.1303   -3.6381 C   0  0  0  0  0  0  0  0  0  0  0  0
    1.8598    1.5460   -4.5974 H   0  0  0  0  0  0  0  0  0  0  0  0
    2.2973    0.2235   -2.9622 N   0  0  0  0  0  0  0  0  0  0  0  0
    1.5933   -0.0579   -1.7885 C   0  0  0  0  0  0  0  0  0  0  0  0
    1.9073   -0.7302   -1.0006 H   0  0  0  0  0  0  0  0  0  0  0  0
   -0.1073    0.0565    1.7296 C   0  0  0  0  0  0  0  0  0  0  0  0
    1.0285   -0.1699    2.1459 O   0  0  0  0  0  0  0  0  0  0  0  0
   -1.0395    0.6588    2.4785 N   0  0  0  0  0  0  0  0  0  0  0  0
   -1.9636    0.7597    2.0849 H   0  0  0  0  0  0  0  0  0  0  0  0
   -0.8222    1.1334    3.8425 C   0  0  0  0  0  0  0  0  0  0  0  0
   -0.0212    1.8761    3.8521 H   0  0  0  0  0  0  0  0  0  0  0  0
   -1.7349    1.5853    4.2320 H   0  0  0  0  0  0  0  0  0  0  0  0
   -0.5312    0.2997    4.4834 H   0  0  0  0  0  0  0  0  0  0  0  0
  5  6  2  0  0  0  0
  5  7  1  0  0  0  0
  2  3  1  0  0  0  0
  2  4  1  0  0  0  0
  2  5  1  0  0  0  0
  1  2  1  0  0  0  0
 22 23  2  0  0  0  0
 22 24  1  0  0  0  0
 20 21  1  0  0  0  0
 19 20  1  0  0  0  0
 17 18  1  0  0  0  0
 17 19  2  0  0  0  0
 15 16  1  0  0  0  0
 15 17  1  0  0  0  0
 14 15  1  0  0  0  0
 14 20  2  0  0  0  0
 11 12  1  0  0  0  0
 11 13  1  0  0  0  0
 11 14  1  0  0  0  0
  9 10  1  0  0  0  0
  9 11  1  0  0  0  0
  9 22  1  0  0  0  0
  7  8  1  0  0  0  0
  7  9  1  0  0  0  0
 26 27  1  0  0  0  0
 26 28  1  0  0  0  0
 26 29  1  0  0  0  0
 24 25  1  0  0  0  0
 24 26  1  0  0  0  0
M  END
$$$$
default_name
  -OEChem-02102213163D

 29 29  0     1  0  0  0  0  0999 V2000
   -3.6042   -3.5728    1.4576 H   0  0  0  0  0  0  0  0  0  0  0  0
   -3.5202   -2.6488    0.8866 C   0  0  0  0  0  0  0  0  0  0  0  0
   -4.2052   -1.9048    1.2896 H   0  0  0  0  0  0  0  0  0  0  0  0
   -3.7552   -2.8428   -0.1584 H   0  0  0  0  0  0  0  0  0  0  0  0
   -2.1052   -2.1358    0.9946 C   0  0  0  0  0  0  0  0  0  0  0  0
   -1.2852   -2.7288    1.6826 O   0  0  0  0  0  0  0  0  0  0  0  0
   -1.8202   -1.0288    0.3146 N   0  0  0  0  0  0  0  0  0  0  0  0
   -2.5542   -0.5788   -0.2104 H   0  0  0  0  0  0  0  0  0  0  0  0
   -0.5102   -0.3728    0.3086 C   0  0  1  0  0  0  0  0  0  0  0  0
    0.2354   -1.0844   -0.0490 H   0  0  0  0  0  0  0  0  0  0  0  0
   -0.5452    0.8158   -0.6698 C   0  0  0  0  0  0  0  0  0  0  0  0
   -1.5841    1.0613   -0.8969 H   0  0  0  0  0  0  0  0  0  0  0  0
   -0.0922    1.6852   -0.1897 H   0  0  0  0  0  0  0  0  0  0  0  0
    0.1792    0.5533   -1.9646 C   0  0  0  0  0  0  0  0  0  0  0  0
    0.3104    1.4318   -3.0187 N   0  0  0  0  0  0  0  0  0  0  0  0
   -0.1257    2.3385   -3.0952 H   0  0  0  0  0  0  0  0  0  0  0  0
    1.1178    0.8671   -3.9323 C   0  0  0  0  0  0  0  0  0  0  0  0
    1.4049    1.3147   -4.8759 H   0  0  0  0  0  0  0  0  0  0  0  0
    1.5268   -0.3379   -3.5091 N   0  0  0  0  0  0  0  0  0  0  0  0
    0.9337   -0.5503   -2.2619 C   0  0  0  0  0  0  0  0  0  0  0  0
    1.0737   -1.4153   -1.6267 H   0  0  0  0  0  0  0  0  0  0  0  0
   -0.1073    0.0565    1.7296 C   0  0  0  0  0  0  0  0  0  0  0  0
    1.0285   -0.1699    2.1459 O   0  0  0  0  0  0  0  0  0  0  0  0
   -1.0395    0.6588    2.4785 N   0  0  0  0  0  0  0  0  0  0  0  0
   -1.9636    0.7597    2.0849 H   0  0  0  0  0  0  0  0  0  0  0  0
   -0.8222    1.1334    3.8425 C   0  0  0  0  0  0  0  0  0  0  0  0
   -0.0212    1.8761    3.8521 H   0  0  0  0  0  0  0  0  0  0  0  0
   -1.7349    1.5853    4.2320 H   0  0  0  0  0  0  0  0  0  0  0  0
   -0.5312    0.2997    4.4834 H   0  0  0  0  0  0  0  0  0  0  0  0
  5  6  2  0  0  0  0
  5  7  1  0  0  0  0
  2  3  1  0  0  0  0
  2  4  1  0  0  0  0
  2  5  1  0  0  0  0
  1  2  1  0  0  0  0
 22 23  2  0  0  0  0
 22 24  1  0  0  0  0
 20 21  1  0  0  0  0
 19 20  1  0  0  0  0
 17 18  1  0  0  0  0
 17 19  2  0  0  0  0
 15 16  1  0  0  0  0
 15 17  1  0  0  0  0
 14 15  1  0  0  0  0
 14 20  2  0  0  0  0
 11 12  1  0  0  0  0
 11 13  1  0  0  0  0
 11 14  1  0  0  0  0
  9 10  1  0  0  0  0
  9 11  1  0  0  0  0
  9 22  1  0  0  0  0
  7  8  1  0  0  0  0
  7  9  1  0  0  0  0
 26 27  1  0  0  0  0
 26 28  1  0  0  0  0
 26 29  1  0  0  0  0
 24 25  1  0  0  0  0
 24 26  1  0  0  0  0
M  END
$$$$
default_name
  -OEChem-02102213163D

 29 29  0     1  0  0  0  0  0999 V2000
   -3.6042   -3.5728    1.4576 H   0  0  0  0  0  0  0  0  0  0  0  0
   -3.5202   -2.6488    0.8866 C   0  0  0  0  0  0  0  0  0  0  0  0
   -4.2052   -1.9048    1.2896 H   0  0  0  0  0  0  0  0  0  0  0  0
   -3.7552   -2.8428   -0.1584 H   0  0  0  0  0  0  0  0  0  0  0  0
   -2.1052   -2.1358    0.9946 C   0  0  0  0  0  0  0  0  0  0  0  0
   -1.2852   -2.7288    1.6826 O   0  0  0  0  0  0  0  0  0  0  0  0
   -1.8202   -1.0288    0.3146 N   0  0  0  0  0  0  0  0  0  0  0  0
   -2.5542   -0.5788   -0.2104 H   0  0  0  0  0  0  0  0  0  0  0  0
   -0.5102   -0.3728    0.3086 C   0  0  1  0  0  0  0  0  0  0  0  0
    0.2354   -1.0844   -0.0490 H   0  0  0  0  0  0  0  0  0  0  0  0
   -0.5452    0.8158   -0.6698 C   0  0  0  0  0  0  0  0  0  0  0  0
   -1.5841    1.0613   -0.8969 H   0  0  0  0  0  0  0  0  0  0  0  0
   -0.0922    1.6852   -0.1897 H   0  0  0  0  0  0  0  0  0  0  0  0
    0.1792    0.5533   -1.9646 C   0  0  0  0  0  0  0  0  0  0  0  0
    0.5622    1.4990   -2.8914 N   0  0  0  0  0  0  0  0  0  0  0  0
    0.3412    2.4831   -2.8633 H   0  0  0  0  0  0  0  0  0  0  0  0
    1.2786    0.8801   -3.8449 C   0  0  0  0  0  0  0  0  0  0  0  0
    1.7122    1.3609   -4.7133 H   0  0  0  0  0  0  0  0  0  0  0  0
    1.3872   -0.4277   -3.5690 N   0  0  0  0  0  0  0  0  0  0  0  0
    0.6892   -0.6483   -2.3788 C   0  0  0  0  0  0  0  0  0  0  0  0
    0.5981   -1.5921   -1.8569 H   0  0  0  0  0  0  0  0  0  0  0  0
   -0.1073    0.0565    1.7296 C   0  0  0  0  0  0  0  0  0  0  0  0
    1.0285   -0.1699    2.1459 O   0  0  0  0  0  0  0  0  0  0  0  0
   -1.0395    0.6588    2.4785 N   0  0  0  0  0  0  0  0  0  0  0  0
   -1.9636    0.7597    2.0849 H   0  0  0  0  0  0  0  0  0  0  0  0
   -0.8222    1.1334    3.8425 C   0  0  0  0  0  0  0  0  0  0  0  0
   -0.0212    1.8761    3.8521 H   0  0  0  0  0  0  0  0  0  0  0  0
   -1.7349    1.5853    4.2320 H   0  0  0  0  0  0  0  0  0  0  0  0
   -0.5312    0.2997    4.4834 H   0  0  0  0  0  0  0  0  0  0  0  0
  5  6  2  0  0  0  0
  5  7  1  0  0  0  0
  2  3  1  0  0  0  0
  2  4  1  0  0  0  0
  2  5  1  0  0  0  0
  1  2  1  0  0  0  0
 22 23  2  0  0  0  0
 22 24  1  0  0  0  0
 20 21  1  0  0  0  0
 19 20  1  0  0  0  0
 17 18  1  0  0  0  0
 17 19  2  0  0  0  0
 15 16  1  0  0  0  0
 15 17  1  0  0  0  0
 14 15  1  0  0  0  0
 14 20  2  0  0  0  0
 11 12  1  0  0  0  0
 11 13  1  0  0  0  0
 11 14  1  0  0  0  0
  9 10  1  0  0  0  0
  9 11  1  0  0  0  0
  9 22  1  0  0  0  0
  7  8  1  0  0  0  0
  7  9  1  0  0  0  0
 26 27  1  0  0  0  0
 26 28  1  0  0  0  0
 26 29  1  0  0  0  0
 24 25  1  0  0  0  0
 24 26  1  0  0  0  0
M  END
$$$$
default_name
  -OEChem-02102213163D

 29 29  0     1  0  0  0  0  0999 V2000
   -3.6042   -3.5728    1.4576 H   0  0  0  0  0  0  0  0  0  0  0  0
   -3.5202   -2.6488    0.8866 C   0  0  0  0  0  0  0  0  0  0  0  0
   -4.2052   -1.9048    1.2896 H   0  0  0  0  0  0  0  0  0  0  0  0
   -3.7552   -2.8428   -0.1584 H   0  0  0  0  0  0  0  0  0  0  0  0
   -2.1052   -2.1358    0.9946 C   0  0  0  0  0  0  0  0  0  0  0  0
   -1.2852   -2.7288    1.6826 O   0  0  0  0  0  0  0  0  0  0  0  0
   -1.8202   -1.0288    0.3146 N   0  0  0  0  0  0  0  0  0  0  0  0
   -2.5542   -0.5788   -0.2104 H   0  0  0  0  0  0  0  0  0  0  0  0
   -0.5102   -0.3728    0.3086 C   0  0  1  0  0  0  0  0  0  0  0  0
    0.2354   -1.0844   -0.0490 H   0  0  0  0  0  0  0  0  0  0  0  0
   -0.5452    0.8158   -0.6698 C   0  0  0  0  0  0  0  0  0  0  0  0
   -1.5841    1.0613   -0.8969 H   0  0  0  0  0  0  0  0  0  0  0  0
   -0.0922    1.6852   -0.1897 H   0  0  0  0  0  0  0  0  0  0  0  0
    0.1792    0.5533   -1.9646 C   0  0  0  0  0  0  0  0  0  0  0  0
    0.8147    1.4921   -2.7488 N   0  0  0  0  0  0  0  0  0  0  0  0
    0.8139    2.4901   -2.6003 H   0  0  0  0  0  0  0  0  0  0  0  0
    1.4328    0.8461   -3.7517 C   0  0  0  0  0  0  0  0  0  0  0  0
    2.0121    1.3169   -4.5366 H   0  0  0  0  0  0  0  0  0  0  0  0
    1.2351   -0.4759   -3.6443 N   0  0  0  0  0  0  0  0  0  0  0  0
    0.4365   -0.6740   -2.5149 C   0  0  0  0  0  0  0  0  0  0  0  0
    0.1097   -1.6284   -2.1228 H   0  0  0  0  0  0  0  0  0  0  0  0
   -0.1073    0.0565    1.7296 C   0  0  0  0  0  0  0  0  0  0  0  0
    1.0285   -0.1699    2.1459 O   0  0  0  0  0  0  0  0  0  0  0  0
   -1.0395    0.6588    2.4785 N   0  0  0  0  0  0  0  0  0  0  0  0
   -1.9636    0.7597    2.0849 H   0  0  0  0  0  0  0  0  0  0  0  0
   -0.8222    1.1334    3.8425 C   0  0  0  0  0  0  0  0  0  0  0  0
   -0.0212    1.8761    3.8521 H   0  0  0  0  0  0  0  0  0  0  0  0
   -1.7349    1.5853    4.2320 H   0  0  0  0  0  0  0  0  0  0  0  0
   -0.5312    0.2997    4.4834 H   0  0  0  0  0  0  0  0  0  0  0  0
  5  6  2  0  0  0  0
  5  7  1  0  0  0  0
  2  3  1  0  0  0  0
  2  4  1  0  0  0  0
  2  5  1  0  0  0  0
  1  2  1  0  0  0  0
 22 23  2  0  0  0  0
 22 24  1  0  0  0  0
 20 21  1  0  0  0  0
 19 20  1  0  0  0  0
 17 18  1  0  0  0  0
 17 19  2  0  0  0  0
 15 16  1  0  0  0  0
 15 17  1  0  0  0  0
 14 15  1  0  0  0  0
 14 20  2  0  0  0  0
 11 12  1  0  0  0  0
 11 13  1  0  0  0  0
 11 14  1  0  0  0  0
  9 10  1  0  0  0  0
  9 11  1  0  0  0  0
  9 22  1  0  0  0  0
  7  8  1  0  0  0  0
  7  9  1  0  0  0  0
 26 27  1  0  0  0  0
 26 28  1  0  0  0  0
 26 29  1  0  0  0  0
 24 25  1  0  0  0  0
 24 26  1  0  0  0  0
M  END
$$$$
default_name
  -OEChem-02102213163D

 29 29  0     1  0  0  0  0  0999 V2000
   -3.6042   -3.5728    1.4576 H   0  0  0  0  0  0  0  0  0  0  0  0
   -3.5202   -2.6488    0.8866 C   0  0  0  0  0  0  0  0  0  0  0  0
   -4.2052   -1.9048    1.2896 H   0  0  0  0  0  0  0  0  0  0  0  0
   -3.7552   -2.8428   -0.1584 H   0  0  0  0  0  0  0  0  0  0  0  0
   -2.1052   -2.1358    0.9946 C   0  0  0  0  0  0  0  0  0  0  0  0
   -1.2852   -2.7288    1.6826 O   0  0  0  0  0  0  0  0  0  0  0  0
   -1.8202   -1.0288    0.3146 N   0  0  0  0  0  0  0  0  0  0  0  0
   -2.5542   -0.5788   -0.2104 H   0  0  0  0  0  0  0  0  0  0  0  0
   -0.5102   -0.3728    0.3086 C   0  0  1  0  0  0  0  0  0  0  0  0
    0.2354   -1.0844   -0.0490 H   0  0  0  0  0  0  0  0  0  0  0  0
   -0.5452    0.8158   -0.6698 C   0  0  0  0  0  0  0  0  0  0  0  0
   -1.5841    1.0613   -0.8969 H   0  0  0  0  0  0  0  0  0  0  0  0
   -0.0922    1.6852   -0.1897 H   0  0  0  0  0  0  0  0  0  0  0  0
    0.1792    0.5533   -1.9646 C   0  0  0  0  0  0  0  0  0  0  0  0
    1.0505    1.4115   -2.6005 N   0  0  0  0  0  0  0  0  0  0  0  0
    1.2601    2.3590   -2.3241 H   0  0  0  0  0  0  0  0  0  0  0  0
    1.5700    0.7673   -3.6590 C   0  0  0  0  0  0  0  0  0  0  0  0
    2.2839    1.1857   -4.3579 H   0  0  0  0  0  0  0  0  0  0  0  0
    1.0809   -0.4793   -3.7299 N   0  0  0  0  0  0  0  0  0  0  0  0
    0.1929   -0.6258   -2.6610 C   0  0  0  0  0  0  0  0  0  0  0  0
   -0.3582   -1.5218   -2.4062 H   0  0  0  0  0  0  0  0  0  0  0  0
   -0.1073    0.0565    1.7296 C   0  0  0  0  0  0  0  0  0  0  0  0
    1.0285   -0.1699    2.1459 O   0  0  0  0  0  0  0  0  0  0  0  0
   -1.0395    0.6588    2.4785 N   0  0  0  0  0  0  0  0  0  0  0  0
   -1.9636    0.7597    2.0849 H   0  0  0  0  0  0  0  0  0  0  0  0
   -0.8222    1.1334    3.8425 C   0  0  0  0  0  0  0  0  0  0  0  0
   -0.0212    1.8761    3.8521 H   0  0  0  0  0  0  0  0  0  0  0  0
   -1.7349    1.5853    4.2320 H   0  0  0  0  0  0  0  0  0  0  0  0
   -0.5312    0.2997    4.4834 H   0  0  0  0  0  0  0  0  0  0  0  0
  5  6  2  0  0  0  0
  5  7  1  0  0  0  0
  2  3  1  0  0  0  0
  2  4  1  0  0  0  0
  2  5  1  0  0  0  0
  1  2  1  0  0  0  0
 22 23  2  0  0  0  0
 22 24  1  0  0  0  0
 20 21  1  0  0  0  0
 19 20  1  0  0  0  0
 17 18  1  0  0  0  0
 17 19  2  0  0  0  0
 15 16  1  0  0  0  0
 15 17  1  0  0  0  0
 14 15  1  0  0  0  0
 14 20  2  0  0  0  0
 11 12  1  0  0  0  0
 11 13  1  0  0  0  0
 11 14  1  0  0  0  0
  9 10  1  0  0  0  0
  9 11  1  0  0  0  0
  9 22  1  0  0  0  0
  7  8  1  0  0  0  0
  7  9  1  0  0  0  0
 26 27  1  0  0  0  0
 26 28  1  0  0  0  0
 26 29  1  0  0  0  0
 24 25  1  0  0  0  0
 24 26  1  0  0  0  0
M  END
$$$$
default_name
  -OEChem-02102213163D

 29 29  0     1  0  0  0  0  0999 V2000
   -3.6042   -3.5728    1.4576 H   0  0  0  0  0  0  0  0  0  0  0  0
   -3.5202   -2.6488    0.8866 C   0  0  0  0  0  0  0  0  0  0  0  0
   -4.2052   -1.9048    1.2896 H   0  0  0  0  0  0  0  0  0  0  0  0
   -3.7552   -2.8428   -0.1584 H   0  0  0  0  0  0  0  0  0  0  0  0
   -2.1052   -2.1358    0.9946 C   0  0  0  0  0  0  0  0  0  0  0  0
   -1.2852   -2.7288    1.6826 O   0  0  0  0  0  0  0  0  0  0  0  0
   -1.8202   -1.0288    0.3146 N   0  0  0  0  0  0  0  0  0  0  0  0
   -2.5542   -0.5788   -0.2104 H   0  0  0  0  0  0  0  0  0  0  0  0
   -0.5102   -0.3728    0.3086 C   0  0  1  0  0  0  0  0  0  0  0  0
    0.2354   -1.0844   -0.0490 H   0  0  0  0  0  0  0  0  0  0  0  0
   -0.5452    0.8158   -0.6698 C   0  0  0  0  0  0  0  0  0  0  0  0
   -1.5841    1.0613   -0.8969 H   0  0  0  0  0  0  0  0  0  0  0  0
   -0.0922    1.6852   -0.1897 H   0  0  0  0  0  0  0  0  0  0  0  0
    0.1792    0.5533   -1.9646 C   0  0  0  0  0  0  0  0  0  0  0  0
    1.2538    1.2628   -2.4566 N   0  0  0  0  0  0  0  0  0  0  0  0
    1.6496    2.0988   -2.0534 H   0  0  0  0  0  0  0  0  0  0  0  0
    1.6808    0.6491   -3.5730 C   0  0  0  0  0  0  0  0  0  0  0  0
    2.5092    0.9763   -4.1894 H   0  0  0  0  0  0  0  0  0  0  0  0
    0.9350   -0.4377   -3.8199 N   0  0  0  0  0  0  0  0  0  0  0  0
   -0.0252   -0.5068   -2.8071 C   0  0  0  0  0  0  0  0  0  0  0  0
   -0.7736   -1.2795   -2.6877 H   0  0  0  0  0  0  0  0  0  0  0  0
   -0.1073    0.0565    1.7296 C   0  0  0  0  0  0  0  0  0  0  0  0
    1.0285   -0.1699    2.1459 O   0  0  0  0  0  0  0  0  0  0  0  0
   -1.0395    0.6588    2.4785 N   0  0  0  0  0  0  0  0  0  0  0  0
   -1.9636    0.7597    2.0849 H   0  0  0  0  0  0  0  0  0  0  0  0
   -0.8222    1.1334    3.8425 C   0  0  0  0  0  0  0  0  0  0  0  0
   -0.0212    1.8761    3.8521 H   0  0  0  0  0  0  0  0  0  0  0  0
   -1.7349    1.5853    4.2320 H   0  0  0  0  0  0  0  0  0  0  0  0
   -0.5312    0.2997    4.4834 H   0  0  0  0  0  0  0  0  0  0  0  0
  5  6  2  0  0  0  0
  5  7  1  0  0  0  0
  2  3  1  0  0  0  0
  2  4  1  0  0  0  0
  2  5  1  0  0  0  0
  1  2  1  0  0  0  0
 22 23  2  0  0  0  0
 22 24  1  0  0  0  0
 20 21  1  0  0  0  0
 19 20  1  0  0  0  0
 17 18  1  0  0  0  0
 17 19  2  0  0  0  0
 15 16  1  0  0  0  0
 15 17  1  0  0  0  0
 14 15  1  0  0  0  0
 14 20  2  0  0  0  0
 11 12  1  0  0  0  0
 11 13  1  0  0  0  0
 11 14  1  0  0  0  0
  9 10  1  0  0  0  0
  9 11  1  0  0  0  0
  9 22  1  0  0  0  0
  7  8  1  0  0  0  0
  7  9  1  0  0  0  0
 26 27  1  0  0  0  0
 26 28  1  0  0  0  0
 26 29  1  0  0  0  0
 24 25  1  0  0  0  0
 24 26  1  0  0  0  0
M  END
$$$$
default_name
  -OEChem-02102213163D

 29 29  0     1  0  0  0  0  0999 V2000
   -3.6042   -3.5728    1.4576 H   0  0  0  0  0  0  0  0  0  0  0  0
   -3.5202   -2.6488    0.8866 C   0  0  0  0  0  0  0  0  0  0  0  0
   -4.2052   -1.9048    1.2896 H   0  0  0  0  0  0  0  0  0  0  0  0
   -3.7552   -2.8428   -0.1584 H   0  0  0  0  0  0  0  0  0  0  0  0
   -2.1052   -2.1358    0.9946 C   0  0  0  0  0  0  0  0  0  0  0  0
   -1.2852   -2.7288    1.6826 O   0  0  0  0  0  0  0  0  0  0  0  0
   -1.8202   -1.0288    0.3146 N   0  0  0  0  0  0  0  0  0  0  0  0
   -2.5542   -0.5788   -0.2104 H   0  0  0  0  0  0  0  0  0  0  0  0
   -0.5102   -0.3728    0.3086 C   0  0  1  0  0  0  0  0  0  0  0  0
    0.2354   -1.0844   -0.0490 H   0  0  0  0  0  0  0  0  0  0  0  0
   -0.5452    0.8158   -0.6698 C   0  0  0  0  0  0  0  0  0  0  0  0
   -1.5841    1.0613   -0.8969 H   0  0  0  0  0  0  0  0  0  0  0  0
   -0.0922    1.6852   -0.1897 H   0  0  0  0  0  0  0  0  0  0  0  0
    0.1792    0.5533   -1.9646 C   0  0  0  0  0  0  0  0  0  0  0  0
    1.4105    1.0560   -2.3270 N   0  0  0  0  0  0  0  0  0  0  0  0
    1.9556    1.7271   -1.8068 H   0  0  0  0  0  0  0  0  0  0  0  0
    1.7577    0.4996   -3.4997 C   0  0  0  0  0  0  0  0  0  0  0  0
    2.6727    0.7029   -4.0425 H   0  0  0  0  0  0  0  0  0  0  0  0
    0.8074   -0.3538   -3.9083 N   0  0  0  0  0  0  0  0  0  0  0  0
   -0.2027   -0.3252   -2.9433 C   0  0  0  0  0  0  0  0  0  0  0  0
   -1.1082   -0.9180   -2.9483 H   0  0  0  0  0  0  0  0  0  0  0  0
   -0.1073    0.0565    1.7296 C   0  0  0  0  0  0  0  0  0  0  0  0
    1.0285   -0.1699    2.1459 O   0  0  0  0  0  0  0  0  0  0  0  0
   -1.0395    0.6588    2.4785 N   0  0  0  0  0  0  0  0  0  0  0  0
   -1.9636    0.7597    2.0849 H   0  0  0  0  0  0  0  0  0  0  0  0
   -0.8222    1.1334    3.8425 C   0  0  0  0  0  0  0  0  0  0  0  0
   -0.0212    1.8761    3.8521 H   0  0  0  0  0  0  0  0  0  0  0  0
   -1.7349    1.5853    4.2320 H   0  0  0  0  0  0  0  0  0  0  0  0
   -0.5312    0.2997    4.4834 H   0  0  0  0  0  0  0  0  0  0  0  0
  5  6  2  0  0  0  0
  5  7  1  0  0  0  0
  2  3  1  0  0  0  0
  2  4  1  0  0  0  0
  2  5  1  0  0  0  0
  1  2  1  0  0  0  0
 22 23  2  0  0  0  0
 22 24  1  0  0  0  0
 20 21  1  0  0  0  0
 19 20  1  0  0  0  0
 17 18  1  0  0  0  0
 17 19  2  0  0  0  0
 15 16  1  0  0  0  0
 15 17  1  0  0  0  0
 14 15  1  0  0  0  0
 14 20  2  0  0  0  0
 11 12  1  0  0  0  0
 11 13  1  0  0  0  0
 11 14  1  0  0  0  0
  9 10  1  0  0  0  0
  9 11  1  0  0  0  0
  9 22  1  0  0  0  0
  7  8  1  0  0  0  0
  7  9  1  0  0  0  0
 26 27  1  0  0  0  0
 26 28  1  0  0  0  0
 26 29  1  0  0  0  0
 24 25  1  0  0  0  0
 24 26  1  0  0  0  0
M  END
$$$$
default_name
  -OEChem-02102213163D

 29 29  0     1  0  0  0  0  0999 V2000
   -3.6042   -3.5728    1.4576 H   0  0  0  0  0  0  0  0  0  0  0  0
   -3.5202   -2.6488    0.8866 C   0  0  0  0  0  0  0  0  0  0  0  0
   -4.2052   -1.9048    1.2896 H   0  0  0  0  0  0  0  0  0  0  0  0
   -3.7552   -2.8428   -0.1584 H   0  0  0  0  0  0  0  0  0  0  0  0
   -2.1052   -2.1358    0.9946 C   0  0  0  0  0  0  0  0  0  0  0  0
   -1.2852   -2.7288    1.6826 O   0  0  0  0  0  0  0  0  0  0  0  0
   -1.8202   -1.0288    0.3146 N   0  0  0  0  0  0  0  0  0  0  0  0
   -2.5542   -0.5788   -0.2104 H   0  0  0  0  0  0  0  0  0  0  0  0
   -0.5102   -0.3728    0.3086 C   0  0  1  0  0  0  0  0  0  0  0  0
    0.2354   -1.0844   -0.0490 H   0  0  0  0  0  0  0  0  0  0  0  0
   -0.5452    0.8158   -0.6698 C   0  0  0  0  0  0  0  0  0  0  0  0
   -1.5841    1.0613   -0.8969 H   0  0  0  0  0  0  0  0  0  0  0  0
   -0.0922    1.6852   -0.1897 H   0  0  0  0  0  0  0  0  0  0  0  0
    0.1792    0.5533   -1.9646 C   0  0  0  0  0  0  0  0  0  0  0  0
    1.5101    0.8052   -2.2204 N   0  0  0  0  0  0  0  0  0  0  0  0
    2.1575    1.2693   -1.6010 H   0  0  0  0  0  0  0  0  0  0  0  0
    1.7954    0.3290   -3.4440 C   0  0  0  0  0  0  0  0  0  0  0  0
    2.7632    0.3843   -3.9273 H   0  0  0  0  0  0  0  0  0  0  0  0
    0.7068   -0.2334   -3.9890 N   0  0  0  0  0  0  0  0  0  0  0  0
   -0.3277   -0.0933   -3.0602 C   0  0  0  0  0  0  0  0  0  0  0  0
   -1.3393   -0.4620   -3.1700 H   0  0  0  0  0  0  0  0  0  0  0  0
   -0.1073    0.0565    1.7296 C   0  0  0  0  0  0  0  0  0  0  0  0
    1.0285   -0.1699    2.1459 O   0  0  0  0  0  0  0  0  0  0  0  0
   -1.0395    0.6588    2.4785 N   0  0  0  0  0  0  0  0  0  0  0  0
   -1.9636    0.7597    2.0849 H   0  0  0  0  0  0  0  0  0  0  0  0
   -0.8222    1.1334    3.8425 C   0  0  0  0  0  0  0  0  0  0  0  0
   -0.0212    1.8761    3.8521 H   0  0  0  0  0  0  0  0  0  0  0  0
   -1.7349    1.5853    4.2320 H   0  0  0  0  0  0  0  0  0  0  0  0
   -0.5312    0.2997    4.4834 H   0  0  0  0  0  0  0  0  0  0  0  0
  5  6  2  0  0  0  0
  5  7  1  0  0  0  0
  2  3  1  0  0  0  0
  2  4  1  0  0  0  0
  2  5  1  0  0  0  0
  1  2  1  0  0  0  0
 22 23  2  0  0  0  0
 22 24  1  0  0  0  0
 20 21  1  0  0  0  0
 19 20  1  0  0  0  0
 17 18  1  0  0  0  0
 17 19  2  0  0  0  0
 15 16  1  0  0  0  0
 15 17  1  0  0  0  0
 14 15  1  0  0  0  0
 14 20  2  0  0  0  0
 11 12  1  0  0  0  0
 11 13  1  0  0  0  0
 11 14  1  0  0  0  0
  9 10  1  0  0  0  0
  9 11  1  0  0  0  0
  9 22  1  0  0  0  0
  7  8  1  0  0  0  0
  7  9  1  0  0  0  0
 26 27  1  0  0  0  0
 26 28  1  0  0  0  0
 26 29  1  0  0  0  0
 24 25  1  0  0  0  0
 24 26  1  0  0  0  0
M  END
$$$$
default_name
  -OEChem-02102213163D

 29 29  0     1  0  0  0  0  0999 V2000
   -3.6042   -3.5728    1.4576 H   0  0  0  0  0  0  0  0  0  0  0  0
   -3.5202   -2.6488    0.8866 C   0  0  0  0  0  0  0  0  0  0  0  0
   -4.2052   -1.9048    1.2896 H   0  0  0  0  0  0  0  0  0  0  0  0
   -3.7552   -2.8428   -0.1584 H   0  0  0  0  0  0  0  0  0  0  0  0
   -2.1052   -2.1358    0.9946 C   0  0  0  0  0  0  0  0  0  0  0  0
   -1.2852   -2.7288    1.6826 O   0  0  0  0  0  0  0  0  0  0  0  0
   -1.8202   -1.0288    0.3146 N   0  0  0  0  0  0  0  0  0  0  0  0
   -2.5542   -0.5788   -0.2104 H   0  0  0  0  0  0  0  0  0  0  0  0
   -0.5102   -0.3728    0.3086 C   0  0  1  0  0  0  0  0  0  0  0  0
    0.2354   -1.0844   -0.0490 H   0  0  0  0  0  0  0  0  0  0  0  0
   -0.5452    0.8158   -0.6698 C   0  0  0  0  0  0  0  0  0  0  0  0
   -1.5841    1.0613   -0.8969 H   0  0  0  0  0  0  0  0  0  0  0  0
   -0.0922    1.6852   -0.1897 H   0  0  0  0  0  0  0  0  0  0  0  0
    0.1792    0.5533   -1.9646 C   0  0  0  0  0  0  0  0  0  0  0  0
    1.5457    0.5276   -2.1442 N   0  0  0  0  0  0  0  0  0  0  0  0
    2.2413    0.7566   -1.4502 H   0  0  0  0  0  0  0  0  0  0  0  0
    1.7914    0.1489   -3.4098 C   0  0  0  0  0  0  0  0  0  0  0  0
    2.7746    0.0419   -3.8515 H   0  0  0  0  0  0  0  0  0  0  0  0
    0.6401   -0.0847   -4.0565 N   0  0  0  0  0  0  0  0  0  0  0  0
   -0.3915    0.1730   -3.1499 C   0  0  0  0  0  0  0  0  0  0  0  0
   -1.4511    0.0575   -3.3379 H   0  0  0  0  0  0  0  0  0  0  0  0
   -0.1073    0.0565    1.7296 C   0  0  0  0  0  0  0  0  0  0  0  0
    1.0285   -0.1699    2.1459 O   0  0  0  0  0  0  0  0  0  0  0  0
   -1.0395    0.6588    2.4785 N   0  0  0  0  0  0  0  0  0  0  0  0
   -1.9636    0.7597    2.0849 H   0  0  0  0  0  0  0  0  0  0  0  0
   -0.8222    1.1334    3.8425 C   0  0  0  0  0  0  0  0  0  0  0  0
   -0.0212    1.8761    3.8521 H   0  0  0  0  0  0  0  0  0  0  0  0
   -1.7349    1.5853    4.2320 H   0  0  0  0  0  0  0  0  0  0  0  0
   -0.5312    0.2997    4.4834 H   0  0  0  0  0  0  0  0  0  0  0  0
  5  6  2  0  0  0  0
  5  7  1  0  0  0  0
  2  3  1  0  0  0  0
  2  4  1  0  0  0  0
  2  5  1  0  0  0  0
  1  2  1  0  0  0  0
 22 23  2  0  0  0  0
 22 24  1  0  0  0  0
 20 21  1  0  0  0  0
 19 20  1  0  0  0  0
 17 18  1  0  0  0  0
 17 19  2  0  0  0  0
 15 16  1  0  0  0  0
 15 17  1  0  0  0  0
 14 15  1  0  0  0  0
 14 20  2  0  0  0  0
 11 12  1  0  0  0  0
 11 13  1  0  0  0  0
 11 14  1  0  0  0  0
  9 10  1  0  0  0  0
  9 11  1  0  0  0  0
  9 22  1  0  0  0  0
  7  8  1  0  0  0  0
  7  9  1  0  0  0  0
 26 27  1  0  0  0  0
 26 28  1  0  0  0  0
 26 29  1  0  0  0  0
 24 25  1  0  0  0  0
 24 26  1  0  0  0  0
M  END
$$$$
default_name
  -OEChem-02102213163D

 29 29  0     1  0  0  0  0  0999 V2000
   -3.6042   -3.5728    1.4576 H   0  0  0  0  0  0  0  0  0  0  0  0
   -3.5202   -2.6488    0.8866 C   0  0  0  0  0  0  0  0  0  0  0  0
   -4.2052   -1.9048    1.2896 H   0  0  0  0  0  0  0  0  0  0  0  0
   -3.7552   -2.8428   -0.1584 H   0  0  0  0  0  0  0  0  0  0  0  0
   -2.1052   -2.1358    0.9946 C   0  0  0  0  0  0  0  0  0  0  0  0
   -1.2852   -2.7288    1.6826 O   0  0  0  0  0  0  0  0  0  0  0  0
   -1.8202   -1.0288    0.3146 N   0  0  0  0  0  0  0  0  0  0  0  0
   -2.5542   -0.5788   -0.2104 H   0  0  0  0  0  0  0  0  0  0  0  0
   -0.5102   -0.3728    0.3086 C   0  0  1  0  0  0  0  0  0  0  0  0
    0.2354   -1.0844   -0.0490 H   0  0  0  0  0  0  0  0  0  0  0  0
   -0.5452    0.8158   -0.6698 C   0  0  0  0  0  0  0  0  0  0  0  0
   -1.5841    1.0613   -0.8969 H   0  0  0  0  0  0  0  0  0  0  0  0
   -0.0922    1.6852   -0.1897 H   0  0  0  0  0  0  0  0  0  0  0  0
    0.1792    0.5533   -1.9646 C   0  0  0  0  0  0  0  0  0  0  0  0
    1.5149    0.2421   -2.1036 N   0  0  0  0  0  0  0  0  0  0  0  0
    2.2015    0.2240   -1.3644 H   0  0  0  0  0  0  0  0  0  0  0  0
    1.7459   -0.0285   -3.3993 C   0  0  0  0  0  0  0  0  0  0  0  0
    2.7060   -0.3006   -3.8204 H   0  0  0  0  0  0  0  0  0  0  0  0
    0.6117    0.0822   -4.1062 N   0  0  0  0  0  0  0  0  0  0  0  0
   -0.3899    0.4555   -3.2063 C   0  0  0  0  0  0  0  0  0  0  0  0
   -1.4360    0.6050   -3.4405 H   0  0  0  0  0  0  0  0  0  0  0  0
   -0.1073    0.0565    1.7296 C   0  0  0  0  0  0  0  0  0  0  0  0
    1.0285   -0.1699    2.1459 O   0  0  0  0  0  0  0  0  0  0  0  0
   -1.0395    0.6588    2.4785 N   0  0  0  0  0  0  0  0  0  0  0  0
   -1.9636    0.7597    2.0849 H   0  0  0  0  0  0  0  0  0  0  0  0
   -0.8222    1.1334    3.8425 C   0  0  0  0  0  0  0  0  0  0  0  0
   -0.0212    1.8761    3.8521 H   0  0  0  0  0  0  0  0  0  0  0  0
   -1.7349    1.5853    4.2320 H   0  0  0  0  0  0  0  0  0  0  0  0
   -0.5312    0.2997    4.4834 H   0  0  0  0  0  0  0  0  0  0  0  0
  5  6  2  0  0  0  0
  5  7  1  0  0  0  0
  2  3  1  0  0  0  0
  2  4  1  0  0  0  0
  2  5  1  0  0  0  0
  1  2  1  0  0  0  0
 22 23  2  0  0  0  0
 22 24  1  0  0  0  0
 20 21  1  0  0  0  0
 19 20  1  0  0  0  0
 17 18  1  0  0  0  0
 17 19  2  0  0  0  0
 15 16  1  0  0  0  0
 15 17  1  0  0  0  0
 14 15  1  0  0  0  0
 14 20  2  0  0  0  0
 11 12  1  0  0  0  0
 11 13  1  0  0  0  0
 11 14  1  0  0  0  0
  9 10  1  0  0  0  0
  9 11  1  0  0  0  0
  9 22  1  0  0  0  0
  7  8  1  0  0  0  0
  7  9  1  0  0  0  0
 26 27  1  0  0  0  0
 26 28  1  0  0  0  0
 26 29  1  0  0  0  0
 24 25  1  0  0  0  0
 24 26  1  0  0  0  0
M  END
$$$$
default_name
  -OEChem-02102213163D

 29 29  0     1  0  0  0  0  0999 V2000
   -3.6042   -3.5728    1.4576 H   0  0  0  0  0  0  0  0  0  0  0  0
   -3.5202   -2.6488    0.8866 C   0  0  0  0  0  0  0  0  0  0  0  0
   -4.2052   -1.9048    1.2896 H   0  0  0  0  0  0  0  0  0  0  0  0
   -3.7552   -2.8428   -0.1584 H   0  0  0  0  0  0  0  0  0  0  0  0
   -2.1052   -2.1358    0.9946 C   0  0  0  0  0  0  0  0  0  0  0  0
   -1.2852   -2.7288    1.6826 O   0  0  0  0  0  0  0  0  0  0  0  0
   -1.8202   -1.0288    0.3146 N   0  0  0  0  0  0  0  0  0  0  0  0
   -2.5542   -0.5788   -0.2104 H   0  0  0  0  0  0  0  0  0  0  0  0
   -0.5102   -0.3728    0.3086 C   0  0  1  0  0  0  0  0  0  0  0  0
    0.2354   -1.0844   -0.0490 H   0  0  0  0  0  0  0  0  0  0  0  0
   -0.5452    0.8158   -0.6698 C   0  0  0  0  0  0  0  0  0  0  0  0
   -1.5841    1.0613   -0.8969 H   0  0  0  0  0  0  0  0  0  0  0  0
   -0.0922    1.6852   -0.1897 H   0  0  0  0  0  0  0  0  0  0  0  0
    0.1792    0.5533   -1.9646 C   0  0  0  0  0  0  0  0  0  0  0  0
    1.4198   -0.0319   -2.1012 N   0  0  0  0  0  0  0  0  0  0  0  0
    2.0407   -0.2923   -1.3497 H   0  0  0  0  0  0  0  0  0  0  0  0
    1.6620   -0.1910   -3.4132 C   0  0  0  0  0  0  0  0  0  0  0  0
    2.5621   -0.6202   -3.8361 H   0  0  0  0  0  0  0  0  0  0  0  0
    0.6237    0.2559   -4.1347 N   0  0  0  0  0  0  0  0  0  0  0  0
   -0.3230    0.7352   -3.2256 C   0  0  0  0  0  0  0  0  0  0  0  0
   -1.2950    1.1433   -3.4707 H   0  0  0  0  0  0  0  0  0  0  0  0
   -0.1073    0.0565    1.7296 C   0  0  0  0  0  0  0  0  0  0  0  0
    1.0285   -0.1699    2.1459 O   0  0  0  0  0  0  0  0  0  0  0  0
   -1.0395    0.6588    2.4785 N   0  0  0  0  0  0  0  0  0  0  0  0
   -1.9636    0.7597    2.0849 H   0  0  0  0  0  0  0  0  0  0  0  0
   -0.8222    1.1334    3.8425 C   0  0  0  0  0  0  0  0  0  0  0  0
   -0.0212    1.8761    3.8521 H   0  0  0  0  0  0  0  0  0  0  0  0
   -1.7349    1.5853    4.2320 H   0  0  0  0  0  0  0  0  0  0  0  0
   -0.5312    0.2997    4.4834 H   0  0  0  0  0  0  0  0  0  0  0  0
  5  6  2  0  0  0  0
  5  7  1  0  0  0  0
  2  3  1  0  0  0  0
  2  4  1  0  0  0  0
  2  5  1  0  0  0  0
  1  2  1  0  0  0  0
 22 23  2  0  0  0  0
 22 24  1  0  0  0  0
 20 21  1  0  0  0  0
 19 20  1  0  0  0  0
 17 18  1  0  0  0  0
 17 19  2  0  0  0  0
 15 16  1  0  0  0  0
 15 17  1  0  0  0  0
 14 15  1  0  0  0  0
 14 20  2  0  0  0  0
 11 12  1  0  0  0  0
 11 13  1  0  0  0  0
 11 14  1  0  0  0  0
  9 10  1  0  0  0  0
  9 11  1  0  0  0  0
  9 22  1  0  0  0  0
  7  8  1  0  0  0  0
  7  9  1  0  0  0  0
 26 27  1  0  0  0  0
 26 28  1  0  0  0  0
 26 29  1  0  0  0  0
 24 25  1  0  0  0  0
 24 26  1  0  0  0  0
M  END
$$$$
default_name
  -OEChem-02102213163D

 29 29  0     1  0  0  0  0  0999 V2000
   -3.6042   -3.5728    1.4576 H   0  0  0  0  0  0  0  0  0  0  0  0
   -3.5202   -2.6488    0.8866 C   0  0  0  0  0  0  0  0  0  0  0  0
   -4.2052   -1.9048    1.2896 H   0  0  0  0  0  0  0  0  0  0  0  0
   -3.7552   -2.8428   -0.1584 H   0  0  0  0  0  0  0  0  0  0  0  0
   -2.1052   -2.1358    0.9946 C   0  0  0  0  0  0  0  0  0  0  0  0
   -1.2852   -2.7288    1.6826 O   0  0  0  0  0  0  0  0  0  0  0  0
   -1.8202   -1.0288    0.3146 N   0  0  0  0  0  0  0  0  0  0  0  0
   -2.5542   -0.5788   -0.2104 H   0  0  0  0  0  0  0  0  0  0  0  0
   -0.5102   -0.3728    0.3086 C   0  0  1  0  0  0  0  0  0  0  0  0
    0.2354   -1.0844   -0.0490 H   0  0  0  0  0  0  0  0  0  0  0  0
   -0.5452    0.8158   -0.6698 C   0  0  0  0  0  0  0  0  0  0  0  0
   -1.5841    1.0613   -0.8969 H   0  0  0  0  0  0  0  0  0  0  0  0
   -0.0922    1.6852   -0.1897 H   0  0  0  0  0  0  0  0  0  0  0  0
    0.1792    0.5533   -1.9646 C   0  0  0  0  0  0  0  0  0  0  0  0
    1.2669   -0.2757   -2.1373 N   0  0  0  0  0  0  0  0  0  0  0  0
    1.7699   -0.7571   -1.4070 H   0  0  0  0  0  0  0  0  0  0  0  0
    1.5455   -0.3275   -3.4507 C   0  0  0  0  0  0  0  0  0  0  0  0
    2.3528   -0.8948   -3.8975 H   0  0  0  0  0  0  0  0  0  0  0  0
    0.6752    0.4246   -4.1401 N   0  0  0  0  0  0  0  0  0  0  0  0
   -0.1953    0.9928   -3.2064 C   0  0  0  0  0  0  0  0  0  0  0  0
   -1.0377    1.6356   -3.4266 H   0  0  0  0  0  0  0  0  0  0  0  0
   -0.1073    0.0565    1.7296 C   0  0  0  0  0  0  0  0  0  0  0  0
    1.0285   -0.1699    2.1459 O   0  0  0  0  0  0  0  0  0  0  0  0
   -1.0395    0.6588    2.4785 N   0  0  0  0  0  0  0  0  0  0  0  0
   -1.9636    0.7597    2.0849 H   0  0  0  0  0  0  0  0  0  0  0  0
   -0.8222    1.1334    3.8425 C   0  0  0  0  0  0  0  0  0  0  0  0
   -0.0212    1.8761    3.8521 H   0  0  0  0  0  0  0  0  0  0  0  0
   -1.7349    1.5853    4.2320 H   0  0  0  0  0  0  0  0  0  0  0  0
   -0.5312    0.2997    4.4834 H   0  0  0  0  0  0  0  0  0  0  0  0
  5  6  2  0  0  0  0
  5  7  1  0  0  0  0
  2  3  1  0  0  0  0
  2  4  1  0  0  0  0
  2  5  1  0  0  0  0
  1  2  1  0  0  0  0
 22 23  2  0  0  0  0
 22 24  1  0  0  0  0
 20 21  1  0  0  0  0
 19 20  1  0  0  0  0
 17 18  1  0  0  0  0
 17 19  2  0  0  0  0
 15 16  1  0  0  0  0
 15 17  1  0  0  0  0
 14 15  1  0  0  0  0
 14 20  2  0  0  0  0
 11 12  1  0  0  0  0
 11 13  1  0  0  0  0
 11 14  1  0  0  0  0
  9 10  1  0  0  0  0
  9 11  1  0  0  0  0
  9 22  1  0  0  0  0
  7  8  1  0  0  0  0
  7  9  1  0  0  0  0
 26 27  1  0  0  0  0
 26 28  1  0  0  0  0
 26 29  1  0  0  0  0
 24 25  1  0  0  0  0
 24 26  1  0  0  0  0
M  END
$$$$
default_name
  -OEChem-02102213163D

 29 29  0     1  0  0  0  0  0999 V2000
   -3.6042   -3.5728    1.4576 H   0  0  0  0  0  0  0  0  0  0  0  0
   -3.5202   -2.6488    0.8866 C   0  0  0  0  0  0  0  0  0  0  0  0
   -4.2052   -1.9048    1.2896 H   0  0  0  0  0  0  0  0  0  0  0  0
   -3.7552   -2.8428   -0.1584 H   0  0  0  0  0  0  0  0  0  0  0  0
   -2.1052   -2.1358    0.9946 C   0  0  0  0  0  0  0  0  0  0  0  0
   -1.2852   -2.7288    1.6826 O   0  0  0  0  0  0  0  0  0  0  0  0
   -1.8202   -1.0288    0.3146 N   0  0  0  0  0  0  0  0  0  0  0  0
   -2.5542   -0.5788   -0.2104 H   0  0  0  0  0  0  0  0  0  0  0  0
   -0.5102   -0.3728    0.3086 C   0  0  1  0  0  0  0  0  0  0  0  0
    0.2354   -1.0844   -0.0490 H   0  0  0  0  0  0  0  0  0  0  0  0
   -0.5452    0.8158   -0.6698 C   0  0  0  0  0  0  0  0  0  0  0  0
   -1.5841    1.0613   -0.8969 H   0  0  0  0  0  0  0  0  0  0  0  0
   -0.0922    1.6852   -0.1897 H   0  0  0  0  0  0  0  0  0  0  0  0
    0.1792    0.5533   -1.9646 C   0  0  0  0  0  0  0  0  0  0  0  0
    1.0666   -0.4728   -2.2094 N   0  0  0  0  0  0  0  0  0  0  0  0
    1.4075   -1.1387   -1.5324 H   0  0  0  0  0  0  0  0  0  0  0  0
    1.4042   -0.4289   -3.5092 C   0  0  0  0  0  0  0  0  0  0  0  0
    2.0923   -1.1060   -4.0005 H   0  0  0  0  0  0  0  0  0  0  0  0
    0.7627    0.5767   -4.1220 N   0  0  0  0  0  0  0  0  0  0  0  0
   -0.0155    1.2108   -3.1500 C   0  0  0  0  0  0  0  0  0  0  0  0
   -0.6817    2.0485   -3.3111 H   0  0  0  0  0  0  0  0  0  0  0  0
   -0.1073    0.0565    1.7296 C   0  0  0  0  0  0  0  0  0  0  0  0
    1.0285   -0.1699    2.1459 O   0  0  0  0  0  0  0  0  0  0  0  0
   -1.0395    0.6588    2.4785 N   0  0  0  0  0  0  0  0  0  0  0  0
   -1.9636    0.7597    2.0849 H   0  0  0  0  0  0  0  0  0  0  0  0
   -0.8222    1.1334    3.8425 C   0  0  0  0  0  0  0  0  0  0  0  0
   -0.0212    1.8761    3.8521 H   0  0  0  0  0  0  0  0  0  0  0  0
   -1.7349    1.5853    4.2320 H   0  0  0  0  0  0  0  0  0  0  0  0
   -0.5312    0.2997    4.4834 H   0  0  0  0  0  0  0  0  0  0  0  0
  5  6  2  0  0  0  0
  5  7  1  0  0  0  0
  2  3  1  0  0  0  0
  2  4  1  0  0  0  0
  2  5  1  0  0  0  0
  1  2  1  0  0  0  0
 22 23  2  0  0  0  0
 22 24  1  0  0  0  0
 20 21  1  0  0  0  0
 19 20  1  0  0  0  0
 17 18  1  0  0  0  0
 17 19  2  0  0  0  0
 15 16  1  0  0  0  0
 15 17  1  0  0  0  0
 14 15  1  0  0  0  0
 14 20  2  0  0  0  0
 11 12  1  0  0  0  0
 11 13  1  0  0  0  0
 11 14  1  0  0  0  0
  9 10  1  0  0  0  0
  9 11  1  0  0  0  0
  9 22  1  0  0  0  0
  7  8  1  0  0  0  0
  7  9  1  0  0  0  0
 26 27  1  0  0  0  0
 26 28  1  0  0  0  0
 26 29  1  0  0  0  0
 24 25  1  0  0  0  0
 24 26  1  0  0  0  0
M  END
$$$$
default_name
  -OEChem-02102213163D

 29 29  0     1  0  0  0  0  0999 V2000
   -3.6042   -3.5728    1.4576 H   0  0  0  0  0  0  0  0  0  0  0  0
   -3.5202   -2.6488    0.8866 C   0  0  0  0  0  0  0  0  0  0  0  0
   -4.2052   -1.9048    1.2896 H   0  0  0  0  0  0  0  0  0  0  0  0
   -3.7552   -2.8428   -0.1584 H   0  0  0  0  0  0  0  0  0  0  0  0
   -2.1052   -2.1358    0.9946 C   0  0  0  0  0  0  0  0  0  0  0  0
   -1.2852   -2.7288    1.6826 O   0  0  0  0  0  0  0  0  0  0  0  0
   -1.8202   -1.0288    0.3146 N   0  0  0  0  0  0  0  0  0  0  0  0
   -2.5542   -0.5788   -0.2104 H   0  0  0  0  0  0  0  0  0  0  0  0
   -0.5102   -0.3728    0.3086 C   0  0  1  0  0  0  0  0  0  0  0  0
    0.2354   -1.0844   -0.0490 H   0  0  0  0  0  0  0  0  0  0  0  0
   -0.5452    0.8158   -0.6698 C   0  0  0  0  0  0  0  0  0  0  0  0
   -1.5841    1.0613   -0.8969 H   0  0  0  0  0  0  0  0  0  0  0  0
   -0.0922    1.6852   -0.1897 H   0  0  0  0  0  0  0  0  0  0  0  0
    0.1792    0.5533   -1.9646 C   0  0  0  0  0  0  0  0  0  0  0  0
    0.8325   -0.6095   -2.3126 N   0  0  0  0  0  0  0  0  0  0  0  0
    0.9783   -1.4111   -1.7173 H   0  0  0  0  0  0  0  0  0  0  0  0
    1.2479   -0.4880   -3.5847 C   0  0  0  0  0  0  0  0  0  0  0  0
    1.7983   -1.2392   -4.1379 H   0  0  0  0  0  0  0  0  0  0  0  0
    0.8802    0.7020   -4.0817 N   0  0  0  0  0  0  0  0  0  0  0  0
    0.2041    1.3744   -3.0603 C   0  0  0  0  0  0  0  0  0  0  0  0
   -0.2511    2.3537   -3.1321 H   0  0  0  0  0  0  0  0  0  0  0  0
   -0.1073    0.0565    1.7296 C   0  0  0  0  0  0  0  0  0  0  0  0
    1.0285   -0.1699    2.1459 O   0  0  0  0  0  0  0  0  0  0  0  0
   -1.0395    0.6588    2.4785 N   0  0  0  0  0  0  0  0  0  0  0  0
   -1.9636    0.7597    2.0849 H   0  0  0  0  0  0  0  0  0  0  0  0
   -0.8222    1.1334    3.8425 C   0  0  0  0  0  0  0  0  0  0  0  0
   -0.0212    1.8761    3.8521 H   0  0  0  0  0  0  0  0  0  0  0  0
   -1.7349    1.5853    4.2320 H   0  0  0  0  0  0  0  0  0  0  0  0
   -0.5312    0.2997    4.4834 H   0  0  0  0  0  0  0  0  0  0  0  0
  5  6  2  0  0  0  0
  5  7  1  0  0  0  0
  2  3  1  0  0  0  0
  2  4  1  0  0  0  0
  2  5  1  0  0  0  0
  1  2  1  0  0  0  0
 22 23  2  0  0  0  0
 22 24  1  0  0  0  0
 20 21  1  0  0  0  0
 19 20  1  0  0  0  0
 17 18  1  0  0  0  0
 17 19  2  0  0  0  0
 15 16  1  0  0  0  0
 15 17  1  0  0  0  0
 14 15  1  0  0  0  0
 14 20  2  0  0  0  0
 11 12  1  0  0  0  0
 11 13  1  0  0  0  0
 11 14  1  0  0  0  0
  9 10  1  0  0  0  0
  9 11  1  0  0  0  0
  9 22  1  0  0  0  0
  7  8  1  0  0  0  0
  7  9  1  0  0  0  0
 26 27  1  0  0  0  0
 26 28  1  0  0  0  0
 26 29  1  0  0  0  0
 24 25  1  0  0  0  0
 24 26  1  0  0  0  0
M  END
$$$$
default_name
  -OEChem-02102213163D

 29 29  0     1  0  0  0  0  0999 V2000
   -3.6042   -3.5728    1.4576 H   0  0  0  0  0  0  0  0  0  0  0  0
   -3.5202   -2.6488    0.8866 C   0  0  0  0  0  0  0  0  0  0  0  0
   -4.2052   -1.9048    1.2896 H   0  0  0  0  0  0  0  0  0  0  0  0
   -3.7552   -2.8428   -0.1584 H   0  0  0  0  0  0  0  0  0  0  0  0
   -2.1052   -2.1358    0.9946 C   0  0  0  0  0  0  0  0  0  0  0  0
   -1.2852   -2.7288    1.6826 O   0  0  0  0  0  0  0  0  0  0  0  0
   -1.8202   -1.0288    0.3146 N   0  0  0  0  0  0  0  0  0  0  0  0
   -2.5542   -0.5788   -0.2104 H   0  0  0  0  0  0  0  0  0  0  0  0
   -0.5102   -0.3728    0.3086 C   0  0  1  0  0  0  0  0  0  0  0  0
    0.2354   -1.0844   -0.0490 H   0  0  0  0  0  0  0  0  0  0  0  0
   -0.5452    0.8158   -0.6698 C   0  0  0  0  0  0  0  0  0  0  0  0
   -1.5841    1.0613   -0.8969 H   0  0  0  0  0  0  0  0  0  0  0  0
   -0.0922    1.6852   -0.1897 H   0  0  0  0  0  0  0  0  0  0  0  0
    0.1792    0.5533   -1.9646 C   0  0  0  0  0  0  0  0  0  0  0  0
    0.5807   -0.6768   -2.4399 N   0  0  0  0  0  0  0  0  0  0  0  0
    0.5114   -1.5557   -1.9492 H   0  0  0  0  0  0  0  0  0  0  0  0
    1.0871   -0.5010   -3.6720 C   0  0  0  0  0  0  0  0  0  0  0  0
    1.4910   -1.2853   -4.3005 H   0  0  0  0  0  0  0  0  0  0  0  0
    1.0198    0.7918   -4.0218 N   0  0  0  0  0  0  0  0  0  0  0  0
    0.4486    1.4724   -2.9434 C   0  0  0  0  0  0  0  0  0  0  0  0
    0.2245    2.5305   -2.9018 H   0  0  0  0  0  0  0  0  0  0  0  0
   -0.1073    0.0565    1.7296 C   0  0  0  0  0  0  0  0  0  0  0  0
    1.0285   -0.1699    2.1459 O   0  0  0  0  0  0  0  0  0  0  0  0
   -1.0395    0.6588    2.4785 N   0  0  0  0  0  0  0  0  0  0  0  0
   -1.9636    0.7597    2.0849 H   0  0  0  0  0  0  0  0  0  0  0  0
   -0.8222    1.1334    3.8425 C   0  0  0  0  0  0  0  0  0  0  0  0
   -0.0212    1.8761    3.8521 H   0  0  0  0  0  0  0  0  0  0  0  0
   -1.7349    1.5853    4.2320 H   0  0  0  0  0  0  0  0  0  0  0  0
   -0.5312    0.2997    4.4834 H   0  0  0  0  0  0  0  0  0  0  0  0
  5  6  2  0  0  0  0
  5  7  1  0  0  0  0
  2  3  1  0  0  0  0
  2  4  1  0  0  0  0
  2  5  1  0  0  0  0
  1  2  1  0  0  0  0
 22 23  2  0  0  0  0
 22 24  1  0  0  0  0
 20 21  1  0  0  0  0
 19 20  1  0  0  0  0
 17 18  1  0  0  0  0
 17 19  2  0  0  0  0
 15 16  1  0  0  0  0
 15 17  1  0  0  0  0
 14 15  1  0  0  0  0
 14 20  2  0  0  0  0
 11 12  1  0  0  0  0
 11 13  1  0  0  0  0
 11 14  1  0  0  0  0
  9 10  1  0  0  0  0
  9 11  1  0  0  0  0
  9 22  1  0  0  0  0
  7  8  1  0  0  0  0
  7  9  1  0  0  0  0
 26 27  1  0  0  0  0
 26 28  1  0  0  0  0
 26 29  1  0  0  0  0
 24 25  1  0  0  0  0
 24 26  1  0  0  0  0
M  END
$$$$
default_name
  -OEChem-02102213163D

 29 29  0     1  0  0  0  0  0999 V2000
   -3.6042   -3.5728    1.4576 H   0  0  0  0  0  0  0  0  0  0  0  0
   -3.5202   -2.6488    0.8866 C   0  0  0  0  0  0  0  0  0  0  0  0
   -4.2052   -1.9048    1.2896 H   0  0  0  0  0  0  0  0  0  0  0  0
   -3.7552   -2.8428   -0.1584 H   0  0  0  0  0  0  0  0  0  0  0  0
   -2.1052   -2.1358    0.9946 C   0  0  0  0  0  0  0  0  0  0  0  0
   -1.2852   -2.7288    1.6826 O   0  0  0  0  0  0  0  0  0  0  0  0
   -1.8202   -1.0288    0.3146 N   0  0  0  0  0  0  0  0  0  0  0  0
   -2.5542   -0.5788   -0.2104 H   0  0  0  0  0  0  0  0  0  0  0  0
   -0.5102   -0.3728    0.3086 C   0  0  1  0  0  0  0  0  0  0  0  0
    0.2354   -1.0844   -0.0490 H   0  0  0  0  0  0  0  0  0  0  0  0
   -0.5452    0.8158   -0.6698 C   0  0  0  0  0  0  0  0  0  0  0  0
   -1.5841    1.0613   -0.8969 H   0  0  0  0  0  0  0  0  0  0  0  0
   -0.0922    1.6852   -0.1897 H   0  0  0  0  0  0  0  0  0  0  0  0
    0.1792    0.5533   -1.9646 C   0  0  0  0  0  0  0  0  0  0  0  0
    0.3283   -0.6698   -2.5826 N   0  0  0  0  0  0  0  0  0  0  0  0
    0.0388   -1.5627   -2.2122 H   0  0  0  0  0  0  0  0  0  0  0  0
    0.9329   -0.4670   -3.7652 C   0  0  0  0  0  0  0  0  0  0  0  0
    1.1912   -1.2413   -4.4772 H   0  0  0  0  0  0  0  0  0  0  0  0
    1.1719    0.8400   -3.9465 N   0  0  0  0  0  0  0  0  0  0  0  0
    0.7013    1.4982   -2.8072 C   0  0  0  0  0  0  0  0  0  0  0  0
    0.7129    2.5668   -2.6360 H   0  0  0  0  0  0  0  0  0  0  0  0
   -0.1073    0.0565    1.7296 C   0  0  0  0  0  0  0  0  0  0  0  0
    1.0285   -0.1699    2.1459 O   0  0  0  0  0  0  0  0  0  0  0  0
   -1.0395    0.6588    2.4785 N   0  0  0  0  0  0  0  0  0  0  0  0
   -1.9636    0.7597    2.0849 H   0  0  0  0  0  0  0  0  0  0  0  0
   -0.8222    1.1334    3.8425 C   0  0  0  0  0  0  0  0  0  0  0  0
   -0.0212    1.8761    3.8521 H   0  0  0  0  0  0  0  0  0  0  0  0
   -1.7349    1.5853    4.2320 H   0  0  0  0  0  0  0  0  0  0  0  0
   -0.5312    0.2997    4.4834 H   0  0  0  0  0  0  0  0  0  0  0  0
  5  6  2  0  0  0  0
  5  7  1  0  0  0  0
  2  3  1  0  0  0  0
  2  4  1  0  0  0  0
  2  5  1  0  0  0  0
  1  2  1  0  0  0  0
 22 23  2  0  0  0  0
 22 24  1  0  0  0  0
 20 21  1  0  0  0  0
 19 20  1  0  0  0  0
 17 18  1  0  0  0  0
 17 19  2  0  0  0  0
 15 16  1  0  0  0  0
 15 17  1  0  0  0  0
 14 15  1  0  0  0  0
 14 20  2  0  0  0  0
 11 12  1  0  0  0  0
 11 13  1  0  0  0  0
 11 14  1  0  0  0  0
  9 10  1  0  0  0  0
  9 11  1  0  0  0  0
  9 22  1  0  0  0  0
  7  8  1  0  0  0  0
  7  9  1  0  0  0  0
 26 27  1  0  0  0  0
 26 28  1  0  0  0  0
 26 29  1  0  0  0  0
 24 25  1  0  0  0  0
 24 26  1  0  0  0  0
M  END
$$$$
default_name
  -OEChem-02102213163D

 29 29  0     1  0  0  0  0  0999 V2000
   -3.6042   -3.5728    1.4576 H   0  0  0  0  0  0  0  0  0  0  0  0
   -3.5202   -2.6488    0.8866 C   0  0  0  0  0  0  0  0  0  0  0  0
   -4.2052   -1.9048    1.2896 H   0  0  0  0  0  0  0  0  0  0  0  0
   -3.7552   -2.8428   -0.1584 H   0  0  0  0  0  0  0  0  0  0  0  0
   -2.1052   -2.1358    0.9946 C   0  0  0  0  0  0  0  0  0  0  0  0
   -1.2852   -2.7288    1.6826 O   0  0  0  0  0  0  0  0  0  0  0  0
   -1.8202   -1.0288    0.3146 N   0  0  0  0  0  0  0  0  0  0  0  0
   -2.5542   -0.5788   -0.2104 H   0  0  0  0  0  0  0  0  0  0  0  0
   -0.5102   -0.3728    0.3086 C   0  0  1  0  0  0  0  0  0  0  0  0
    0.2354   -1.0844   -0.0490 H   0  0  0  0  0  0  0  0  0  0  0  0
   -0.5452    0.8158   -0.6698 C   0  0  0  0  0  0  0  0  0  0  0  0
   -1.5841    1.0613   -0.8969 H   0  0  0  0  0  0  0  0  0  0  0  0
   -0.0922    1.6852   -0.1897 H   0  0  0  0  0  0  0  0  0  0  0  0
    0.1792    0.5533   -1.9646 C   0  0  0  0  0  0  0  0  0  0  0  0
    0.0924   -0.5893   -2.7309 N   0  0  0  0  0  0  0  0  0  0  0  0
   -0.4075   -1.4316   -2.4885 H   0  0  0  0  0  0  0  0  0  0  0  0
    0.7957   -0.3882   -3.8579 C   0  0  0  0  0  0  0  0  0  0  0  0
    0.9193   -1.1101   -4.6559 H   0  0  0  0  0  0  0  0  0  0  0  0
    1.3261    0.8435   -3.8609 N   0  0  0  0  0  0  0  0  0  0  0  0
    0.9449    1.4499   -2.6611 C   0  0  0  0  0  0  0  0  0  0  0  0
    1.1807    2.4602   -2.3526 H   0  0  0  0  0  0  0  0  0  0  0  0
   -0.1073    0.0565    1.7296 C   0  0  0  0  0  0  0  0  0  0  0  0
    1.0285   -0.1699    2.1459 O   0  0  0  0  0  0  0  0  0  0  0  0
   -1.0395    0.6588    2.4785 N   0  0  0  0  0  0  0  0  0  0  0  0
   -1.9636    0.7597    2.0849 H   0  0  0  0  0  0  0  0  0  0  0  0
   -0.8222    1.1334    3.8425 C   0  0  0  0  0  0  0  0  0  0  0  0
   -0.0212    1.8761    3.8521 H   0  0  0  0  0  0  0  0  0  0  0  0
   -1.7349    1.5853    4.2320 H   0  0  0  0  0  0  0  0  0  0  0  0
   -0.5312    0.2997    4.4834 H   0  0  0  0  0  0  0  0  0  0  0  0
  5  6  2  0  0  0  0
  5  7  1  0  0  0  0
  2  3  1  0  0  0  0
  2  4  1  0  0  0  0
  2  5  1  0  0  0  0
  1  2  1  0  0  0  0
 22 23  2  0  0  0  0
 22 24  1  0  0  0  0
 20 21  1  0  0  0  0
 19 20  1  0  0  0  0
 17 18  1  0  0  0  0
 17 19  2  0  0  0  0
 15 16  1  0  0  0  0
 15 17  1  0  0  0  0
 14 15  1  0  0  0  0
 14 20  2  0  0  0  0
 11 12  1  0  0  0  0
 11 13  1  0  0  0  0
 11 14  1  0  0  0  0
  9 10  1  0  0  0  0
  9 11  1  0  0  0  0
  9 22  1  0  0  0  0
  7  8  1  0  0  0  0
  7  9  1  0  0  0  0
 26 27  1  0  0  0  0
 26 28  1  0  0  0  0
 26 29  1  0  0  0  0
 24 25  1  0  0  0  0
 24 26  1  0  0  0  0
M  END
$$$$
default_name
  -OEChem-02102213163D

 29 29  0     1  0  0  0  0  0999 V2000
   -3.6042   -3.5728    1.4576 H   0  0  0  0  0  0  0  0  0  0  0  0
   -3.5202   -2.6488    0.8866 C   0  0  0  0  0  0  0  0  0  0  0  0
   -4.2052   -1.9048    1.2896 H   0  0  0  0  0  0  0  0  0  0  0  0
   -3.7552   -2.8428   -0.1584 H   0  0  0  0  0  0  0  0  0  0  0  0
   -2.1052   -2.1358    0.9946 C   0  0  0  0  0  0  0  0  0  0  0  0
   -1.2852   -2.7288    1.6826 O   0  0  0  0  0  0  0  0  0  0  0  0
   -1.8202   -1.0288    0.3146 N   0  0  0  0  0  0  0  0  0  0  0  0
   -2.5542   -0.5788   -0.2104 H   0  0  0  0  0  0  0  0  0  0  0  0
   -0.5102   -0.3728    0.3086 C   0  0  1  0  0  0  0  0  0  0  0  0
    0.2354   -1.0844   -0.0490 H   0  0  0  0  0  0  0  0  0  0  0  0
   -0.5452    0.8158   -0.6698 C   0  0  0  0  0  0  0  0  0  0  0  0
   -1.5841    1.0613   -0.8969 H   0  0  0  0  0  0  0  0  0  0  0  0
   -0.0922    1.6852   -0.1897 H   0  0  0  0  0  0  0  0  0  0  0  0
    0.1792    0.5533   -1.9646 C   0  0  0  0  0  0  0  0  0  0  0  0
   -0.1109   -0.4405   -2.8747 N   0  0  0  0  0  0  0  0  0  0  0  0
   -0.7969   -1.1713   -2.7591 H   0  0  0  0  0  0  0  0  0  0  0  0
    0.6849   -0.2700   -3.9439 C   0  0  0  0  0  0  0  0  0  0  0  0
    0.6940   -0.9007   -4.8244 H   0  0  0  0  0  0  0  0  0  0  0  0
    1.4720    0.8018   -3.7708 N   0  0  0  0  0  0  0  0  0  0  0  0
    1.1629    1.3309   -2.5150 C   0  0  0  0  0  0  0  0  0  0  0  0
    1.5961    2.2178   -2.0711 H   0  0  0  0  0  0  0  0  0  0  0  0
   -0.1073    0.0565    1.7296 C   0  0  0  0  0  0  0  0  0  0  0  0
    1.0285   -0.1699    2.1459 O   0  0  0  0  0  0  0  0  0  0  0  0
   -1.0395    0.6588    2.4785 N   0  0  0  0  0  0  0  0  0  0  0  0
   -1.9636    0.7597    2.0849 H   0  0  0  0  0  0  0  0  0  0  0  0
   -0.8222    1.1334    3.8425 C   0  0  0  0  0  0  0  0  0  0  0  0
   -0.0212    1.8761    3.8521 H   0  0  0  0  0  0  0  0  0  0  0  0
   -1.7349    1.5853    4.2320 H   0  0  0  0  0  0  0  0  0  0  0  0
   -0.5312    0.2997    4.4834 H   0  0  0  0  0  0  0  0  0  0  0  0
  5  6  2  0  0  0  0
  5  7  1  0  0  0  0
  2  3  1  0  0  0  0
  2  4  1  0  0  0  0
  2  5  1  0  0  0  0
  1  2  1  0  0  0  0
 22 23  2  0  0  0  0
 22 24  1  0  0  0  0
 20 21  1  0  0  0  0
 19 20  1  0  0  0  0
 17 18  1  0  0  0  0
 17 19  2  0  0  0  0
 15 16  1  0  0  0  0
 15 17  1  0  0  0  0
 14 15  1  0  0  0  0
 14 20  2  0  0  0  0
 11 12  1  0  0  0  0
 11 13  1  0  0  0  0
 11 14  1  0  0  0  0
  9 10  1  0  0  0  0
  9 11  1  0  0  0  0
  9 22  1  0  0  0  0
  7  8  1  0  0  0  0
  7  9  1  0  0  0  0
 26 27  1  0  0  0  0
 26 28  1  0  0  0  0
 26 29  1  0  0  0  0
 24 25  1  0  0  0  0
 24 26  1  0  0  0  0
M  END
$$$$
default_name
  -OEChem-02102213163D

 29 29  0     1  0  0  0  0  0999 V2000
   -3.6042   -3.5728    1.4576 H   0  0  0  0  0  0  0  0  0  0  0  0
   -3.5202   -2.6488    0.8866 C   0  0  0  0  0  0  0  0  0  0  0  0
   -4.2052   -1.9048    1.2896 H   0  0  0  0  0  0  0  0  0  0  0  0
   -3.7552   -2.8428   -0.1584 H   0  0  0  0  0  0  0  0  0  0  0  0
   -2.1052   -2.1358    0.9946 C   0  0  0  0  0  0  0  0  0  0  0  0
   -1.2852   -2.7288    1.6826 O   0  0  0  0  0  0  0  0  0  0  0  0
   -1.8202   -1.0288    0.3146 N   0  0  0  0  0  0  0  0  0  0  0  0
   -2.5542   -0.5788   -0.2104 H   0  0  0  0  0  0  0  0  0  0  0  0
   -0.5102   -0.3728    0.3086 C   0  0  1  0  0  0  0  0  0  0  0  0
    0.2354   -1.0844   -0.0490 H   0  0  0  0  0  0  0  0  0  0  0  0
   -0.5452    0.8158   -0.6698 C   0  0  0  0  0  0  0  0  0  0  0  0
   -1.5841    1.0613   -0.8969 H   0  0  0  0  0  0  0  0  0  0  0  0
   -0.0922    1.6852   -0.1897 H   0  0  0  0  0  0  0  0  0  0  0  0
    0.1792    0.5533   -1.9646 C   0  0  0  0  0  0  0  0  0  0  0  0
   -0.2676   -0.2337   -3.0044 N   0  0  0  0  0  0  0  0  0  0  0  0
   -1.1030   -0.7996   -3.0057 H   0  0  0  0  0  0  0  0  0  0  0  0
    0.6080   -0.1205   -4.0172 C   0  0  0  0  0  0  0  0  0  0  0  0
    0.5305   -0.6274   -4.9713 H   0  0  0  0  0  0  0  0  0  0  0  0
    1.5996    0.7179   -3.6824 N   0  0  0  0  0  0  0  0  0  0  0  0
    1.3405    1.1493   -2.3789 C   0  0  0  0  0  0  0  0  0  0  0  0
    1.9308    1.8564   -1.8105 H   0  0  0  0  0  0  0  0  0  0  0  0
   -0.1073    0.0565    1.7296 C   0  0  0  0  0  0  0  0  0  0  0  0
    1.0285   -0.1699    2.1459 O   0  0  0  0  0  0  0  0  0  0  0  0
   -1.0395    0.6588    2.4785 N   0  0  0  0  0  0  0  0  0  0  0  0
   -1.9636    0.7597    2.0849 H   0  0  0  0  0  0  0  0  0  0  0  0
   -0.8222    1.1334    3.8425 C   0  0  0  0  0  0  0  0  0  0  0  0
   -0.0212    1.8761    3.8521 H   0  0  0  0  0  0  0  0  0  0  0  0
   -1.7349    1.5853    4.2320 H   0  0  0  0  0  0  0  0  0  0  0  0
   -0.5312    0.2997    4.4834 H   0  0  0  0  0  0  0  0  0  0  0  0
  5  6  2  0  0  0  0
  5  7  1  0  0  0  0
  2  3  1  0  0  0  0
  2  4  1  0  0  0  0
  2  5  1  0  0  0  0
  1  2  1  0  0  0  0
 22 23  2  0  0  0  0
 22 24  1  0  0  0  0
 20 21  1  0  0  0  0
 19 20  1  0  0  0  0
 17 18  1  0  0  0  0
 17 19  2  0  0  0  0
 15 16  1  0  0  0  0
 15 17  1  0  0  0  0
 14 15  1  0  0  0  0
 14 20  2  0  0  0  0
 11 12  1  0  0  0  0
 11 13  1  0  0  0  0
 11 14  1  0  0  0  0
  9 10  1  0  0  0  0
  9 11  1  0  0  0  0
  9 22  1  0  0  0  0
  7  8  1  0  0  0  0
  7  9  1  0  0  0  0
 26 27  1  0  0  0  0
 26 28  1  0  0  0  0
 26 29  1  0  0  0  0
 24 25  1  0  0  0  0
 24 26  1  0  0  0  0
M  END
$$$$
default_name
  -OEChem-02102213163D

 29 29  0     1  0  0  0  0  0999 V2000
   -3.6042   -3.5728    1.4576 H   0  0  0  0  0  0  0  0  0  0  0  0
   -3.5202   -2.6488    0.8866 C   0  0  0  0  0  0  0  0  0  0  0  0
   -4.2052   -1.9048    1.2896 H   0  0  0  0  0  0  0  0  0  0  0  0
   -3.7552   -2.8428   -0.1584 H   0  0  0  0  0  0  0  0  0  0  0  0
   -2.1052   -2.1358    0.9946 C   0  0  0  0  0  0  0  0  0  0  0  0
   -1.2852   -2.7288    1.6826 O   0  0  0  0  0  0  0  0  0  0  0  0
   -1.8202   -1.0288    0.3146 N   0  0  0  0  0  0  0  0  0  0  0  0
   -2.5542   -0.5788   -0.2104 H   0  0  0  0  0  0  0  0  0  0  0  0
   -0.5102   -0.3728    0.3086 C   0  0  1  0  0  0  0  0  0  0  0  0
    0.2354   -1.0844   -0.0490 H   0  0  0  0  0  0  0  0  0  0  0  0
   -0.5452    0.8158   -0.6698 C   0  0  0  0  0  0  0  0  0  0  0  0
   -1.5841    1.0613   -0.8969 H   0  0  0  0  0  0  0  0  0  0  0  0
   -0.0922    1.6852   -0.1897 H   0  0  0  0  0  0  0  0  0  0  0  0
    0.1792    0.5533   -1.9646 C   0  0  0  0  0  0  0  0  0  0  0  0
   -0.3672    0.0170   -3.1109 N   0  0  0  0  0  0  0  0  0  0  0  0
   -1.3048   -0.3419   -3.2115 H   0  0  0  0  0  0  0  0  0  0  0  0
    0.5703    0.0501   -4.0729 C   0  0  0  0  0  0  0  0  0  0  0  0
    0.4400   -0.3087   -5.0866 H   0  0  0  0  0  0  0  0  0  0  0  0
    1.7002    0.5975   -3.6017 N   0  0  0  0  0  0  0  0  0  0  0  0
    1.4654    0.9175   -2.2620 C   0  0  0  0  0  0  0  0  0  0  0  0
    2.1619    1.4003   -1.5888 H   0  0  0  0  0  0  0  0  0  0  0  0
   -0.1073    0.0565    1.7296 C   0  0  0  0  0  0  0  0  0  0  0  0
    1.0285   -0.1699    2.1459 O   0  0  0  0  0  0  0  0  0  0  0  0
   -1.0395    0.6588    2.4785 N   0  0  0  0  0  0  0  0  0  0  0  0
   -1.9636    0.7597    2.0849 H   0  0  0  0  0  0  0  0  0  0  0  0
   -0.8222    1.1334    3.8425 C   0  0  0  0  0  0  0  0  0  0  0  0
   -0.0212    1.8761    3.8521 H   0  0  0  0  0  0  0  0  0  0  0  0
   -1.7349    1.5853    4.2320 H   0  0  0  0  0  0  0  0  0  0  0  0
   -0.5312    0.2997    4.4834 H   0  0  0  0  0  0  0  0  0  0  0  0
  5  6  2  0  0  0  0
  5  7  1  0  0  0  0
  2  3  1  0  0  0  0
  2  4  1  0  0  0  0
  2  5  1  0  0  0  0
  1  2  1  0  0  0  0
 22 23  2  0  0  0  0
 22 24  1  0  0  0  0
 20 21  1  0  0  0  0
 19 20  1  0  0  0  0
 17 18  1  0  0  0  0
 17 19  2  0  0  0  0
 15 16  1  0  0  0  0
 15 17  1  0  0  0  0
 14 15  1  0  0  0  0
 14 20  2  0  0  0  0
 11 12  1  0  0  0  0
 11 13  1  0  0  0  0
 11 14  1  0  0  0  0
  9 10  1  0  0  0  0
  9 11  1  0  0  0  0
  9 22  1  0  0  0  0
  7  8  1  0  0  0  0
  7  9  1  0  0  0  0
 26 27  1  0  0  0  0
 26 28  1  0  0  0  0
 26 29  1  0  0  0  0
 24 25  1  0  0  0  0
 24 26  1  0  0  0  0
M  END
$$$$
default_name
  -OEChem-02102213163D

 29 29  0     1  0  0  0  0  0999 V2000
   -3.6042   -3.5728    1.4576 H   0  0  0  0  0  0  0  0  0  0  0  0
   -3.5202   -2.6488    0.8866 C   0  0  0  0  0  0  0  0  0  0  0  0
   -4.2052   -1.9048    1.2896 H   0  0  0  0  0  0  0  0  0  0  0  0
   -3.7552   -2.8428   -0.1584 H   0  0  0  0  0  0  0  0  0  0  0  0
   -2.1052   -2.1358    0.9946 C   0  0  0  0  0  0  0  0  0  0  0  0
   -1.2852   -2.7288    1.6826 O   0  0  0  0  0  0  0  0  0  0  0  0
   -1.8202   -1.0288    0.3146 N   0  0  0  0  0  0  0  0  0  0  0  0
   -2.5542   -0.5788   -0.2104 H   0  0  0  0  0  0  0  0  0  0  0  0
   -0.5102   -0.3728    0.3086 C   0  0  1  0  0  0  0  0  0  0  0  0
    0.2354   -1.0844   -0.0490 H   0  0  0  0  0  0  0  0  0  0  0  0
   -0.5452    0.8158   -0.6698 C   0  0  0  0  0  0  0  0  0  0  0  0
   -1.5841    1.0613   -0.8969 H   0  0  0  0  0  0  0  0  0  0  0  0
   -0.0922    1.6852   -0.1897 H   0  0  0  0  0  0  0  0  0  0  0  0
    0.1792    0.5533   -1.9646 C   0  0  0  0  0  0  0  0  0  0  0  0
   -0.4028    0.2946   -3.1871 N   0  0  0  0  0  0  0  0  0  0  0  0
   -1.3887    0.1708   -3.3623 H   0  0  0  0  0  0  0  0  0  0  0  0
    0.5743    0.2302   -4.1072 C   0  0  0  0  0  0  0  0  0  0  0  0
    0.4286    0.0336   -5.1623 H   0  0  0  0  0  0  0  0  0  0  0  0
    1.7669    0.4488   -3.5342 N   0  0  0  0  0  0  0  0  0  0  0  0
    1.5293    0.6512   -2.1722 C   0  0  0  0  0  0  0  0  0  0  0  0
    2.2737    0.8809   -1.4209 H   0  0  0  0  0  0  0  0  0  0  0  0
   -0.1073    0.0565    1.7296 C   0  0  0  0  0  0  0  0  0  0  0  0
    1.0285   -0.1699    2.1459 O   0  0  0  0  0  0  0  0  0  0  0  0
   -1.0395    0.6588    2.4785 N   0  0  0  0  0  0  0  0  0  0  0  0
   -1.9636    0.7597    2.0849 H   0  0  0  0  0  0  0  0  0  0  0  0
   -0.8222    1.1334    3.8425 C   0  0  0  0  0  0  0  0  0  0  0  0
   -0.0212    1.8761    3.8521 H   0  0  0  0  0  0  0  0  0  0  0  0
   -1.7349    1.5853    4.2320 H   0  0  0  0  0  0  0  0  0  0  0  0
   -0.5312    0.2997    4.4834 H   0  0  0  0  0  0  0  0  0  0  0  0
  5  6  2  0  0  0  0
  5  7  1  0  0  0  0
  2  3  1  0  0  0  0
  2  4  1  0  0  0  0
  2  5  1  0  0  0  0
  1  2  1  0  0  0  0
 22 23  2  0  0  0  0
 22 24  1  0  0  0  0
 20 21  1  0  0  0  0
 19 20  1  0  0  0  0
 17 18  1  0  0  0  0
 17 19  2  0  0  0  0
 15 16  1  0  0  0  0
 15 17  1  0  0  0  0
 14 15  1  0  0  0  0
 14 20  2  0  0  0  0
 11 12  1  0  0  0  0
 11 13  1  0  0  0  0
 11 14  1  0  0  0  0
  9 10  1  0  0  0  0
  9 11  1  0  0  0  0
  9 22  1  0  0  0  0
  7  8  1  0  0  0  0
  7  9  1  0  0  0  0
 26 27  1  0  0  0  0
 26 28  1  0  0  0  0
 26 29  1  0  0  0  0
 24 25  1  0  0  0  0
 24 26  1  0  0  0  0
M  END
$$$$
default_name
  -OEChem-02102213163D

 29 29  0     1  0  0  0  0  0999 V2000
   -3.6042   -3.5728    1.4576 H   0  0  0  0  0  0  0  0  0  0  0  0
   -3.5202   -2.6488    0.8866 C   0  0  0  0  0  0  0  0  0  0  0  0
   -4.2052   -1.9048    1.2896 H   0  0  0  0  0  0  0  0  0  0  0  0
   -3.7552   -2.8428   -0.1584 H   0  0  0  0  0  0  0  0  0  0  0  0
   -2.1052   -2.1358    0.9946 C   0  0  0  0  0  0  0  0  0  0  0  0
   -1.2852   -2.7288    1.6826 O   0  0  0  0  0  0  0  0  0  0  0  0
   -1.8202   -1.0288    0.3146 N   0  0  0  0  0  0  0  0  0  0  0  0
   -2.5542   -0.5788   -0.2104 H   0  0  0  0  0  0  0  0  0  0  0  0
   -0.5102   -0.3728    0.3086 C   0  0  1  0  0  0  0  0  0  0  0  0
    0.2354   -1.0844   -0.0490 H   0  0  0  0  0  0  0  0  0  0  0  0
   -0.5452    0.8158   -0.6698 C   0  0  0  0  0  0  0  0  0  0  0  0
   -1.5841    1.0613   -0.8969 H   0  0  0  0  0  0  0  0  0  0  0  0
   -0.0922    1.6852   -0.1897 H   0  0  0  0  0  0  0  0  0  0  0  0
    0.1792    0.5533   -1.9646 C   0  0  0  0  0  0  0  0  0  0  0  0
   -0.3720    0.5802   -3.2278 N   0  0  0  0  0  0  0  0  0  0  0  0
   -1.3489    0.7035   -3.4481 H   0  0  0  0  0  0  0  0  0  0  0  0
    0.6198    0.4076   -4.1177 C   0  0  0  0  0  0  0  0  0  0  0  0
    0.4972    0.3762   -5.1934 H   0  0  0  0  0  0  0  0  0  0  0  0
    1.7953    0.2819   -3.4845 N   0  0  0  0  0  0  0  0  0  0  0  0
    1.5277    0.3686   -2.1158 C   0  0  0  0  0  0  0  0  0  0  0  0
    2.2586    0.3333   -1.3183 H   0  0  0  0  0  0  0  0  0  0  0  0
   -0.1073    0.0565    1.7296 C   0  0  0  0  0  0  0  0  0  0  0  0
    1.0285   -0.1699    2.1459 O   0  0  0  0  0  0  0  0  0  0  0  0
   -1.0395    0.6588    2.4785 N   0  0  0  0  0  0  0  0  0  0  0  0
   -1.9636    0.7597    2.0849 H   0  0  0  0  0  0  0  0  0  0  0  0
   -0.8222    1.1334    3.8425 C   0  0  0  0  0  0  0  0  0  0  0  0
   -0.0212    1.8761    3.8521 H   0  0  0  0  0  0  0  0  0  0  0  0
   -1.7349    1.5853    4.2320 H   0  0  0  0  0  0  0  0  0  0  0  0
   -0.5312    0.2997    4.4834 H   0  0  0  0  0  0  0  0  0  0  0  0
  5  6  2  0  0  0  0
  5  7  1  0  0  0  0
  2  3  1  0  0  0  0
  2  4  1  0  0  0  0
  2  5  1  0  0  0  0
  1  2  1  0  0  0  0
 22 23  2  0  0  0  0
 22 24  1  0  0  0  0
 20 21  1  0  0  0  0
 19 20  1  0  0  0  0
 17 18  1  0  0  0  0
 17 19  2  0  0  0  0
 15 16  1  0  0  0  0
 15 17  1  0  0  0  0
 14 15  1  0  0  0  0
 14 20  2  0  0  0  0
 11 12  1  0  0  0  0
 11 13  1  0  0  0  0
 11 14  1  0  0  0  0
  9 10  1  0  0  0  0
  9 11  1  0  0  0  0
  9 22  1  0  0  0  0
  7  8  1  0  0  0  0
  7  9  1  0  0  0  0
 26 27  1  0  0  0  0
 26 28  1  0  0  0  0
 26 29  1  0  0  0  0
 24 25  1  0  0  0  0
 24 26  1  0  0  0  0
M  END
$$$$
default_name
  -OEChem-02102213163D

 29 29  0     1  0  0  0  0  0999 V2000
   -3.6042   -3.5728    1.4576 H   0  0  0  0  0  0  0  0  0  0  0  0
   -3.5202   -2.6488    0.8866 C   0  0  0  0  0  0  0  0  0  0  0  0
   -4.2052   -1.9048    1.2896 H   0  0  0  0  0  0  0  0  0  0  0  0
   -3.7552   -2.8428   -0.1584 H   0  0  0  0  0  0  0  0  0  0  0  0
   -2.1052   -2.1358    0.9946 C   0  0  0  0  0  0  0  0  0  0  0  0
   -1.2852   -2.7288    1.6826 O   0  0  0  0  0  0  0  0  0  0  0  0
   -1.8202   -1.0288    0.3146 N   0  0  0  0  0  0  0  0  0  0  0  0
   -2.5542   -0.5788   -0.2104 H   0  0  0  0  0  0  0  0  0  0  0  0
   -0.5102   -0.3728    0.3086 C   0  0  1  0  0  0  0  0  0  0  0  0
    0.2354   -1.0844   -0.0490 H   0  0  0  0  0  0  0  0  0  0  0  0
   -0.5452    0.8158   -0.6698 C   0  0  0  0  0  0  0  0  0  0  0  0
   -1.5841    1.0613   -0.8969 H   0  0  0  0  0  0  0  0  0  0  0  0
   -0.0922    1.6852   -0.1897 H   0  0  0  0  0  0  0  0  0  0  0  0
    0.1792    0.5533   -1.9646 C   0  0  0  0  0  0  0  0  0  0  0  0
   -0.2769    0.8542   -3.2301 N   0  0  0  0  0  0  0  0  0  0  0  0
   -1.1881    1.2198   -3.4628 H   0  0  0  0  0  0  0  0  0  0  0  0
    0.7037    0.5701   -4.1037 C   0  0  0  0  0  0  0  0  0  0  0  0
    0.6411    0.6957   -5.1777 H   0  0  0  0  0  0  0  0  0  0  0  0
    1.7833    0.1082   -3.4560 N   0  0  0  0  0  0  0  0  0  0  0  0
    1.4608    0.0890   -2.0966 C   0  0  0  0  0  0  0  0  0  0  0  0
    2.1176   -0.2049   -1.2881 H   0  0  0  0  0  0  0  0  0  0  0  0
   -0.1073    0.0565    1.7296 C   0  0  0  0  0  0  0  0  0  0  0  0
    1.0285   -0.1699    2.1459 O   0  0  0  0  0  0  0  0  0  0  0  0
   -1.0395    0.6588    2.4785 N   0  0  0  0  0  0  0  0  0  0  0  0
   -1.9636    0.7597    2.0849 H   0  0  0  0  0  0  0  0  0  0  0  0
   -0.8222    1.1334    3.8425 C   0  0  0  0  0  0  0  0  0  0  0  0
   -0.0212    1.8761    3.8521 H   0  0  0  0  0  0  0  0  0  0  0  0
   -1.7349    1.5853    4.2320 H   0  0  0  0  0  0  0  0  0  0  0  0
   -0.5312    0.2997    4.4834 H   0  0  0  0  0  0  0  0  0  0  0  0
  5  6  2  0  0  0  0
  5  7  1  0  0  0  0
  2  3  1  0  0  0  0
  2  4  1  0  0  0  0
  2  5  1  0  0  0  0
  1  2  1  0  0  0  0
 22 23  2  0  0  0  0
 22 24  1  0  0  0  0
 20 21  1  0  0  0  0
 19 20  1  0  0  0  0
 17 18  1  0  0  0  0
 17 19  2  0  0  0  0
 15 16  1  0  0  0  0
 15 17  1  0  0  0  0
 14 15  1  0  0  0  0
 14 20  2  0  0  0  0
 11 12  1  0  0  0  0
 11 13  1  0  0  0  0
 11 14  1  0  0  0  0
  9 10  1  0  0  0  0
  9 11  1  0  0  0  0
  9 22  1  0  0  0  0
  7  8  1  0  0  0  0
  7  9  1  0  0  0  0
 26 27  1  0  0  0  0
 26 28  1  0  0  0  0
 26 29  1  0  0  0  0
 24 25  1  0  0  0  0
 24 26  1  0  0  0  0
M  END
$$$$
default_name
  -OEChem-02102213163D

 29 29  0     1  0  0  0  0  0999 V2000
   -3.6042   -3.5728    1.4576 H   0  0  0  0  0  0  0  0  0  0  0  0
   -3.5202   -2.6488    0.8866 C   0  0  0  0  0  0  0  0  0  0  0  0
   -4.2052   -1.9048    1.2896 H   0  0  0  0  0  0  0  0  0  0  0  0
   -3.7552   -2.8428   -0.1584 H   0  0  0  0  0  0  0  0  0  0  0  0
   -2.1052   -2.1358    0.9946 C   0  0  0  0  0  0  0  0  0  0  0  0
   -1.2852   -2.7288    1.6826 O   0  0  0  0  0  0  0  0  0  0  0  0
   -1.8202   -1.0288    0.3146 N   0  0  0  0  0  0  0  0  0  0  0  0
   -2.5542   -0.5788   -0.2104 H   0  0  0  0  0  0  0  0  0  0  0  0
   -0.5102   -0.3728    0.3086 C   0  0  1  0  0  0  0  0  0  0  0  0
    0.2354   -1.0844   -0.0490 H   0  0  0  0  0  0  0  0  0  0  0  0
   -0.5452    0.8158   -0.6698 C   0  0  0  0  0  0  0  0  0  0  0  0
   -1.5841    1.0613   -0.8969 H   0  0  0  0  0  0  0  0  0  0  0  0
   -0.0922    1.6852   -0.1897 H   0  0  0  0  0  0  0  0  0  0  0  0
    0.1792    0.5533   -1.9646 C   0  0  0  0  0  0  0  0  0  0  0  0
   -0.1240    1.0980   -3.1940 N   0  0  0  0  0  0  0  0  0  0  0  0
   -0.9173    1.6846   -3.4055 H   0  0  0  0  0  0  0  0  0  0  0  0
    0.8202    0.7066   -4.0662 C   0  0  0  0  0  0  0  0  0  0  0  0
    0.8504    0.9704   -5.1163 H   0  0  0  0  0  0  0  0  0  0  0  0
    1.7318   -0.0605   -3.4506 N   0  0  0  0  0  0  0  0  0  0  0  0
    1.3331   -0.1686   -2.1158 C   0  0  0  0  0  0  0  0  0  0  0  0
    1.8603   -0.6973   -1.3322 H   0  0  0  0  0  0  0  0  0  0  0  0
   -0.1073    0.0565    1.7296 C   0  0  0  0  0  0  0  0  0  0  0  0
    1.0285   -0.1699    2.1459 O   0  0  0  0  0  0  0  0  0  0  0  0
   -1.0395    0.6588    2.4785 N   0  0  0  0  0  0  0  0  0  0  0  0
   -1.9636    0.7597    2.0849 H   0  0  0  0  0  0  0  0  0  0  0  0
   -0.8222    1.1334    3.8425 C   0  0  0  0  0  0  0  0  0  0  0  0
   -0.0212    1.8761    3.8521 H   0  0  0  0  0  0  0  0  0  0  0  0
   -1.7349    1.5853    4.2320 H   0  0  0  0  0  0  0  0  0  0  0  0
   -0.5312    0.2997    4.4834 H   0  0  0  0  0  0  0  0  0  0  0  0
  5  6  2  0  0  0  0
  5  7  1  0  0  0  0
  2  3  1  0  0  0  0
  2  4  1  0  0  0  0
  2  5  1  0  0  0  0
  1  2  1  0  0  0  0
 22 23  2  0  0  0  0
 22 24  1  0  0  0  0
 20 21  1  0  0  0  0
 19 20  1  0  0  0  0
 17 18  1  0  0  0  0
 17 19  2  0  0  0  0
 15 16  1  0  0  0  0
 15 17  1  0  0  0  0
 14 15  1  0  0  0  0
 14 20  2  0  0  0  0
 11 12  1  0  0  0  0
 11 13  1  0  0  0  0
 11 14  1  0  0  0  0
  9 10  1  0  0  0  0
  9 11  1  0  0  0  0
  9 22  1  0  0  0  0
  7  8  1  0  0  0  0
  7  9  1  0  0  0  0
 26 27  1  0  0  0  0
 26 28  1  0  0  0  0
 26 29  1  0  0  0  0
 24 25  1  0  0  0  0
 24 26  1  0  0  0  0
M  END
$$$$
default_name
  -OEChem-02102213163D

 29 29  0     1  0  0  0  0  0999 V2000
   -3.6042   -3.5728    1.4576 H   0  0  0  0  0  0  0  0  0  0  0  0
   -3.5202   -2.6488    0.8866 C   0  0  0  0  0  0  0  0  0  0  0  0
   -4.2052   -1.9048    1.2896 H   0  0  0  0  0  0  0  0  0  0  0  0
   -3.7552   -2.8428   -0.1584 H   0  0  0  0  0  0  0  0  0  0  0  0
   -2.1052   -2.1358    0.9946 C   0  0  0  0  0  0  0  0  0  0  0  0
   -1.2852   -2.7288    1.6826 O   0  0  0  0  0  0  0  0  0  0  0  0
   -1.8202   -1.0288    0.3146 N   0  0  0  0  0  0  0  0  0  0  0  0
   -2.5542   -0.5788   -0.2104 H   0  0  0  0  0  0  0  0  0  0  0  0
   -0.5102   -0.3728    0.3086 C   0  0  1  0  0  0  0  0  0  0  0  0
    0.2354   -1.0844   -0.0490 H   0  0  0  0  0  0  0  0  0  0  0  0
   -0.5452    0.8158   -0.6698 C   0  0  0  0  0  0  0  0  0  0  0  0
   -1.5841    1.0613   -0.8969 H   0  0  0  0  0  0  0  0  0  0  0  0
   -0.0922    1.6852   -0.1897 H   0  0  0  0  0  0  0  0  0  0  0  0
    0.1792    0.5533   -1.9646 C   0  0  0  0  0  0  0  0  0  0  0  0
    0.0763    1.2950   -3.1219 N   0  0  0  0  0  0  0  0  0  0  0  0
   -0.5549    2.0661   -3.2801 H   0  0  0  0  0  0  0  0  0  0  0  0
    0.9615    0.8080   -4.0077 C   0  0  0  0  0  0  0  0  0  0  0  0
    1.1109    1.1816   -5.0134 H   0  0  0  0  0  0  0  0  0  0  0  0
    1.6443   -0.2126   -3.4687 N   0  0  0  0  0  0  0  0  0  0  0  0
    1.1533   -0.3867   -2.1722 C   0  0  0  0  0  0  0  0  0  0  0  0
    1.5043   -1.1101   -1.4477 H   0  0  0  0  0  0  0  0  0  0  0  0
   -0.1073    0.0565    1.7296 C   0  0  0  0  0  0  0  0  0  0  0  0
    1.0285   -0.1699    2.1459 O   0  0  0  0  0  0  0  0  0  0  0  0
   -1.0395    0.6588    2.4785 N   0  0  0  0  0  0  0  0  0  0  0  0
   -1.9636    0.7597    2.0849 H   0  0  0  0  0  0  0  0  0  0  0  0
   -0.8222    1.1334    3.8425 C   0  0  0  0  0  0  0  0  0  0  0  0
   -0.0212    1.8761    3.8521 H   0  0  0  0  0  0  0  0  0  0  0  0
   -1.7349    1.5853    4.2320 H   0  0  0  0  0  0  0  0  0  0  0  0
   -0.5312    0.2997    4.4834 H   0  0  0  0  0  0  0  0  0  0  0  0
  5  6  2  0  0  0  0
  5  7  1  0  0  0  0
  2  3  1  0  0  0  0
  2  4  1  0  0  0  0
  2  5  1  0  0  0  0
  1  2  1  0  0  0  0
 22 23  2  0  0  0  0
 22 24  1  0  0  0  0
 20 21  1  0  0  0  0
 19 20  1  0  0  0  0
 17 18  1  0  0  0  0
 17 19  2  0  0  0  0
 15 16  1  0  0  0  0
 15 17  1  0  0  0  0
 14 15  1  0  0  0  0
 14 20  2  0  0  0  0
 11 12  1  0  0  0  0
 11 13  1  0  0  0  0
 11 14  1  0  0  0  0
  9 10  1  0  0  0  0
  9 11  1  0  0  0  0
  9 22  1  0  0  0  0
  7  8  1  0  0  0  0
  7  9  1  0  0  0  0
 26 27  1  0  0  0  0
 26 28  1  0  0  0  0
 26 29  1  0  0  0  0
 24 25  1  0  0  0  0
 24 26  1  0  0  0  0
M  END
$$$$
default_name
  -OEChem-02102213163D

 29 29  0     1  0  0  0  0  0999 V2000
   -3.6042   -3.5728    1.4576 H   0  0  0  0  0  0  0  0  0  0  0  0
   -3.5202   -2.6488    0.8866 C   0  0  0  0  0  0  0  0  0  0  0  0
   -4.2052   -1.9048    1.2896 H   0  0  0  0  0  0  0  0  0  0  0  0
   -3.7552   -2.8428   -0.1584 H   0  0  0  0  0  0  0  0  0  0  0  0
   -2.1052   -2.1358    0.9946 C   0  0  0  0  0  0  0  0  0  0  0  0
   -1.2852   -2.7288    1.6826 O   0  0  0  0  0  0  0  0  0  0  0  0
   -1.8202   -1.0288    0.3146 N   0  0  0  0  0  0  0  0  0  0  0  0
   -2.5542   -0.5788   -0.2104 H   0  0  0  0  0  0  0  0  0  0  0  0
   -0.5102   -0.3728    0.3086 C   0  0  1  0  0  0  0  0  0  0  0  0
    0.2354   -1.0844   -0.0490 H   0  0  0  0  0  0  0  0  0  0  0  0
   -0.5452    0.8158   -0.6698 C   0  0  0  0  0  0  0  0  0  0  0  0
   -1.5540    1.2318   -0.6908 H   0  0  0  0  0  0  0  0  0  0  0  0
    0.1310    1.5932   -0.3094 H   0  0  0  0  0  0  0  0  0  0  0  0
   -0.1478    0.4514   -2.0767 C   0  0  0  0  0  0  0  0  0  0  0  0
   -0.0882    1.3076   -3.1554 N   0  0  0  0  0  0  0  0  0  0  0  0
   -0.3762    2.2746   -3.1639 H   0  0  0  0  0  0  0  0  0  0  0  0
    0.4162    0.6273   -4.1985 C   0  0  0  0  0  0  0  0  0  0  0  0
    0.5779    1.0316   -5.1903 H   0  0  0  0  0  0  0  0  0  0  0  0
    0.6986   -0.6332   -3.8383 N   0  0  0  0  0  0  0  0  0  0  0  0
    0.3406   -0.7583   -2.4934 C   0  0  0  0  0  0  0  0  0  0  0  0
    0.4614   -1.6414   -1.8795 H   0  0  0  0  0  0  0  0  0  0  0  0
   -0.1073    0.0565    1.7296 C   0  0  0  0  0  0  0  0  0  0  0  0
    1.0285   -0.1699    2.1459 O   0  0  0  0  0  0  0  0  0  0  0  0
   -1.0395    0.6588    2.4785 N   0  0  0  0  0  0  0  0  0  0  0  0
   -1.9636    0.7597    2.0849 H   0  0  0  0  0  0  0  0  0  0  0  0
   -0.8222    1.1334    3.8425 C   0  0  0  0  0  0  0  0  0  0  0  0
   -0.0212    1.8761    3.8521 H   0  0  0  0  0  0  0  0  0  0  0  0
   -1.7349    1.5853    4.2320 H   0  0  0  0  0  0  0  0  0  0  0  0
   -0.5312    0.2997    4.4834 H   0  0  0  0  0  0  0  0  0  0  0  0
  5  6  2  0  0  0  0
  5  7  1  0  0  0  0
  2  3  1  0  0  0  0
  2  4  1  0  0  0  0
  2  5  1  0  0  0  0
  1  2  1  0  0  0  0
 22 23  2  0  0  0  0
 22 24  1  0  0  0  0
 20 21  1  0  0  0  0
 19 20  1  0  0  0  0
 17 18  1  0  0  0  0
 17 19  2  0  0  0  0
 15 16  1  0  0  0  0
 15 17  1  0  0  0  0
 14 15  1  0  0  0  0
 14 20  2  0  0  0  0
 11 12  1  0  0  0  0
 11 13  1  0  0  0  0
 11 14  1  0  0  0  0
  9 10  1  0  0  0  0
  9 11  1  0  0  0  0
  9 22  1  0  0  0  0
  7  8  1  0  0  0  0
  7  9  1  0  0  0  0
 26 27  1  0  0  0  0
 26 28  1  0  0  0  0
 26 29  1  0  0  0  0
 24 25  1  0  0  0  0
 24 26  1  0  0  0  0
M  END
$$$$
default_name
  -OEChem-02102213163D

 29 29  0     1  0  0  0  0  0999 V2000
   -3.6042   -3.5728    1.4576 H   0  0  0  0  0  0  0  0  0  0  0  0
   -3.5202   -2.6488    0.8866 C   0  0  0  0  0  0  0  0  0  0  0  0
   -4.2052   -1.9048    1.2896 H   0  0  0  0  0  0  0  0  0  0  0  0
   -3.7552   -2.8428   -0.1584 H   0  0  0  0  0  0  0  0  0  0  0  0
   -2.1052   -2.1358    0.9946 C   0  0  0  0  0  0  0  0  0  0  0  0
   -1.2852   -2.7288    1.6826 O   0  0  0  0  0  0  0  0  0  0  0  0
   -1.8202   -1.0288    0.3146 N   0  0  0  0  0  0  0  0  0  0  0  0
   -2.5542   -0.5788   -0.2104 H   0  0  0  0  0  0  0  0  0  0  0  0
   -0.5102   -0.3728    0.3086 C   0  0  1  0  0  0  0  0  0  0  0  0
    0.2354   -1.0844   -0.0490 H   0  0  0  0  0  0  0  0  0  0  0  0
   -0.5452    0.8158   -0.6698 C   0  0  0  0  0  0  0  0  0  0  0  0
   -1.5540    1.2318   -0.6908 H   0  0  0  0  0  0  0  0  0  0  0  0
    0.1310    1.5932   -0.3094 H   0  0  0  0  0  0  0  0  0  0  0  0
   -0.1478    0.4514   -2.0767 C   0  0  0  0  0  0  0  0  0  0  0  0
    0.1915    1.3309   -3.0824 N   0  0  0  0  0  0  0  0  0  0  0  0
    0.1449    2.3377   -3.0331 H   0  0  0  0  0  0  0  0  0  0  0  0
    0.5911    0.6127   -4.1453 C   0  0  0  0  0  0  0  0  0  0  0  0
    0.9149    1.0246   -5.0933 H   0  0  0  0  0  0  0  0  0  0  0  0
    0.5371   -0.6980   -3.8671 N   0  0  0  0  0  0  0  0  0  0  0  0
    0.0650   -0.8133   -2.5570 C   0  0  0  0  0  0  0  0  0  0  0  0
   -0.0732   -1.7348   -2.0063 H   0  0  0  0  0  0  0  0  0  0  0  0
   -0.1073    0.0565    1.7296 C   0  0  0  0  0  0  0  0  0  0  0  0
    1.0285   -0.1699    2.1459 O   0  0  0  0  0  0  0  0  0  0  0  0
   -1.0395    0.6588    2.4785 N   0  0  0  0  0  0  0  0  0  0  0  0
   -1.9636    0.7597    2.0849 H   0  0  0  0  0  0  0  0  0  0  0  0
   -0.8222    1.1334    3.8425 C   0  0  0  0  0  0  0  0  0  0  0  0
   -0.0212    1.8761    3.8521 H   0  0  0  0  0  0  0  0  0  0  0  0
   -1.7349    1.5853    4.2320 H   0  0  0  0  0  0  0  0  0  0  0  0
   -0.5312    0.2997    4.4834 H   0  0  0  0  0  0  0  0  0  0  0  0
  5  6  2  0  0  0  0
  5  7  1  0  0  0  0
  2  3  1  0  0  0  0
  2  4  1  0  0  0  0
  2  5  1  0  0  0  0
  1  2  1  0  0  0  0
 22 23  2  0  0  0  0
 22 24  1  0  0  0  0
 20 21  1  0  0  0  0
 19 20  1  0  0  0  0
 17 18  1  0  0  0  0
 17 19  2  0  0  0  0
 15 16  1  0  0  0  0
 15 17  1  0  0  0  0
 14 15  1  0  0  0  0
 14 20  2  0  0  0  0
 11 12  1  0  0  0  0
 11 13  1  0  0  0  0
 11 14  1  0  0  0  0
  9 10  1  0  0  0  0
  9 11  1  0  0  0  0
  9 22  1  0  0  0  0
  7  8  1  0  0  0  0
  7  9  1  0  0  0  0
 26 27  1  0  0  0  0
 26 28  1  0  0  0  0
 26 29  1  0  0  0  0
 24 25  1  0  0  0  0
 24 26  1  0  0  0  0
M  END
$$$$
default_name
  -OEChem-02102213163D

 29 29  0     1  0  0  0  0  0999 V2000
   -3.6042   -3.5728    1.4576 H   0  0  0  0  0  0  0  0  0  0  0  0
   -3.5202   -2.6488    0.8866 C   0  0  0  0  0  0  0  0  0  0  0  0
   -4.2052   -1.9048    1.2896 H   0  0  0  0  0  0  0  0  0  0  0  0
   -3.7552   -2.8428   -0.1584 H   0  0  0  0  0  0  0  0  0  0  0  0
   -2.1052   -2.1358    0.9946 C   0  0  0  0  0  0  0  0  0  0  0  0
   -1.2852   -2.7288    1.6826 O   0  0  0  0  0  0  0  0  0  0  0  0
   -1.8202   -1.0288    0.3146 N   0  0  0  0  0  0  0  0  0  0  0  0
   -2.5542   -0.5788   -0.2104 H   0  0  0  0  0  0  0  0  0  0  0  0
   -0.5102   -0.3728    0.3086 C   0  0  1  0  0  0  0  0  0  0  0  0
    0.2354   -1.0844   -0.0490 H   0  0  0  0  0  0  0  0  0  0  0  0
   -0.5452    0.8158   -0.6698 C   0  0  0  0  0  0  0  0  0  0  0  0
   -1.5540    1.2318   -0.6908 H   0  0  0  0  0  0  0  0  0  0  0  0
    0.1310    1.5932   -0.3094 H   0  0  0  0  0  0  0  0  0  0  0  0
   -0.1478    0.4514   -2.0767 C   0  0  0  0  0  0  0  0  0  0  0  0
    0.4628    1.2809   -2.9928 N   0  0  0  0  0  0  0  0  0  0  0  0
    0.6553    2.2637   -2.8697 H   0  0  0  0  0  0  0  0  0  0  0  0
    0.7532    0.5526   -4.0840 C   0  0  0  0  0  0  0  0  0  0  0  0
    1.2327    0.9298   -4.9790 H   0  0  0  0  0  0  0  0  0  0  0  0
    0.3672   -0.7197   -3.9095 N   0  0  0  0  0  0  0  0  0  0  0  0
   -0.2105   -0.7955   -2.6394 C   0  0  0  0  0  0  0  0  0  0  0  0
   -0.6041   -1.6871   -2.1686 H   0  0  0  0  0  0  0  0  0  0  0  0
   -0.1073    0.0565    1.7296 C   0  0  0  0  0  0  0  0  0  0  0  0
    1.0285   -0.1699    2.1459 O   0  0  0  0  0  0  0  0  0  0  0  0
   -1.0395    0.6588    2.4785 N   0  0  0  0  0  0  0  0  0  0  0  0
   -1.9636    0.7597    2.0849 H   0  0  0  0  0  0  0  0  0  0  0  0
   -0.8222    1.1334    3.8425 C   0  0  0  0  0  0  0  0  0  0  0  0
   -0.0212    1.8761    3.8521 H   0  0  0  0  0  0  0  0  0  0  0  0
   -1.7349    1.5853    4.2320 H   0  0  0  0  0  0  0  0  0  0  0  0
   -0.5312    0.2997    4.4834 H   0  0  0  0  0  0  0  0  0  0  0  0
  5  6  2  0  0  0  0
  5  7  1  0  0  0  0
  2  3  1  0  0  0  0
  2  4  1  0  0  0  0
  2  5  1  0  0  0  0
  1  2  1  0  0  0  0
 22 23  2  0  0  0  0
 22 24  1  0  0  0  0
 20 21  1  0  0  0  0
 19 20  1  0  0  0  0
 17 18  1  0  0  0  0
 17 19  2  0  0  0  0
 15 16  1  0  0  0  0
 15 17  1  0  0  0  0
 14 15  1  0  0  0  0
 14 20  2  0  0  0  0
 11 12  1  0  0  0  0
 11 13  1  0  0  0  0
 11 14  1  0  0  0  0
  9 10  1  0  0  0  0
  9 11  1  0  0  0  0
  9 22  1  0  0  0  0
  7  8  1  0  0  0  0
  7  9  1  0  0  0  0
 26 27  1  0  0  0  0
 26 28  1  0  0  0  0
 26 29  1  0  0  0  0
 24 25  1  0  0  0  0
 24 26  1  0  0  0  0
M  END
$$$$
default_name
  -OEChem-02102213163D

 29 29  0     1  0  0  0  0  0999 V2000
   -3.6042   -3.5728    1.4576 H   0  0  0  0  0  0  0  0  0  0  0  0
   -3.5202   -2.6488    0.8866 C   0  0  0  0  0  0  0  0  0  0  0  0
   -4.2052   -1.9048    1.2896 H   0  0  0  0  0  0  0  0  0  0  0  0
   -3.7552   -2.8428   -0.1584 H   0  0  0  0  0  0  0  0  0  0  0  0
   -2.1052   -2.1358    0.9946 C   0  0  0  0  0  0  0  0  0  0  0  0
   -1.2852   -2.7288    1.6826 O   0  0  0  0  0  0  0  0  0  0  0  0
   -1.8202   -1.0288    0.3146 N   0  0  0  0  0  0  0  0  0  0  0  0
   -2.5542   -0.5788   -0.2104 H   0  0  0  0  0  0  0  0  0  0  0  0
   -0.5102   -0.3728    0.3086 C   0  0  1  0  0  0  0  0  0  0  0  0
    0.2354   -1.0844   -0.0490 H   0  0  0  0  0  0  0  0  0  0  0  0
   -0.5452    0.8158   -0.6698 C   0  0  0  0  0  0  0  0  0  0  0  0
   -1.5540    1.2318   -0.6908 H   0  0  0  0  0  0  0  0  0  0  0  0
    0.1310    1.5932   -0.3094 H   0  0  0  0  0  0  0  0  0  0  0  0
   -0.1478    0.4514   -2.0767 C   0  0  0  0  0  0  0  0  0  0  0  0
    0.7072    1.1609   -2.8927 N   0  0  0  0  0  0  0  0  0  0  0  0
    1.1202    2.0578   -2.6851 H   0  0  0  0  0  0  0  0  0  0  0  0
    0.8914    0.4512   -4.0187 C   0  0  0  0  0  0  0  0  0  0  0  0
    1.5096    0.7537   -4.8552 H   0  0  0  0  0  0  0  0  0  0  0  0
    0.2005   -0.6967   -3.9625 N   0  0  0  0  0  0  0  0  0  0  0  0
   -0.4672   -0.7062   -2.7351 C   0  0  0  0  0  0  0  0  0  0  0  0
   -1.0953   -1.5017   -2.3554 H   0  0  0  0  0  0  0  0  0  0  0  0
   -0.1073    0.0565    1.7296 C   0  0  0  0  0  0  0  0  0  0  0  0
    1.0285   -0.1699    2.1459 O   0  0  0  0  0  0  0  0  0  0  0  0
   -1.0395    0.6588    2.4785 N   0  0  0  0  0  0  0  0  0  0  0  0
   -1.9636    0.7597    2.0849 H   0  0  0  0  0  0  0  0  0  0  0  0
   -0.8222    1.1334    3.8425 C   0  0  0  0  0  0  0  0  0  0  0  0
   -0.0212    1.8761    3.8521 H   0  0  0  0  0  0  0  0  0  0  0  0
   -1.7349    1.5853    4.2320 H   0  0  0  0  0  0  0  0  0  0  0  0
   -0.5312    0.2997    4.4834 H   0  0  0  0  0  0  0  0  0  0  0  0
  5  6  2  0  0  0  0
  5  7  1  0  0  0  0
  2  3  1  0  0  0  0
  2  4  1  0  0  0  0
  2  5  1  0  0  0  0
  1  2  1  0  0  0  0
 22 23  2  0  0  0  0
 22 24  1  0  0  0  0
 20 21  1  0  0  0  0
 19 20  1  0  0  0  0
 17 18  1  0  0  0  0
 17 19  2  0  0  0  0
 15 16  1  0  0  0  0
 15 17  1  0  0  0  0
 14 15  1  0  0  0  0
 14 20  2  0  0  0  0
 11 12  1  0  0  0  0
 11 13  1  0  0  0  0
 11 14  1  0  0  0  0
  9 10  1  0  0  0  0
  9 11  1  0  0  0  0
  9 22  1  0  0  0  0
  7  8  1  0  0  0  0
  7  9  1  0  0  0  0
 26 27  1  0  0  0  0
 26 28  1  0  0  0  0
 26 29  1  0  0  0  0
 24 25  1  0  0  0  0
 24 26  1  0  0  0  0
M  END
$$$$
default_name
  -OEChem-02102213163D

 29 29  0     1  0  0  0  0  0999 V2000
   -3.6042   -3.5728    1.4576 H   0  0  0  0  0  0  0  0  0  0  0  0
   -3.5202   -2.6488    0.8866 C   0  0  0  0  0  0  0  0  0  0  0  0
   -4.2052   -1.9048    1.2896 H   0  0  0  0  0  0  0  0  0  0  0  0
   -3.7552   -2.8428   -0.1584 H   0  0  0  0  0  0  0  0  0  0  0  0
   -2.1052   -2.1358    0.9946 C   0  0  0  0  0  0  0  0  0  0  0  0
   -1.2852   -2.7288    1.6826 O   0  0  0  0  0  0  0  0  0  0  0  0
   -1.8202   -1.0288    0.3146 N   0  0  0  0  0  0  0  0  0  0  0  0
   -2.5542   -0.5788   -0.2104 H   0  0  0  0  0  0  0  0  0  0  0  0
   -0.5102   -0.3728    0.3086 C   0  0  1  0  0  0  0  0  0  0  0  0
    0.2354   -1.0844   -0.0490 H   0  0  0  0  0  0  0  0  0  0  0  0
   -0.5452    0.8158   -0.6698 C   0  0  0  0  0  0  0  0  0  0  0  0
   -1.5540    1.2318   -0.6908 H   0  0  0  0  0  0  0  0  0  0  0  0
    0.1310    1.5932   -0.3094 H   0  0  0  0  0  0  0  0  0  0  0  0
   -0.1478    0.4514   -2.0767 C   0  0  0  0  0  0  0  0  0  0  0  0
    0.9079    0.9791   -2.7889 N   0  0  0  0  0  0  0  0  0  0  0  0
    1.5079    1.7339   -2.4916 H   0  0  0  0  0  0  0  0  0  0  0  0
    0.9963    0.3155   -3.9539 C   0  0  0  0  0  0  0  0  0  0  0  0
    1.7267    0.5081   -4.7302 H   0  0  0  0  0  0  0  0  0  0  0  0
    0.0483   -0.6306   -4.0226 N   0  0  0  0  0  0  0  0  0  0  0  0
   -0.6876   -0.5512   -2.8375 C   0  0  0  0  0  0  0  0  0  0  0  0
   -1.5132   -1.1911   -2.5539 H   0  0  0  0  0  0  0  0  0  0  0  0
   -0.1073    0.0565    1.7296 C   0  0  0  0  0  0  0  0  0  0  0  0
    1.0285   -0.1699    2.1459 O   0  0  0  0  0  0  0  0  0  0  0  0
   -1.0395    0.6588    2.4785 N   0  0  0  0  0  0  0  0  0  0  0  0
   -1.9636    0.7597    2.0849 H   0  0  0  0  0  0  0  0  0  0  0  0
   -0.8222    1.1334    3.8425 C   0  0  0  0  0  0  0  0  0  0  0  0
   -0.0212    1.8761    3.8521 H   0  0  0  0  0  0  0  0  0  0  0  0
   -1.7349    1.5853    4.2320 H   0  0  0  0  0  0  0  0  0  0  0  0
   -0.5312    0.2997    4.4834 H   0  0  0  0  0  0  0  0  0  0  0  0
  5  6  2  0  0  0  0
  5  7  1  0  0  0  0
  2  3  1  0  0  0  0
  2  4  1  0  0  0  0
  2  5  1  0  0  0  0
  1  2  1  0  0  0  0
 22 23  2  0  0  0  0
 22 24  1  0  0  0  0
 20 21  1  0  0  0  0
 19 20  1  0  0  0  0
 17 18  1  0  0  0  0
 17 19  2  0  0  0  0
 15 16  1  0  0  0  0
 15 17  1  0  0  0  0
 14 15  1  0  0  0  0
 14 20  2  0  0  0  0
 11 12  1  0  0  0  0
 11 13  1  0  0  0  0
 11 14  1  0  0  0  0
  9 10  1  0  0  0  0
  9 11  1  0  0  0  0
  9 22  1  0  0  0  0
  7  8  1  0  0  0  0
  7  9  1  0  0  0  0
 26 27  1  0  0  0  0
 26 28  1  0  0  0  0
 26 29  1  0  0  0  0
 24 25  1  0  0  0  0
 24 26  1  0  0  0  0
M  END
$$$$
default_name
  -OEChem-02102213163D

 29 29  0     1  0  0  0  0  0999 V2000
   -3.6042   -3.5728    1.4576 H   0  0  0  0  0  0  0  0  0  0  0  0
   -3.5202   -2.6488    0.8866 C   0  0  0  0  0  0  0  0  0  0  0  0
   -4.2052   -1.9048    1.2896 H   0  0  0  0  0  0  0  0  0  0  0  0
   -3.7552   -2.8428   -0.1584 H   0  0  0  0  0  0  0  0  0  0  0  0
   -2.1052   -2.1358    0.9946 C   0  0  0  0  0  0  0  0  0  0  0  0
   -1.2852   -2.7288    1.6826 O   0  0  0  0  0  0  0  0  0  0  0  0
   -1.8202   -1.0288    0.3146 N   0  0  0  0  0  0  0  0  0  0  0  0
   -2.5542   -0.5788   -0.2104 H   0  0  0  0  0  0  0  0  0  0  0  0
   -0.5102   -0.3728    0.3086 C   0  0  1  0  0  0  0  0  0  0  0  0
    0.2354   -1.0844   -0.0490 H   0  0  0  0  0  0  0  0  0  0  0  0
   -0.5452    0.8158   -0.6698 C   0  0  0  0  0  0  0  0  0  0  0  0
   -1.5540    1.2318   -0.6908 H   0  0  0  0  0  0  0  0  0  0  0  0
    0.1310    1.5932   -0.3094 H   0  0  0  0  0  0  0  0  0  0  0  0
   -0.1478    0.4514   -2.0767 C   0  0  0  0  0  0  0  0  0  0  0  0
    1.0514    0.7478   -2.6885 N   0  0  0  0  0  0  0  0  0  0  0  0
    1.7921    1.3141   -2.3027 H   0  0  0  0  0  0  0  0  0  0  0  0
    1.0607    0.1546   -3.8940 C   0  0  0  0  0  0  0  0  0  0  0  0
    1.8692    0.2100   -4.6127 H   0  0  0  0  0  0  0  0  0  0  0  0
   -0.0788   -0.5258   -4.0857 N   0  0  0  0  0  0  0  0  0  0  0  0
   -0.8566   -0.3414   -2.9396 C   0  0  0  0  0  0  0  0  0  0  0  0
   -1.8294   -0.7765   -2.7506 H   0  0  0  0  0  0  0  0  0  0  0  0
   -0.1073    0.0565    1.7296 C   0  0  0  0  0  0  0  0  0  0  0  0
    1.0285   -0.1699    2.1459 O   0  0  0  0  0  0  0  0  0  0  0  0
   -1.0395    0.6588    2.4785 N   0  0  0  0  0  0  0  0  0  0  0  0
   -1.9636    0.7597    2.0849 H   0  0  0  0  0  0  0  0  0  0  0  0
   -0.8222    1.1334    3.8425 C   0  0  0  0  0  0  0  0  0  0  0  0
   -0.0212    1.8761    3.8521 H   0  0  0  0  0  0  0  0  0  0  0  0
   -1.7349    1.5853    4.2320 H   0  0  0  0  0  0  0  0  0  0  0  0
   -0.5312    0.2997    4.4834 H   0  0  0  0  0  0  0  0  0  0  0  0
  5  6  2  0  0  0  0
  5  7  1  0  0  0  0
  2  3  1  0  0  0  0
  2  4  1  0  0  0  0
  2  5  1  0  0  0  0
  1  2  1  0  0  0  0
 22 23  2  0  0  0  0
 22 24  1  0  0  0  0
 20 21  1  0  0  0  0
 19 20  1  0  0  0  0
 17 18  1  0  0  0  0
 17 19  2  0  0  0  0
 15 16  1  0  0  0  0
 15 17  1  0  0  0  0
 14 15  1  0  0  0  0
 14 20  2  0  0  0  0
 11 12  1  0  0  0  0
 11 13  1  0  0  0  0
 11 14  1  0  0  0  0
  9 10  1  0  0  0  0
  9 11  1  0  0  0  0
  9 22  1  0  0  0  0
  7  8  1  0  0  0  0
  7  9  1  0  0  0  0
 26 27  1  0  0  0  0
 26 28  1  0  0  0  0
 26 29  1  0  0  0  0
 24 25  1  0  0  0  0
 24 26  1  0  0  0  0
M  END
$$$$
default_name
  -OEChem-02102213163D

 29 29  0     1  0  0  0  0  0999 V2000
   -3.6042   -3.5728    1.4576 H   0  0  0  0  0  0  0  0  0  0  0  0
   -3.5202   -2.6488    0.8866 C   0  0  0  0  0  0  0  0  0  0  0  0
   -4.2052   -1.9048    1.2896 H   0  0  0  0  0  0  0  0  0  0  0  0
   -3.7552   -2.8428   -0.1584 H   0  0  0  0  0  0  0  0  0  0  0  0
   -2.1052   -2.1358    0.9946 C   0  0  0  0  0  0  0  0  0  0  0  0
   -1.2852   -2.7288    1.6826 O   0  0  0  0  0  0  0  0  0  0  0  0
   -1.8202   -1.0288    0.3146 N   0  0  0  0  0  0  0  0  0  0  0  0
   -2.5542   -0.5788   -0.2104 H   0  0  0  0  0  0  0  0  0  0  0  0
   -0.5102   -0.3728    0.3086 C   0  0  1  0  0  0  0  0  0  0  0  0
    0.2354   -1.0844   -0.0490 H   0  0  0  0  0  0  0  0  0  0  0  0
   -0.5452    0.8158   -0.6698 C   0  0  0  0  0  0  0  0  0  0  0  0
   -1.5540    1.2318   -0.6908 H   0  0  0  0  0  0  0  0  0  0  0  0
    0.1310    1.5932   -0.3094 H   0  0  0  0  0  0  0  0  0  0  0  0
   -0.1478    0.4514   -2.0767 C   0  0  0  0  0  0  0  0  0  0  0  0
    1.1278    0.4830   -2.5983 N   0  0  0  0  0  0  0  0  0  0  0  0
    1.9532    0.8271   -2.1310 H   0  0  0  0  0  0  0  0  0  0  0  0
    1.0804   -0.0205   -3.8431 C   0  0  0  0  0  0  0  0  0  0  0  0
    1.9275   -0.1205   -4.5106 H   0  0  0  0  0  0  0  0  0  0  0  0
   -0.1724   -0.3896   -4.1474 N   0  0  0  0  0  0  0  0  0  0  0  0
   -0.9627   -0.0908   -3.0344 C   0  0  0  0  0  0  0  0  0  0  0  0
   -2.0223   -0.2862   -2.9321 H   0  0  0  0  0  0  0  0  0  0  0  0
   -0.1073    0.0565    1.7296 C   0  0  0  0  0  0  0  0  0  0  0  0
    1.0285   -0.1699    2.1459 O   0  0  0  0  0  0  0  0  0  0  0  0
   -1.0395    0.6588    2.4785 N   0  0  0  0  0  0  0  0  0  0  0  0
   -1.9636    0.7597    2.0849 H   0  0  0  0  0  0  0  0  0  0  0  0
   -0.8222    1.1334    3.8425 C   0  0  0  0  0  0  0  0  0  0  0  0
   -0.0212    1.8761    3.8521 H   0  0  0  0  0  0  0  0  0  0  0  0
   -1.7349    1.5853    4.2320 H   0  0  0  0  0  0  0  0  0  0  0  0
   -0.5312    0.2997    4.4834 H   0  0  0  0  0  0  0  0  0  0  0  0
  5  6  2  0  0  0  0
  5  7  1  0  0  0  0
  2  3  1  0  0  0  0
  2  4  1  0  0  0  0
  2  5  1  0  0  0  0
  1  2  1  0  0  0  0
 22 23  2  0  0  0  0
 22 24  1  0  0  0  0
 20 21  1  0  0  0  0
 19 20  1  0  0  0  0
 17 18  1  0  0  0  0
 17 19  2  0  0  0  0
 15 16  1  0  0  0  0
 15 17  1  0  0  0  0
 14 15  1  0  0  0  0
 14 20  2  0  0  0  0
 11 12  1  0  0  0  0
 11 13  1  0  0  0  0
 11 14  1  0  0  0  0
  9 10  1  0  0  0  0
  9 11  1  0  0  0  0
  9 22  1  0  0  0  0
  7  8  1  0  0  0  0
  7  9  1  0  0  0  0
 26 27  1  0  0  0  0
 26 28  1  0  0  0  0
 26 29  1  0  0  0  0
 24 25  1  0  0  0  0
 24 26  1  0  0  0  0
M  END
$$$$
default_name
  -OEChem-02102213163D

 29 29  0     1  0  0  0  0  0999 V2000
   -3.6042   -3.5728    1.4576 H   0  0  0  0  0  0  0  0  0  0  0  0
   -3.5202   -2.6488    0.8866 C   0  0  0  0  0  0  0  0  0  0  0  0
   -4.2052   -1.9048    1.2896 H   0  0  0  0  0  0  0  0  0  0  0  0
   -3.7552   -2.8428   -0.1584 H   0  0  0  0  0  0  0  0  0  0  0  0
   -2.1052   -2.1358    0.9946 C   0  0  0  0  0  0  0  0  0  0  0  0
   -1.2852   -2.7288    1.6826 O   0  0  0  0  0  0  0  0  0  0  0  0
   -1.8202   -1.0288    0.3146 N   0  0  0  0  0  0  0  0  0  0  0  0
   -2.5542   -0.5788   -0.2104 H   0  0  0  0  0  0  0  0  0  0  0  0
   -0.5102   -0.3728    0.3086 C   0  0  1  0  0  0  0  0  0  0  0  0
    0.2354   -1.0844   -0.0490 H   0  0  0  0  0  0  0  0  0  0  0  0
   -0.5452    0.8158   -0.6698 C   0  0  0  0  0  0  0  0  0  0  0  0
   -1.5540    1.2318   -0.6908 H   0  0  0  0  0  0  0  0  0  0  0  0
    0.1310    1.5932   -0.3094 H   0  0  0  0  0  0  0  0  0  0  0  0
   -0.1478    0.4514   -2.0767 C   0  0  0  0  0  0  0  0  0  0  0  0
    1.1320    0.2025   -2.5244 N   0  0  0  0  0  0  0  0  0  0  0  0
    1.9805    0.3060   -1.9883 H   0  0  0  0  0  0  0  0  0  0  0  0
    1.0538   -0.1979   -3.8047 C   0  0  0  0  0  0  0  0  0  0  0  0
    1.8975   -0.4608   -4.4310 H   0  0  0  0  0  0  0  0  0  0  0  0
   -0.2261   -0.2312   -4.2036 N   0  0  0  0  0  0  0  0  0  0  0  0
   -0.9988    0.1833   -3.1156 C   0  0  0  0  0  0  0  0  0  0  0  0
   -2.0788    0.2464   -3.0860 H   0  0  0  0  0  0  0  0  0  0  0  0
   -0.1073    0.0565    1.7296 C   0  0  0  0  0  0  0  0  0  0  0  0
    1.0285   -0.1699    2.1459 O   0  0  0  0  0  0  0  0  0  0  0  0
   -1.0395    0.6588    2.4785 N   0  0  0  0  0  0  0  0  0  0  0  0
   -1.9636    0.7597    2.0849 H   0  0  0  0  0  0  0  0  0  0  0  0
   -0.8222    1.1334    3.8425 C   0  0  0  0  0  0  0  0  0  0  0  0
   -0.0212    1.8761    3.8521 H   0  0  0  0  0  0  0  0  0  0  0  0
   -1.7349    1.5853    4.2320 H   0  0  0  0  0  0  0  0  0  0  0  0
   -0.5312    0.2997    4.4834 H   0  0  0  0  0  0  0  0  0  0  0  0
  5  6  2  0  0  0  0
  5  7  1  0  0  0  0
  2  3  1  0  0  0  0
  2  4  1  0  0  0  0
  2  5  1  0  0  0  0
  1  2  1  0  0  0  0
 22 23  2  0  0  0  0
 22 24  1  0  0  0  0
 20 21  1  0  0  0  0
 19 20  1  0  0  0  0
 17 18  1  0  0  0  0
 17 19  2  0  0  0  0
 15 16  1  0  0  0  0
 15 17  1  0  0  0  0
 14 15  1  0  0  0  0
 14 20  2  0  0  0  0
 11 12  1  0  0  0  0
 11 13  1  0  0  0  0
 11 14  1  0  0  0  0
  9 10  1  0  0  0  0
  9 11  1  0  0  0  0
  9 22  1  0  0  0  0
  7  8  1  0  0  0  0
  7  9  1  0  0  0  0
 26 27  1  0  0  0  0
 26 28  1  0  0  0  0
 26 29  1  0  0  0  0
 24 25  1  0  0  0  0
 24 26  1  0  0  0  0
M  END
$$$$
default_name
  -OEChem-02102213163D

 29 29  0     1  0  0  0  0  0999 V2000
   -3.6042   -3.5728    1.4576 H   0  0  0  0  0  0  0  0  0  0  0  0
   -3.5202   -2.6488    0.8866 C   0  0  0  0  0  0  0  0  0  0  0  0
   -4.2052   -1.9048    1.2896 H   0  0  0  0  0  0  0  0  0  0  0  0
   -3.7552   -2.8428   -0.1584 H   0  0  0  0  0  0  0  0  0  0  0  0
   -2.1052   -2.1358    0.9946 C   0  0  0  0  0  0  0  0  0  0  0  0
   -1.2852   -2.7288    1.6826 O   0  0  0  0  0  0  0  0  0  0  0  0
   -1.8202   -1.0288    0.3146 N   0  0  0  0  0  0  0  0  0  0  0  0
   -2.5542   -0.5788   -0.2104 H   0  0  0  0  0  0  0  0  0  0  0  0
   -0.5102   -0.3728    0.3086 C   0  0  1  0  0  0  0  0  0  0  0  0
    0.2354   -1.0844   -0.0490 H   0  0  0  0  0  0  0  0  0  0  0  0
   -0.5452    0.8158   -0.6698 C   0  0  0  0  0  0  0  0  0  0  0  0
   -1.5540    1.2318   -0.6908 H   0  0  0  0  0  0  0  0  0  0  0  0
    0.1310    1.5932   -0.3094 H   0  0  0  0  0  0  0  0  0  0  0  0
   -0.1478    0.4514   -2.0767 C   0  0  0  0  0  0  0  0  0  0  0  0
    1.0636   -0.0745   -2.4720 N   0  0  0  0  0  0  0  0  0  0  0  0
    1.8719   -0.2137   -1.8843 H   0  0  0  0  0  0  0  0  0  0  0  0
    0.9829   -0.3654   -3.7813 C   0  0  0  0  0  0  0  0  0  0  0  0
    1.7814   -0.7877   -4.3791 H   0  0  0  0  0  0  0  0  0  0  0  0
   -0.2360   -0.0614   -4.2504 N   0  0  0  0  0  0  0  0  0  0  0  0
   -0.9622    0.4624   -3.1776 C   0  0  0  0  0  0  0  0  0  0  0  0
   -1.9951    0.7850   -3.2019 H   0  0  0  0  0  0  0  0  0  0  0  0
   -0.1073    0.0565    1.7296 C   0  0  0  0  0  0  0  0  0  0  0  0
    1.0285   -0.1699    2.1459 O   0  0  0  0  0  0  0  0  0  0  0  0
   -1.0395    0.6588    2.4785 N   0  0  0  0  0  0  0  0  0  0  0  0
   -1.9636    0.7597    2.0849 H   0  0  0  0  0  0  0  0  0  0  0  0
   -0.8222    1.1334    3.8425 C   0  0  0  0  0  0  0  0  0  0  0  0
   -0.0212    1.8761    3.8521 H   0  0  0  0  0  0  0  0  0  0  0  0
   -1.7349    1.5853    4.2320 H   0  0  0  0  0  0  0  0  0  0  0  0
   -0.5312    0.2997    4.4834 H   0  0  0  0  0  0  0  0  0  0  0  0
  5  6  2  0  0  0  0
  5  7  1  0  0  0  0
  2  3  1  0  0  0  0
  2  4  1  0  0  0  0
  2  5  1  0  0  0  0
  1  2  1  0  0  0  0
 22 23  2  0  0  0  0
 22 24  1  0  0  0  0
 20 21  1  0  0  0  0
 19 20  1  0  0  0  0
 17 18  1  0  0  0  0
 17 19  2  0  0  0  0
 15 16  1  0  0  0  0
 15 17  1  0  0  0  0
 14 15  1  0  0  0  0
 14 20  2  0  0  0  0
 11 12  1  0  0  0  0
 11 13  1  0  0  0  0
 11 14  1  0  0  0  0
  9 10  1  0  0  0  0
  9 11  1  0  0  0  0
  9 22  1  0  0  0  0
  7  8  1  0  0  0  0
  7  9  1  0  0  0  0
 26 27  1  0  0  0  0
 26 28  1  0  0  0  0
 26 29  1  0  0  0  0
 24 25  1  0  0  0  0
 24 26  1  0  0  0  0
M  END
$$$$
default_name
  -OEChem-02102213163D

 29 29  0     1  0  0  0  0  0999 V2000
   -3.6042   -3.5728    1.4576 H   0  0  0  0  0  0  0  0  0  0  0  0
   -3.5202   -2.6488    0.8866 C   0  0  0  0  0  0  0  0  0  0  0  0
   -4.2052   -1.9048    1.2896 H   0  0  0  0  0  0  0  0  0  0  0  0
   -3.7552   -2.8428   -0.1584 H   0  0  0  0  0  0  0  0  0  0  0  0
   -2.1052   -2.1358    0.9946 C   0  0  0  0  0  0  0  0  0  0  0  0
   -1.2852   -2.7288    1.6826 O   0  0  0  0  0  0  0  0  0  0  0  0
   -1.8202   -1.0288    0.3146 N   0  0  0  0  0  0  0  0  0  0  0  0
   -2.5542   -0.5788   -0.2104 H   0  0  0  0  0  0  0  0  0  0  0  0
   -0.5102   -0.3728    0.3086 C   0  0  1  0  0  0  0  0  0  0  0  0
    0.2354   -1.0844   -0.0490 H   0  0  0  0  0  0  0  0  0  0  0  0
   -0.5452    0.8158   -0.6698 C   0  0  0  0  0  0  0  0  0  0  0  0
   -1.5540    1.2318   -0.6908 H   0  0  0  0  0  0  0  0  0  0  0  0
    0.1310    1.5932   -0.3094 H   0  0  0  0  0  0  0  0  0  0  0  0
   -0.1478    0.4514   -2.0767 C   0  0  0  0  0  0  0  0  0  0  0  0
    0.9273   -0.3290   -2.4446 N   0  0  0  0  0  0  0  0  0  0  0  0
    1.6349   -0.6965   -1.8262 H   0  0  0  0  0  0  0  0  0  0  0  0
    0.8725   -0.5117   -3.7746 C   0  0  0  0  0  0  0  0  0  0  0  0
    1.5869   -1.0789   -4.3586 H   0  0  0  0  0  0  0  0  0  0  0  0
   -0.2017    0.1083   -4.2846 N   0  0  0  0  0  0  0  0  0  0  0  0
   -0.8556    0.7273   -3.2161 C   0  0  0  0  0  0  0  0  0  0  0  0
   -1.7767    1.2929   -3.2718 H   0  0  0  0  0  0  0  0  0  0  0  0
   -0.1073    0.0565    1.7296 C   0  0  0  0  0  0  0  0  0  0  0  0
    1.0285   -0.1699    2.1459 O   0  0  0  0  0  0  0  0  0  0  0  0
   -1.0395    0.6588    2.4785 N   0  0  0  0  0  0  0  0  0  0  0  0
   -1.9636    0.7597    2.0849 H   0  0  0  0  0  0  0  0  0  0  0  0
   -0.8222    1.1334    3.8425 C   0  0  0  0  0  0  0  0  0  0  0  0
   -0.0212    1.8761    3.8521 H   0  0  0  0  0  0  0  0  0  0  0  0
   -1.7349    1.5853    4.2320 H   0  0  0  0  0  0  0  0  0  0  0  0
   -0.5312    0.2997    4.4834 H   0  0  0  0  0  0  0  0  0  0  0  0
  5  6  2  0  0  0  0
  5  7  1  0  0  0  0
  2  3  1  0  0  0  0
  2  4  1  0  0  0  0
  2  5  1  0  0  0  0
  1  2  1  0  0  0  0
 22 23  2  0  0  0  0
 22 24  1  0  0  0  0
 20 21  1  0  0  0  0
 19 20  1  0  0  0  0
 17 18  1  0  0  0  0
 17 19  2  0  0  0  0
 15 16  1  0  0  0  0
 15 17  1  0  0  0  0
 14 15  1  0  0  0  0
 14 20  2  0  0  0  0
 11 12  1  0  0  0  0
 11 13  1  0  0  0  0
 11 14  1  0  0  0  0
  9 10  1  0  0  0  0
  9 11  1  0  0  0  0
  9 22  1  0  0  0  0
  7  8  1  0  0  0  0
  7  9  1  0  0  0  0
 26 27  1  0  0  0  0
 26 28  1  0  0  0  0
 26 29  1  0  0  0  0
 24 25  1  0  0  0  0
 24 26  1  0  0  0  0
M  END
$$$$
default_name
  -OEChem-02102213163D

 29 29  0     1  0  0  0  0  0999 V2000
   -3.6042   -3.5728    1.4576 H   0  0  0  0  0  0  0  0  0  0  0  0
   -3.5202   -2.6488    0.8866 C   0  0  0  0  0  0  0  0  0  0  0  0
   -4.2052   -1.9048    1.2896 H   0  0  0  0  0  0  0  0  0  0  0  0
   -3.7552   -2.8428   -0.1584 H   0  0  0  0  0  0  0  0  0  0  0  0
   -2.1052   -2.1358    0.9946 C   0  0  0  0  0  0  0  0  0  0  0  0
   -1.2852   -2.7288    1.6826 O   0  0  0  0  0  0  0  0  0  0  0  0
   -1.8202   -1.0288    0.3146 N   0  0  0  0  0  0  0  0  0  0  0  0
   -2.5542   -0.5788   -0.2104 H   0  0  0  0  0  0  0  0  0  0  0  0
   -0.5102   -0.3728    0.3086 C   0  0  1  0  0  0  0  0  0  0  0  0
    0.2354   -1.0844   -0.0490 H   0  0  0  0  0  0  0  0  0  0  0  0
   -0.5452    0.8158   -0.6698 C   0  0  0  0  0  0  0  0  0  0  0  0
   -1.5540    1.2318   -0.6908 H   0  0  0  0  0  0  0  0  0  0  0  0
    0.1310    1.5932   -0.3094 H   0  0  0  0  0  0  0  0  0  0  0  0
   -0.1478    0.4514   -2.0767 C   0  0  0  0  0  0  0  0  0  0  0  0
    0.7324   -0.5439   -2.4440 N   0  0  0  0  0  0  0  0  0  0  0  0
    1.2857   -1.1095   -1.8179 H   0  0  0  0  0  0  0  0  0  0  0  0
    0.7300   -0.6267   -3.7851 C   0  0  0  0  0  0  0  0  0  0  0  0
    1.3274   -1.3146   -4.3708 H   0  0  0  0  0  0  0  0  0  0  0  0
   -0.1254    0.2662   -4.3040 N   0  0  0  0  0  0  0  0  0  0  0  0
   -0.6862    0.9601   -3.2285 C   0  0  0  0  0  0  0  0  0  0  0  0
   -1.4387    1.7355   -3.2909 H   0  0  0  0  0  0  0  0  0  0  0  0
   -0.1073    0.0565    1.7296 C   0  0  0  0  0  0  0  0  0  0  0  0
    1.0285   -0.1699    2.1459 O   0  0  0  0  0  0  0  0  0  0  0  0
   -1.0395    0.6588    2.4785 N   0  0  0  0  0  0  0  0  0  0  0  0
   -1.9636    0.7597    2.0849 H   0  0  0  0  0  0  0  0  0  0  0  0
   -0.8222    1.1334    3.8425 C   0  0  0  0  0  0  0  0  0  0  0  0
   -0.0212    1.8761    3.8521 H   0  0  0  0  0  0  0  0  0  0  0  0
   -1.7349    1.5853    4.2320 H   0  0  0  0  0  0  0  0  0  0  0  0
   -0.5312    0.2997    4.4834 H   0  0  0  0  0  0  0  0  0  0  0  0
  5  6  2  0  0  0  0
  5  7  1  0  0  0  0
  2  3  1  0  0  0  0
  2  4  1  0  0  0  0
  2  5  1  0  0  0  0
  1  2  1  0  0  0  0
 22 23  2  0  0  0  0
 22 24  1  0  0  0  0
 20 21  1  0  0  0  0
 19 20  1  0  0  0  0
 17 18  1  0  0  0  0
 17 19  2  0  0  0  0
 15 16  1  0  0  0  0
 15 17  1  0  0  0  0
 14 15  1  0  0  0  0
 14 20  2  0  0  0  0
 11 12  1  0  0  0  0
 11 13  1  0  0  0  0
 11 14  1  0  0  0  0
  9 10  1  0  0  0  0
  9 11  1  0  0  0  0
  9 22  1  0  0  0  0
  7  8  1  0  0  0  0
  7  9  1  0  0  0  0
 26 27  1  0  0  0  0
 26 28  1  0  0  0  0
 26 29  1  0  0  0  0
 24 25  1  0  0  0  0
 24 26  1  0  0  0  0
M  END
$$$$
default_name
  -OEChem-02102213163D

 29 29  0     1  0  0  0  0  0999 V2000
   -3.6042   -3.5728    1.4576 H   0  0  0  0  0  0  0  0  0  0  0  0
   -3.5202   -2.6488    0.8866 C   0  0  0  0  0  0  0  0  0  0  0  0
   -4.2052   -1.9048    1.2896 H   0  0  0  0  0  0  0  0  0  0  0  0
   -3.7552   -2.8428   -0.1584 H   0  0  0  0  0  0  0  0  0  0  0  0
   -2.1052   -2.1358    0.9946 C   0  0  0  0  0  0  0  0  0  0  0  0
   -1.2852   -2.7288    1.6826 O   0  0  0  0  0  0  0  0  0  0  0  0
   -1.8202   -1.0288    0.3146 N   0  0  0  0  0  0  0  0  0  0  0  0
   -2.5542   -0.5788   -0.2104 H   0  0  0  0  0  0  0  0  0  0  0  0
   -0.5102   -0.3728    0.3086 C   0  0  1  0  0  0  0  0  0  0  0  0
    0.2354   -1.0844   -0.0490 H   0  0  0  0  0  0  0  0  0  0  0  0
   -0.5452    0.8158   -0.6698 C   0  0  0  0  0  0  0  0  0  0  0  0
   -1.5540    1.2318   -0.6908 H   0  0  0  0  0  0  0  0  0  0  0  0
    0.1310    1.5932   -0.3094 H   0  0  0  0  0  0  0  0  0  0  0  0
   -0.1478    0.4514   -2.0767 C   0  0  0  0  0  0  0  0  0  0  0  0
    0.4922   -0.7043   -2.4702 N   0  0  0  0  0  0  0  0  0  0  0  0
    0.8481   -1.4247   -1.8598 H   0  0  0  0  0  0  0  0  0  0  0  0
    0.5653   -0.7027   -3.8119 C   0  0  0  0  0  0  0  0  0  0  0  0
    1.0206   -1.4787   -4.4150 H   0  0  0  0  0  0  0  0  0  0  0  0
   -0.0124    0.4016   -4.3071 N   0  0  0  0  0  0  0  0  0  0  0  0
   -0.4655    1.1448   -3.2141 C   0  0  0  0  0  0  0  0  0  0  0  0
   -1.0040    2.0826   -3.2581 H   0  0  0  0  0  0  0  0  0  0  0  0
   -0.1073    0.0565    1.7296 C   0  0  0  0  0  0  0  0  0  0  0  0
    1.0285   -0.1699    2.1459 O   0  0  0  0  0  0  0  0  0  0  0  0
   -1.0395    0.6588    2.4785 N   0  0  0  0  0  0  0  0  0  0  0  0
   -1.9636    0.7597    2.0849 H   0  0  0  0  0  0  0  0  0  0  0  0
   -0.8222    1.1334    3.8425 C   0  0  0  0  0  0  0  0  0  0  0  0
   -0.0212    1.8761    3.8521 H   0  0  0  0  0  0  0  0  0  0  0  0
   -1.7349    1.5853    4.2320 H   0  0  0  0  0  0  0  0  0  0  0  0
   -0.5312    0.2997    4.4834 H   0  0  0  0  0  0  0  0  0  0  0  0
  5  6  2  0  0  0  0
  5  7  1  0  0  0  0
  2  3  1  0  0  0  0
  2  4  1  0  0  0  0
  2  5  1  0  0  0  0
  1  2  1  0  0  0  0
 22 23  2  0  0  0  0
 22 24  1  0  0  0  0
 20 21  1  0  0  0  0
 19 20  1  0  0  0  0
 17 18  1  0  0  0  0
 17 19  2  0  0  0  0
 15 16  1  0  0  0  0
 15 17  1  0  0  0  0
 14 15  1  0  0  0  0
 14 20  2  0  0  0  0
 11 12  1  0  0  0  0
 11 13  1  0  0  0  0
 11 14  1  0  0  0  0
  9 10  1  0  0  0  0
  9 11  1  0  0  0  0
  9 22  1  0  0  0  0
  7  8  1  0  0  0  0
  7  9  1  0  0  0  0
 26 27  1  0  0  0  0
 26 28  1  0  0  0  0
 26 29  1  0  0  0  0
 24 25  1  0  0  0  0
 24 26  1  0  0  0  0
M  END
$$$$
default_name
  -OEChem-02102213163D

 29 29  0     1  0  0  0  0  0999 V2000
   -3.6042   -3.5728    1.4576 H   0  0  0  0  0  0  0  0  0  0  0  0
   -3.5202   -2.6488    0.8866 C   0  0  0  0  0  0  0  0  0  0  0  0
   -4.2052   -1.9048    1.2896 H   0  0  0  0  0  0  0  0  0  0  0  0
   -3.7552   -2.8428   -0.1584 H   0  0  0  0  0  0  0  0  0  0  0  0
   -2.1052   -2.1358    0.9946 C   0  0  0  0  0  0  0  0  0  0  0  0
   -1.2852   -2.7288    1.6826 O   0  0  0  0  0  0  0  0  0  0  0  0
   -1.8202   -1.0288    0.3146 N   0  0  0  0  0  0  0  0  0  0  0  0
   -2.5542   -0.5788   -0.2104 H   0  0  0  0  0  0  0  0  0  0  0  0
   -0.5102   -0.3728    0.3086 C   0  0  1  0  0  0  0  0  0  0  0  0
    0.2354   -1.0844   -0.0490 H   0  0  0  0  0  0  0  0  0  0  0  0
   -0.5452    0.8158   -0.6698 C   0  0  0  0  0  0  0  0  0  0  0  0
   -1.5540    1.2318   -0.6908 H   0  0  0  0  0  0  0  0  0  0  0  0
    0.1310    1.5932   -0.3094 H   0  0  0  0  0  0  0  0  0  0  0  0
   -0.1478    0.4514   -2.0767 C   0  0  0  0  0  0  0  0  0  0  0  0
    0.2231   -0.7995   -2.5216 N   0  0  0  0  0  0  0  0  0  0  0  0
    0.3518   -1.6205   -1.9493 H   0  0  0  0  0  0  0  0  0  0  0  0
    0.3895   -0.7344   -3.8533 C   0  0  0  0  0  0  0  0  0  0  0  0
    0.6873   -1.5601   -4.4881 H   0  0  0  0  0  0  0  0  0  0  0  0
    0.1298    0.5053   -4.2938 N   0  0  0  0  0  0  0  0  0  0  0  0
   -0.2086    1.2689   -3.1736 C   0  0  0  0  0  0  0  0  0  0  0  0
   -0.5023    2.3107   -3.1754 H   0  0  0  0  0  0  0  0  0  0  0  0
   -0.1073    0.0565    1.7296 C   0  0  0  0  0  0  0  0  0  0  0  0
    1.0285   -0.1699    2.1459 O   0  0  0  0  0  0  0  0  0  0  0  0
   -1.0395    0.6588    2.4785 N   0  0  0  0  0  0  0  0  0  0  0  0
   -1.9636    0.7597    2.0849 H   0  0  0  0  0  0  0  0  0  0  0  0
   -0.8222    1.1334    3.8425 C   0  0  0  0  0  0  0  0  0  0  0  0
   -0.0212    1.8761    3.8521 H   0  0  0  0  0  0  0  0  0  0  0  0
   -1.7349    1.5853    4.2320 H   0  0  0  0  0  0  0  0  0  0  0  0
   -0.5312    0.2997    4.4834 H   0  0  0  0  0  0  0  0  0  0  0  0
  5  6  2  0  0  0  0
  5  7  1  0  0  0  0
  2  3  1  0  0  0  0
  2  4  1  0  0  0  0
  2  5  1  0  0  0  0
  1  2  1  0  0  0  0
 22 23  2  0  0  0  0
 22 24  1  0  0  0  0
 20 21  1  0  0  0  0
 19 20  1  0  0  0  0
 17 18  1  0  0  0  0
 17 19  2  0  0  0  0
 15 16  1  0  0  0  0
 15 17  1  0  0  0  0
 14 15  1  0  0  0  0
 14 20  2  0  0  0  0
 11 12  1  0  0  0  0
 11 13  1  0  0  0  0
 11 14  1  0  0  0  0
  9 10  1  0  0  0  0
  9 11  1  0  0  0  0
  9 22  1  0  0  0  0
  7  8  1  0  0  0  0
  7  9  1  0  0  0  0
 26 27  1  0  0  0  0
 26 28  1  0  0  0  0
 26 29  1  0  0  0  0
 24 25  1  0  0  0  0
 24 26  1  0  0  0  0
M  END
$$$$
default_name
  -OEChem-02102213163D

 29 29  0     1  0  0  0  0  0999 V2000
   -3.6042   -3.5728    1.4576 H   0  0  0  0  0  0  0  0  0  0  0  0
   -3.5202   -2.6488    0.8866 C   0  0  0  0  0  0  0  0  0  0  0  0
   -4.2052   -1.9048    1.2896 H   0  0  0  0  0  0  0  0  0  0  0  0
   -3.7552   -2.8428   -0.1584 H   0  0  0  0  0  0  0  0  0  0  0  0
   -2.1052   -2.1358    0.9946 C   0  0  0  0  0  0  0  0  0  0  0  0
   -1.2852   -2.7288    1.6826 O   0  0  0  0  0  0  0  0  0  0  0  0
   -1.8202   -1.0288    0.3146 N   0  0  0  0  0  0  0  0  0  0  0  0
   -2.5542   -0.5788   -0.2104 H   0  0  0  0  0  0  0  0  0  0  0  0
   -0.5102   -0.3728    0.3086 C   0  0  1  0  0  0  0  0  0  0  0  0
    0.2354   -1.0844   -0.0490 H   0  0  0  0  0  0  0  0  0  0  0  0
   -0.5452    0.8158   -0.6698 C   0  0  0  0  0  0  0  0  0  0  0  0
   -1.5540    1.2318   -0.6908 H   0  0  0  0  0  0  0  0  0  0  0  0
    0.1310    1.5932   -0.3094 H   0  0  0  0  0  0  0  0  0  0  0  0
   -0.1478    0.4514   -2.0767 C   0  0  0  0  0  0  0  0  0  0  0  0
   -0.0567   -0.8228   -2.5946 N   0  0  0  0  0  0  0  0  0  0  0  0
   -0.1693   -1.6835   -2.0802 H   0  0  0  0  0  0  0  0  0  0  0  0
    0.2146   -0.7198   -3.9065 C   0  0  0  0  0  0  0  0  0  0  0  0
    0.3502   -1.5531   -4.5851 H   0  0  0  0  0  0  0  0  0  0  0  0
    0.2913    0.5702   -4.2650 N   0  0  0  0  0  0  0  0  0  0  0  0
    0.0670    1.3240   -3.1101 C   0  0  0  0  0  0  0  0  0  0  0  0
    0.0323    2.4040   -3.0486 H   0  0  0  0  0  0  0  0  0  0  0  0
   -0.1073    0.0565    1.7296 C   0  0  0  0  0  0  0  0  0  0  0  0
    1.0285   -0.1699    2.1459 O   0  0  0  0  0  0  0  0  0  0  0  0
   -1.0395    0.6588    2.4785 N   0  0  0  0  0  0  0  0  0  0  0  0
   -1.9636    0.7597    2.0849 H   0  0  0  0  0  0  0  0  0  0  0  0
   -0.8222    1.1334    3.8425 C   0  0  0  0  0  0  0  0  0  0  0  0
   -0.0212    1.8761    3.8521 H   0  0  0  0  0  0  0  0  0  0  0  0
   -1.7349    1.5853    4.2320 H   0  0  0  0  0  0  0  0  0  0  0  0
   -0.5312    0.2997    4.4834 H   0  0  0  0  0  0  0  0  0  0  0  0
  5  6  2  0  0  0  0
  5  7  1  0  0  0  0
  2  3  1  0  0  0  0
  2  4  1  0  0  0  0
  2  5  1  0  0  0  0
  1  2  1  0  0  0  0
 22 23  2  0  0  0  0
 22 24  1  0  0  0  0
 20 21  1  0  0  0  0
 19 20  1  0  0  0  0
 17 18  1  0  0  0  0
 17 19  2  0  0  0  0
 15 16  1  0  0  0  0
 15 17  1  0  0  0  0
 14 15  1  0  0  0  0
 14 20  2  0  0  0  0
 11 12  1  0  0  0  0
 11 13  1  0  0  0  0
 11 14  1  0  0  0  0
  9 10  1  0  0  0  0
  9 11  1  0  0  0  0
  9 22  1  0  0  0  0
  7  8  1  0  0  0  0
  7  9  1  0  0  0  0
 26 27  1  0  0  0  0
 26 28  1  0  0  0  0
 26 29  1  0  0  0  0
 24 25  1  0  0  0  0
 24 26  1  0  0  0  0
M  END
$$$$
default_name
  -OEChem-02102213163D

 29 29  0     1  0  0  0  0  0999 V2000
   -3.6042   -3.5728    1.4576 H   0  0  0  0  0  0  0  0  0  0  0  0
   -3.5202   -2.6488    0.8866 C   0  0  0  0  0  0  0  0  0  0  0  0
   -4.2052   -1.9048    1.2896 H   0  0  0  0  0  0  0  0  0  0  0  0
   -3.7552   -2.8428   -0.1584 H   0  0  0  0  0  0  0  0  0  0  0  0
   -2.1052   -2.1358    0.9946 C   0  0  0  0  0  0  0  0  0  0  0  0
   -1.2852   -2.7288    1.6826 O   0  0  0  0  0  0  0  0  0  0  0  0
   -1.8202   -1.0288    0.3146 N   0  0  0  0  0  0  0  0  0  0  0  0
   -2.5542   -0.5788   -0.2104 H   0  0  0  0  0  0  0  0  0  0  0  0
   -0.5102   -0.3728    0.3086 C   0  0  1  0  0  0  0  0  0  0  0  0
    0.2354   -1.0844   -0.0490 H   0  0  0  0  0  0  0  0  0  0  0  0
   -0.5452    0.8158   -0.6698 C   0  0  0  0  0  0  0  0  0  0  0  0
   -1.5540    1.2318   -0.6908 H   0  0  0  0  0  0  0  0  0  0  0  0
    0.1310    1.5932   -0.3094 H   0  0  0  0  0  0  0  0  0  0  0  0
   -0.1478    0.4514   -2.0767 C   0  0  0  0  0  0  0  0  0  0  0  0
   -0.3280   -0.7728   -2.6842 N   0  0  0  0  0  0  0  0  0  0  0  0
   -0.6797   -1.6096   -2.2435 H   0  0  0  0  0  0  0  0  0  0  0  0
    0.0525   -0.6597   -3.9679 C   0  0  0  0  0  0  0  0  0  0  0  0
    0.0325   -1.4583   -4.6994 H   0  0  0  0  0  0  0  0  0  0  0  0
    0.4612    0.5918   -4.2226 N   0  0  0  0  0  0  0  0  0  0  0  0
    0.3426    1.3062   -3.0276 C   0  0  0  0  0  0  0  0  0  0  0  0
    0.5632    2.3563   -2.8863 H   0  0  0  0  0  0  0  0  0  0  0  0
   -0.1073    0.0565    1.7296 C   0  0  0  0  0  0  0  0  0  0  0  0
    1.0285   -0.1699    2.1459 O   0  0  0  0  0  0  0  0  0  0  0  0
   -1.0395    0.6588    2.4785 N   0  0  0  0  0  0  0  0  0  0  0  0
   -1.9636    0.7597    2.0849 H   0  0  0  0  0  0  0  0  0  0  0  0
   -0.8222    1.1334    3.8425 C   0  0  0  0  0  0  0  0  0  0  0  0
   -0.0212    1.8761    3.8521 H   0  0  0  0  0  0  0  0  0  0  0  0
   -1.7349    1.5853    4.2320 H   0  0  0  0  0  0  0  0  0  0  0  0
   -0.5312    0.2997    4.4834 H   0  0  0  0  0  0  0  0  0  0  0  0
  5  6  2  0  0  0  0
  5  7  1  0  0  0  0
  2  3  1  0  0  0  0
  2  4  1  0  0  0  0
  2  5  1  0  0  0  0
  1  2  1  0  0  0  0
 22 23  2  0  0  0  0
 22 24  1  0  0  0  0
 20 21  1  0  0  0  0
 19 20  1  0  0  0  0
 17 18  1  0  0  0  0
 17 19  2  0  0  0  0
 15 16  1  0  0  0  0
 15 17  1  0  0  0  0
 14 15  1  0  0  0  0
 14 20  2  0  0  0  0
 11 12  1  0  0  0  0
 11 13  1  0  0  0  0
 11 14  1  0  0  0  0
  9 10  1  0  0  0  0
  9 11  1  0  0  0  0
  9 22  1  0  0  0  0
  7  8  1  0  0  0  0
  7  9  1  0  0  0  0
 26 27  1  0  0  0  0
 26 28  1  0  0  0  0
 26 29  1  0  0  0  0
 24 25  1  0  0  0  0
 24 26  1  0  0  0  0
M  END
$$$$
default_name
  -OEChem-02102213163D

 29 29  0     1  0  0  0  0  0999 V2000
   -3.6042   -3.5728    1.4576 H   0  0  0  0  0  0  0  0  0  0  0  0
   -3.5202   -2.6488    0.8866 C   0  0  0  0  0  0  0  0  0  0  0  0
   -4.2052   -1.9048    1.2896 H   0  0  0  0  0  0  0  0  0  0  0  0
   -3.7552   -2.8428   -0.1584 H   0  0  0  0  0  0  0  0  0  0  0  0
   -2.1052   -2.1358    0.9946 C   0  0  0  0  0  0  0  0  0  0  0  0
   -1.2852   -2.7288    1.6826 O   0  0  0  0  0  0  0  0  0  0  0  0
   -1.8202   -1.0288    0.3146 N   0  0  0  0  0  0  0  0  0  0  0  0
   -2.5542   -0.5788   -0.2104 H   0  0  0  0  0  0  0  0  0  0  0  0
   -0.5102   -0.3728    0.3086 C   0  0  1  0  0  0  0  0  0  0  0  0
    0.2354   -1.0844   -0.0490 H   0  0  0  0  0  0  0  0  0  0  0  0
   -0.5452    0.8158   -0.6698 C   0  0  0  0  0  0  0  0  0  0  0  0
   -1.5540    1.2318   -0.6908 H   0  0  0  0  0  0  0  0  0  0  0  0
    0.1310    1.5932   -0.3094 H   0  0  0  0  0  0  0  0  0  0  0  0
   -0.1478    0.4514   -2.0767 C   0  0  0  0  0  0  0  0  0  0  0  0
   -0.5723   -0.6528   -2.7843 N   0  0  0  0  0  0  0  0  0  0  0  0
   -1.1446   -1.4036   -2.4282 H   0  0  0  0  0  0  0  0  0  0  0  0
   -0.0857   -0.5584   -4.0332 C   0  0  0  0  0  0  0  0  0  0  0  0
   -0.2444   -1.2821   -4.8233 H   0  0  0  0  0  0  0  0  0  0  0  0
    0.6279    0.5688   -4.1696 N   0  0  0  0  0  0  0  0  0  0  0  0
    0.5993    1.2168   -2.9319 C   0  0  0  0  0  0  0  0  0  0  0  0
    1.0544    2.1709   -2.6995 H   0  0  0  0  0  0  0  0  0  0  0  0
   -0.1073    0.0565    1.7296 C   0  0  0  0  0  0  0  0  0  0  0  0
    1.0285   -0.1699    2.1459 O   0  0  0  0  0  0  0  0  0  0  0  0
   -1.0395    0.6588    2.4785 N   0  0  0  0  0  0  0  0  0  0  0  0
   -1.9636    0.7597    2.0849 H   0  0  0  0  0  0  0  0  0  0  0  0
   -0.8222    1.1334    3.8425 C   0  0  0  0  0  0  0  0  0  0  0  0
   -0.0212    1.8761    3.8521 H   0  0  0  0  0  0  0  0  0  0  0  0
   -1.7349    1.5853    4.2320 H   0  0  0  0  0  0  0  0  0  0  0  0
   -0.5312    0.2997    4.4834 H   0  0  0  0  0  0  0  0  0  0  0  0
  5  6  2  0  0  0  0
  5  7  1  0  0  0  0
  2  3  1  0  0  0  0
  2  4  1  0  0  0  0
  2  5  1  0  0  0  0
  1  2  1  0  0  0  0
 22 23  2  0  0  0  0
 22 24  1  0  0  0  0
 20 21  1  0  0  0  0
 19 20  1  0  0  0  0
 17 18  1  0  0  0  0
 17 19  2  0  0  0  0
 15 16  1  0  0  0  0
 15 17  1  0  0  0  0
 14 15  1  0  0  0  0
 14 20  2  0  0  0  0
 11 12  1  0  0  0  0
 11 13  1  0  0  0  0
 11 14  1  0  0  0  0
  9 10  1  0  0  0  0
  9 11  1  0  0  0  0
  9 22  1  0  0  0  0
  7  8  1  0  0  0  0
  7  9  1  0  0  0  0
 26 27  1  0  0  0  0
 26 28  1  0  0  0  0
 26 29  1  0  0  0  0
 24 25  1  0  0  0  0
 24 26  1  0  0  0  0
M  END
$$$$
default_name
  -OEChem-02102213163D

 29 29  0     1  0  0  0  0  0999 V2000
   -3.6042   -3.5728    1.4576 H   0  0  0  0  0  0  0  0  0  0  0  0
   -3.5202   -2.6488    0.8866 C   0  0  0  0  0  0  0  0  0  0  0  0
   -4.2052   -1.9048    1.2896 H   0  0  0  0  0  0  0  0  0  0  0  0
   -3.7552   -2.8428   -0.1584 H   0  0  0  0  0  0  0  0  0  0  0  0
   -2.1052   -2.1358    0.9946 C   0  0  0  0  0  0  0  0  0  0  0  0
   -1.2852   -2.7288    1.6826 O   0  0  0  0  0  0  0  0  0  0  0  0
   -1.8202   -1.0288    0.3146 N   0  0  0  0  0  0  0  0  0  0  0  0
   -2.5542   -0.5788   -0.2104 H   0  0  0  0  0  0  0  0  0  0  0  0
   -0.5102   -0.3728    0.3086 C   0  0  1  0  0  0  0  0  0  0  0  0
    0.2354   -1.0844   -0.0490 H   0  0  0  0  0  0  0  0  0  0  0  0
   -0.5452    0.8158   -0.6698 C   0  0  0  0  0  0  0  0  0  0  0  0
   -1.5540    1.2318   -0.6908 H   0  0  0  0  0  0  0  0  0  0  0  0
    0.1310    1.5932   -0.3094 H   0  0  0  0  0  0  0  0  0  0  0  0
   -0.1478    0.4514   -2.0767 C   0  0  0  0  0  0  0  0  0  0  0  0
   -0.7731   -0.4710   -2.8881 N   0  0  0  0  0  0  0  0  0  0  0  0
   -1.5324   -1.0798   -2.6216 H   0  0  0  0  0  0  0  0  0  0  0  0
   -0.1906   -0.4226   -4.0980 C   0  0  0  0  0  0  0  0  0  0  0  0
   -0.4615   -1.0366   -4.9482 H   0  0  0  0  0  0  0  0  0  0  0  0
    0.7800    0.5027   -4.1095 N   0  0  0  0  0  0  0  0  0  0  0  0
    0.8196    1.0619   -2.8296 C   0  0  0  0  0  0  0  0  0  0  0  0
    1.4723    1.8603   -2.5010 H   0  0  0  0  0  0  0  0  0  0  0  0
   -0.1073    0.0565    1.7296 C   0  0  0  0  0  0  0  0  0  0  0  0
    1.0285   -0.1699    2.1459 O   0  0  0  0  0  0  0  0  0  0  0  0
   -1.0395    0.6588    2.4785 N   0  0  0  0  0  0  0  0  0  0  0  0
   -1.9636    0.7597    2.0849 H   0  0  0  0  0  0  0  0  0  0  0  0
   -0.8222    1.1334    3.8425 C   0  0  0  0  0  0  0  0  0  0  0  0
   -0.0212    1.8761    3.8521 H   0  0  0  0  0  0  0  0  0  0  0  0
   -1.7349    1.5853    4.2320 H   0  0  0  0  0  0  0  0  0  0  0  0
   -0.5312    0.2997    4.4834 H   0  0  0  0  0  0  0  0  0  0  0  0
  5  6  2  0  0  0  0
  5  7  1  0  0  0  0
  2  3  1  0  0  0  0
  2  4  1  0  0  0  0
  2  5  1  0  0  0  0
  1  2  1  0  0  0  0
 22 23  2  0  0  0  0
 22 24  1  0  0  0  0
 20 21  1  0  0  0  0
 19 20  1  0  0  0  0
 17 18  1  0  0  0  0
 17 19  2  0  0  0  0
 15 16  1  0  0  0  0
 15 17  1  0  0  0  0
 14 15  1  0  0  0  0
 14 20  2  0  0  0  0
 11 12  1  0  0  0  0
 11 13  1  0  0  0  0
 11 14  1  0  0  0  0
  9 10  1  0  0  0  0
  9 11  1  0  0  0  0
  9 22  1  0  0  0  0
  7  8  1  0  0  0  0
  7  9  1  0  0  0  0
 26 27  1  0  0  0  0
 26 28  1  0  0  0  0
 26 29  1  0  0  0  0
 24 25  1  0  0  0  0
 24 26  1  0  0  0  0
M  END
$$$$
default_name
  -OEChem-02102213163D

 29 29  0     1  0  0  0  0  0999 V2000
   -3.6042   -3.5728    1.4576 H   0  0  0  0  0  0  0  0  0  0  0  0
   -3.5202   -2.6488    0.8866 C   0  0  0  0  0  0  0  0  0  0  0  0
   -4.2052   -1.9048    1.2896 H   0  0  0  0  0  0  0  0  0  0  0  0
   -3.7552   -2.8428   -0.1584 H   0  0  0  0  0  0  0  0  0  0  0  0
   -2.1052   -2.1358    0.9946 C   0  0  0  0  0  0  0  0  0  0  0  0
   -1.2852   -2.7288    1.6826 O   0  0  0  0  0  0  0  0  0  0  0  0
   -1.8202   -1.0288    0.3146 N   0  0  0  0  0  0  0  0  0  0  0  0
   -2.5542   -0.5788   -0.2104 H   0  0  0  0  0  0  0  0  0  0  0  0
   -0.5102   -0.3728    0.3086 C   0  0  1  0  0  0  0  0  0  0  0  0
    0.2354   -1.0844   -0.0490 H   0  0  0  0  0  0  0  0  0  0  0  0
   -0.5452    0.8158   -0.6698 C   0  0  0  0  0  0  0  0  0  0  0  0
   -1.5540    1.2318   -0.6908 H   0  0  0  0  0  0  0  0  0  0  0  0
    0.1310    1.5932   -0.3094 H   0  0  0  0  0  0  0  0  0  0  0  0
   -0.1478    0.4514   -2.0767 C   0  0  0  0  0  0  0  0  0  0  0  0
   -0.9165   -0.2398   -2.9885 N   0  0  0  0  0  0  0  0  0  0  0  0
   -1.8165   -0.6600   -2.8106 H   0  0  0  0  0  0  0  0  0  0  0  0
   -0.2551   -0.2617   -4.1579 C   0  0  0  0  0  0  0  0  0  0  0  0
   -0.6041   -0.7384   -5.0657 H   0  0  0  0  0  0  0  0  0  0  0  0
    0.9072    0.3979   -4.0464 N   0  0  0  0  0  0  0  0  0  0  0  0
    0.9886    0.8520   -2.7275 C   0  0  0  0  0  0  0  0  0  0  0  0
    1.7885    1.4457   -2.3043 H   0  0  0  0  0  0  0  0  0  0  0  0
   -0.1073    0.0565    1.7296 C   0  0  0  0  0  0  0  0  0  0  0  0
    1.0285   -0.1699    2.1459 O   0  0  0  0  0  0  0  0  0  0  0  0
   -1.0395    0.6588    2.4785 N   0  0  0  0  0  0  0  0  0  0  0  0
   -1.9636    0.7597    2.0849 H   0  0  0  0  0  0  0  0  0  0  0  0
   -0.8222    1.1334    3.8425 C   0  0  0  0  0  0  0  0  0  0  0  0
   -0.0212    1.8761    3.8521 H   0  0  0  0  0  0  0  0  0  0  0  0
   -1.7349    1.5853    4.2320 H   0  0  0  0  0  0  0  0  0  0  0  0
   -0.5312    0.2997    4.4834 H   0  0  0  0  0  0  0  0  0  0  0  0
  5  6  2  0  0  0  0
  5  7  1  0  0  0  0
  2  3  1  0  0  0  0
  2  4  1  0  0  0  0
  2  5  1  0  0  0  0
  1  2  1  0  0  0  0
 22 23  2  0  0  0  0
 22 24  1  0  0  0  0
 20 21  1  0  0  0  0
 19 20  1  0  0  0  0
 17 18  1  0  0  0  0
 17 19  2  0  0  0  0
 15 16  1  0  0  0  0
 15 17  1  0  0  0  0
 14 15  1  0  0  0  0
 14 20  2  0  0  0  0
 11 12  1  0  0  0  0
 11 13  1  0  0  0  0
 11 14  1  0  0  0  0
  9 10  1  0  0  0  0
  9 11  1  0  0  0  0
  9 22  1  0  0  0  0
  7  8  1  0  0  0  0
  7  9  1  0  0  0  0
 26 27  1  0  0  0  0
 26 28  1  0  0  0  0
 26 29  1  0  0  0  0
 24 25  1  0  0  0  0
 24 26  1  0  0  0  0
M  END
$$$$
default_name
  -OEChem-02102213163D

 29 29  0     1  0  0  0  0  0999 V2000
   -3.6042   -3.5728    1.4576 H   0  0  0  0  0  0  0  0  0  0  0  0
   -3.5202   -2.6488    0.8866 C   0  0  0  0  0  0  0  0  0  0  0  0
   -4.2052   -1.9048    1.2896 H   0  0  0  0  0  0  0  0  0  0  0  0
   -3.7552   -2.8428   -0.1584 H   0  0  0  0  0  0  0  0  0  0  0  0
   -2.1052   -2.1358    0.9946 C   0  0  0  0  0  0  0  0  0  0  0  0
   -1.2852   -2.7288    1.6826 O   0  0  0  0  0  0  0  0  0  0  0  0
   -1.8202   -1.0288    0.3146 N   0  0  0  0  0  0  0  0  0  0  0  0
   -2.5542   -0.5788   -0.2104 H   0  0  0  0  0  0  0  0  0  0  0  0
   -0.5102   -0.3728    0.3086 C   0  0  1  0  0  0  0  0  0  0  0  0
    0.2354   -1.0844   -0.0490 H   0  0  0  0  0  0  0  0  0  0  0  0
   -0.5452    0.8158   -0.6698 C   0  0  0  0  0  0  0  0  0  0  0  0
   -1.5540    1.2318   -0.6908 H   0  0  0  0  0  0  0  0  0  0  0  0
    0.1310    1.5932   -0.3094 H   0  0  0  0  0  0  0  0  0  0  0  0
   -0.1478    0.4514   -2.0767 C   0  0  0  0  0  0  0  0  0  0  0  0
   -0.9930    0.0251   -3.0787 N   0  0  0  0  0  0  0  0  0  0  0  0
   -1.9777   -0.1730   -2.9823 H   0  0  0  0  0  0  0  0  0  0  0  0
   -0.2747   -0.0866   -4.2088 C   0  0  0  0  0  0  0  0  0  0  0  0
   -0.6624   -0.4079   -5.1678 H   0  0  0  0  0  0  0  0  0  0  0  0
    1.0008    0.2617   -3.9847 N   0  0  0  0  0  0  0  0  0  0  0  0
    1.0948    0.6015   -2.6326 C   0  0  0  0  0  0  0  0  0  0  0  0
    1.9815    0.9555   -2.1228 H   0  0  0  0  0  0  0  0  0  0  0  0
   -0.1073    0.0565    1.7296 C   0  0  0  0  0  0  0  0  0  0  0  0
    1.0285   -0.1699    2.1459 O   0  0  0  0  0  0  0  0  0  0  0  0
   -1.0395    0.6588    2.4785 N   0  0  0  0  0  0  0  0  0  0  0  0
   -1.9636    0.7597    2.0849 H   0  0  0  0  0  0  0  0  0  0  0  0
   -0.8222    1.1334    3.8425 C   0  0  0  0  0  0  0  0  0  0  0  0
   -0.0212    1.8761    3.8521 H   0  0  0  0  0  0  0  0  0  0  0  0
   -1.7349    1.5853    4.2320 H   0  0  0  0  0  0  0  0  0  0  0  0
   -0.5312    0.2997    4.4834 H   0  0  0  0  0  0  0  0  0  0  0  0
  5  6  2  0  0  0  0
  5  7  1  0  0  0  0
  2  3  1  0  0  0  0
  2  4  1  0  0  0  0
  2  5  1  0  0  0  0
  1  2  1  0  0  0  0
 22 23  2  0  0  0  0
 22 24  1  0  0  0  0
 20 21  1  0  0  0  0
 19 20  1  0  0  0  0
 17 18  1  0  0  0  0
 17 19  2  0  0  0  0
 15 16  1  0  0  0  0
 15 17  1  0  0  0  0
 14 15  1  0  0  0  0
 14 20  2  0  0  0  0
 11 12  1  0  0  0  0
 11 13  1  0  0  0  0
 11 14  1  0  0  0  0
  9 10  1  0  0  0  0
  9 11  1  0  0  0  0
  9 22  1  0  0  0  0
  7  8  1  0  0  0  0
  7  9  1  0  0  0  0
 26 27  1  0  0  0  0
 26 28  1  0  0  0  0
 26 29  1  0  0  0  0
 24 25  1  0  0  0  0
 24 26  1  0  0  0  0
M  END
$$$$
default_name
  -OEChem-02102213163D

 29 29  0     1  0  0  0  0  0999 V2000
   -3.6042   -3.5728    1.4576 H   0  0  0  0  0  0  0  0  0  0  0  0
   -3.5202   -2.6488    0.8866 C   0  0  0  0  0  0  0  0  0  0  0  0
   -4.2052   -1.9048    1.2896 H   0  0  0  0  0  0  0  0  0  0  0  0
   -3.7552   -2.8428   -0.1584 H   0  0  0  0  0  0  0  0  0  0  0  0
   -2.1052   -2.1358    0.9946 C   0  0  0  0  0  0  0  0  0  0  0  0
   -1.2852   -2.7288    1.6826 O   0  0  0  0  0  0  0  0  0  0  0  0
   -1.8202   -1.0288    0.3146 N   0  0  0  0  0  0  0  0  0  0  0  0
   -2.5542   -0.5788   -0.2104 H   0  0  0  0  0  0  0  0  0  0  0  0
   -0.5102   -0.3728    0.3086 C   0  0  1  0  0  0  0  0  0  0  0  0
    0.2354   -1.0844   -0.0490 H   0  0  0  0  0  0  0  0  0  0  0  0
   -0.5452    0.8158   -0.6698 C   0  0  0  0  0  0  0  0  0  0  0  0
   -1.5540    1.2318   -0.6908 H   0  0  0  0  0  0  0  0  0  0  0  0
    0.1310    1.5932   -0.3094 H   0  0  0  0  0  0  0  0  0  0  0  0
   -0.1478    0.4514   -2.0767 C   0  0  0  0  0  0  0  0  0  0  0  0
   -0.9971    0.3056   -3.1526 N   0  0  0  0  0  0  0  0  0  0  0  0
   -2.0049    0.3481   -3.1250 H   0  0  0  0  0  0  0  0  0  0  0  0
   -0.2481    0.0908   -4.2472 C   0  0  0  0  0  0  0  0  0  0  0  0
   -0.6324   -0.0676   -5.2475 H   0  0  0  0  0  0  0  0  0  0  0  0
    1.0544    0.1033   -3.9285 N   0  0  0  0  0  0  0  0  0  0  0  0
    1.1308    0.3273   -2.5514 C   0  0  0  0  0  0  0  0  0  0  0  0
    2.0379    0.4229   -1.9689 H   0  0  0  0  0  0  0  0  0  0  0  0
   -0.1073    0.0565    1.7296 C   0  0  0  0  0  0  0  0  0  0  0  0
    1.0285   -0.1699    2.1459 O   0  0  0  0  0  0  0  0  0  0  0  0
   -1.0395    0.6588    2.4785 N   0  0  0  0  0  0  0  0  0  0  0  0
   -1.9636    0.7597    2.0849 H   0  0  0  0  0  0  0  0  0  0  0  0
   -0.8222    1.1334    3.8425 C   0  0  0  0  0  0  0  0  0  0  0  0
   -0.0212    1.8761    3.8521 H   0  0  0  0  0  0  0  0  0  0  0  0
   -1.7349    1.5853    4.2320 H   0  0  0  0  0  0  0  0  0  0  0  0
   -0.5312    0.2997    4.4834 H   0  0  0  0  0  0  0  0  0  0  0  0
  5  6  2  0  0  0  0
  5  7  1  0  0  0  0
  2  3  1  0  0  0  0
  2  4  1  0  0  0  0
  2  5  1  0  0  0  0
  1  2  1  0  0  0  0
 22 23  2  0  0  0  0
 22 24  1  0  0  0  0
 20 21  1  0  0  0  0
 19 20  1  0  0  0  0
 17 18  1  0  0  0  0
 17 19  2  0  0  0  0
 15 16  1  0  0  0  0
 15 17  1  0  0  0  0
 14 15  1  0  0  0  0
 14 20  2  0  0  0  0
 11 12  1  0  0  0  0
 11 13  1  0  0  0  0
 11 14  1  0  0  0  0
  9 10  1  0  0  0  0
  9 11  1  0  0  0  0
  9 22  1  0  0  0  0
  7  8  1  0  0  0  0
  7  9  1  0  0  0  0
 26 27  1  0  0  0  0
 26 28  1  0  0  0  0
 26 29  1  0  0  0  0
 24 25  1  0  0  0  0
 24 26  1  0  0  0  0
M  END
$$$$
default_name
  -OEChem-02102213163D

 29 29  0     1  0  0  0  0  0999 V2000
   -3.6042   -3.5728    1.4576 H   0  0  0  0  0  0  0  0  0  0  0  0
   -3.5202   -2.6488    0.8866 C   0  0  0  0  0  0  0  0  0  0  0  0
   -4.2052   -1.9048    1.2896 H   0  0  0  0  0  0  0  0  0  0  0  0
   -3.7552   -2.8428   -0.1584 H   0  0  0  0  0  0  0  0  0  0  0  0
   -2.1052   -2.1358    0.9946 C   0  0  0  0  0  0  0  0  0  0  0  0
   -1.2852   -2.7288    1.6826 O   0  0  0  0  0  0  0  0  0  0  0  0
   -1.8202   -1.0288    0.3146 N   0  0  0  0  0  0  0  0  0  0  0  0
   -2.5542   -0.5788   -0.2104 H   0  0  0  0  0  0  0  0  0  0  0  0
   -0.5102   -0.3728    0.3086 C   0  0  1  0  0  0  0  0  0  0  0  0
    0.2354   -1.0844   -0.0490 H   0  0  0  0  0  0  0  0  0  0  0  0
   -0.5452    0.8158   -0.6698 C   0  0  0  0  0  0  0  0  0  0  0  0
   -1.5540    1.2318   -0.6908 H   0  0  0  0  0  0  0  0  0  0  0  0
    0.1310    1.5932   -0.3094 H   0  0  0  0  0  0  0  0  0  0  0  0
   -0.1478    0.4514   -2.0767 C   0  0  0  0  0  0  0  0  0  0  0  0
   -0.9287    0.5825   -3.2050 N   0  0  0  0  0  0  0  0  0  0  0  0
   -1.8963    0.8678   -3.2289 H   0  0  0  0  0  0  0  0  0  0  0  0
   -0.1772    0.2583   -4.2706 C   0  0  0  0  0  0  0  0  0  0  0  0
   -0.5162    0.2593   -5.2993 H   0  0  0  0  0  0  0  0  0  0  0  0
    1.0644   -0.0665   -3.8817 N   0  0  0  0  0  0  0  0  0  0  0  0
    1.0942    0.0483   -2.4894 C   0  0  0  0  0  0  0  0  0  0  0  0
    1.9542   -0.1157   -1.8530 H   0  0  0  0  0  0  0  0  0  0  0  0
   -0.1073    0.0565    1.7296 C   0  0  0  0  0  0  0  0  0  0  0  0
    1.0285   -0.1699    2.1459 O   0  0  0  0  0  0  0  0  0  0  0  0
   -1.0395    0.6588    2.4785 N   0  0  0  0  0  0  0  0  0  0  0  0
   -1.9636    0.7597    2.0849 H   0  0  0  0  0  0  0  0  0  0  0  0
   -0.8222    1.1334    3.8425 C   0  0  0  0  0  0  0  0  0  0  0  0
   -0.0212    1.8761    3.8521 H   0  0  0  0  0  0  0  0  0  0  0  0
   -1.7349    1.5853    4.2320 H   0  0  0  0  0  0  0  0  0  0  0  0
   -0.5312    0.2997    4.4834 H   0  0  0  0  0  0  0  0  0  0  0  0
  5  6  2  0  0  0  0
  5  7  1  0  0  0  0
  2  3  1  0  0  0  0
  2  4  1  0  0  0  0
  2  5  1  0  0  0  0
  1  2  1  0  0  0  0
 22 23  2  0  0  0  0
 22 24  1  0  0  0  0
 20 21  1  0  0  0  0
 19 20  1  0  0  0  0
 17 18  1  0  0  0  0
 17 19  2  0  0  0  0
 15 16  1  0  0  0  0
 15 17  1  0  0  0  0
 14 15  1  0  0  0  0
 14 20  2  0  0  0  0
 11 12  1  0  0  0  0
 11 13  1  0  0  0  0
 11 14  1  0  0  0  0
  9 10  1  0  0  0  0
  9 11  1  0  0  0  0
  9 22  1  0  0  0  0
  7  8  1  0  0  0  0
  7  9  1  0  0  0  0
 26 27  1  0  0  0  0
 26 28  1  0  0  0  0
 26 29  1  0  0  0  0
 24 25  1  0  0  0  0
 24 26  1  0  0  0  0
M  END
$$$$
default_name
  -OEChem-02102213163D

 29 29  0     1  0  0  0  0  0999 V2000
   -3.6042   -3.5728    1.4576 H   0  0  0  0  0  0  0  0  0  0  0  0
   -3.5202   -2.6488    0.8866 C   0  0  0  0  0  0  0  0  0  0  0  0
   -4.2052   -1.9048    1.2896 H   0  0  0  0  0  0  0  0  0  0  0  0
   -3.7552   -2.8428   -0.1584 H   0  0  0  0  0  0  0  0  0  0  0  0
   -2.1052   -2.1358    0.9946 C   0  0  0  0  0  0  0  0  0  0  0  0
   -1.2852   -2.7288    1.6826 O   0  0  0  0  0  0  0  0  0  0  0  0
   -1.8202   -1.0288    0.3146 N   0  0  0  0  0  0  0  0  0  0  0  0
   -2.5542   -0.5788   -0.2104 H   0  0  0  0  0  0  0  0  0  0  0  0
   -0.5102   -0.3728    0.3086 C   0  0  1  0  0  0  0  0  0  0  0  0
    0.2354   -1.0844   -0.0490 H   0  0  0  0  0  0  0  0  0  0  0  0
   -0.5452    0.8158   -0.6698 C   0  0  0  0  0  0  0  0  0  0  0  0
   -1.5540    1.2318   -0.6908 H   0  0  0  0  0  0  0  0  0  0  0  0
    0.1310    1.5932   -0.3094 H   0  0  0  0  0  0  0  0  0  0  0  0
   -0.1478    0.4514   -2.0767 C   0  0  0  0  0  0  0  0  0  0  0  0
   -0.7925    0.8371   -3.2324 N   0  0  0  0  0  0  0  0  0  0  0  0
   -1.6593    1.3506   -3.2870 H   0  0  0  0  0  0  0  0  0  0  0  0
   -0.0668    0.4045   -4.2773 C   0  0  0  0  0  0  0  0  0  0  0  0
   -0.3218    0.5505   -5.3198 H   0  0  0  0  0  0  0  0  0  0  0  0
    1.0301   -0.2362   -3.8475 N   0  0  0  0  0  0  0  0  0  0  0  0
    0.9876   -0.2166   -2.4509 C   0  0  0  0  0  0  0  0  0  0  0  0
    1.7358   -0.6237   -1.7831 H   0  0  0  0  0  0  0  0  0  0  0  0
   -0.1073    0.0565    1.7296 C   0  0  0  0  0  0  0  0  0  0  0  0
    1.0285   -0.1699    2.1459 O   0  0  0  0  0  0  0  0  0  0  0  0
   -1.0395    0.6588    2.4785 N   0  0  0  0  0  0  0  0  0  0  0  0
   -1.9636    0.7597    2.0849 H   0  0  0  0  0  0  0  0  0  0  0  0
   -0.8222    1.1334    3.8425 C   0  0  0  0  0  0  0  0  0  0  0  0
   -0.0212    1.8761    3.8521 H   0  0  0  0  0  0  0  0  0  0  0  0
   -1.7349    1.5853    4.2320 H   0  0  0  0  0  0  0  0  0  0  0  0
   -0.5312    0.2997    4.4834 H   0  0  0  0  0  0  0  0  0  0  0  0
  5  6  2  0  0  0  0
  5  7  1  0  0  0  0
  2  3  1  0  0  0  0
  2  4  1  0  0  0  0
  2  5  1  0  0  0  0
  1  2  1  0  0  0  0
 22 23  2  0  0  0  0
 22 24  1  0  0  0  0
 20 21  1  0  0  0  0
 19 20  1  0  0  0  0
 17 18  1  0  0  0  0
 17 19  2  0  0  0  0
 15 16  1  0  0  0  0
 15 17  1  0  0  0  0
 14 15  1  0  0  0  0
 14 20  2  0  0  0  0
 11 12  1  0  0  0  0
 11 13  1  0  0  0  0
 11 14  1  0  0  0  0
  9 10  1  0  0  0  0
  9 11  1  0  0  0  0
  9 22  1  0  0  0  0
  7  8  1  0  0  0  0
  7  9  1  0  0  0  0
 26 27  1  0  0  0  0
 26 28  1  0  0  0  0
 26 29  1  0  0  0  0
 24 25  1  0  0  0  0
 24 26  1  0  0  0  0
M  END
$$$$
default_name
  -OEChem-02102213163D

 29 29  0     1  0  0  0  0  0999 V2000
   -3.6042   -3.5728    1.4576 H   0  0  0  0  0  0  0  0  0  0  0  0
   -3.5202   -2.6488    0.8866 C   0  0  0  0  0  0  0  0  0  0  0  0
   -4.2052   -1.9048    1.2896 H   0  0  0  0  0  0  0  0  0  0  0  0
   -3.7552   -2.8428   -0.1584 H   0  0  0  0  0  0  0  0  0  0  0  0
   -2.1052   -2.1358    0.9946 C   0  0  0  0  0  0  0  0  0  0  0  0
   -1.2852   -2.7288    1.6826 O   0  0  0  0  0  0  0  0  0  0  0  0
   -1.8202   -1.0288    0.3146 N   0  0  0  0  0  0  0  0  0  0  0  0
   -2.5542   -0.5788   -0.2104 H   0  0  0  0  0  0  0  0  0  0  0  0
   -0.5102   -0.3728    0.3086 C   0  0  1  0  0  0  0  0  0  0  0  0
    0.2354   -1.0844   -0.0490 H   0  0  0  0  0  0  0  0  0  0  0  0
   -0.5452    0.8158   -0.6698 C   0  0  0  0  0  0  0  0  0  0  0  0
   -1.5540    1.2318   -0.6908 H   0  0  0  0  0  0  0  0  0  0  0  0
    0.1310    1.5932   -0.3094 H   0  0  0  0  0  0  0  0  0  0  0  0
   -0.1478    0.4514   -2.0767 C   0  0  0  0  0  0  0  0  0  0  0  0
   -0.5976    1.0519   -3.2330 N   0  0  0  0  0  0  0  0  0  0  0  0
   -1.3101    1.7637   -3.2954 H   0  0  0  0  0  0  0  0  0  0  0  0
    0.0757    0.5196   -4.2668 C   0  0  0  0  0  0  0  0  0  0  0  0
   -0.0623    0.7862   -5.3076 H   0  0  0  0  0  0  0  0  0  0  0  0
    0.9538   -0.3941   -3.8281 N   0  0  0  0  0  0  0  0  0  0  0  0
    0.8182   -0.4494   -2.4385 C   0  0  0  0  0  0  0  0  0  0  0  0
    1.3978   -1.0663   -1.7639 H   0  0  0  0  0  0  0  0  0  0  0  0
   -0.1073    0.0565    1.7296 C   0  0  0  0  0  0  0  0  0  0  0  0
    1.0285   -0.1699    2.1459 O   0  0  0  0  0  0  0  0  0  0  0  0
   -1.0395    0.6588    2.4785 N   0  0  0  0  0  0  0  0  0  0  0  0
   -1.9636    0.7597    2.0849 H   0  0  0  0  0  0  0  0  0  0  0  0
   -0.8222    1.1334    3.8425 C   0  0  0  0  0  0  0  0  0  0  0  0
   -0.0212    1.8761    3.8521 H   0  0  0  0  0  0  0  0  0  0  0  0
   -1.7349    1.5853    4.2320 H   0  0  0  0  0  0  0  0  0  0  0  0
   -0.5312    0.2997    4.4834 H   0  0  0  0  0  0  0  0  0  0  0  0
  5  6  2  0  0  0  0
  5  7  1  0  0  0  0
  2  3  1  0  0  0  0
  2  4  1  0  0  0  0
  2  5  1  0  0  0  0
  1  2  1  0  0  0  0
 22 23  2  0  0  0  0
 22 24  1  0  0  0  0
 20 21  1  0  0  0  0
 19 20  1  0  0  0  0
 17 18  1  0  0  0  0
 17 19  2  0  0  0  0
 15 16  1  0  0  0  0
 15 17  1  0  0  0  0
 14 15  1  0  0  0  0
 14 20  2  0  0  0  0
 11 12  1  0  0  0  0
 11 13  1  0  0  0  0
 11 14  1  0  0  0  0
  9 10  1  0  0  0  0
  9 11  1  0  0  0  0
  9 22  1  0  0  0  0
  7  8  1  0  0  0  0
  7  9  1  0  0  0  0
 26 27  1  0  0  0  0
 26 28  1  0  0  0  0
 26 29  1  0  0  0  0
 24 25  1  0  0  0  0
 24 26  1  0  0  0  0
M  END
$$$$
default_name
  -OEChem-02102213163D

 29 29  0     1  0  0  0  0  0999 V2000
   -3.6042   -3.5728    1.4576 H   0  0  0  0  0  0  0  0  0  0  0  0
   -3.5202   -2.6488    0.8866 C   0  0  0  0  0  0  0  0  0  0  0  0
   -4.2052   -1.9048    1.2896 H   0  0  0  0  0  0  0  0  0  0  0  0
   -3.7552   -2.8428   -0.1584 H   0  0  0  0  0  0  0  0  0  0  0  0
   -2.1052   -2.1358    0.9946 C   0  0  0  0  0  0  0  0  0  0  0  0
   -1.2852   -2.7288    1.6826 O   0  0  0  0  0  0  0  0  0  0  0  0
   -1.8202   -1.0288    0.3146 N   0  0  0  0  0  0  0  0  0  0  0  0
   -2.5542   -0.5788   -0.2104 H   0  0  0  0  0  0  0  0  0  0  0  0
   -0.5102   -0.3728    0.3086 C   0  0  1  0  0  0  0  0  0  0  0  0
    0.2354   -1.0844   -0.0490 H   0  0  0  0  0  0  0  0  0  0  0  0
   -0.5452    0.8158   -0.6698 C   0  0  0  0  0  0  0  0  0  0  0  0
   -1.5540    1.2318   -0.6908 H   0  0  0  0  0  0  0  0  0  0  0  0
    0.1310    1.5932   -0.3094 H   0  0  0  0  0  0  0  0  0  0  0  0
   -0.1478    0.4514   -2.0767 C   0  0  0  0  0  0  0  0  0  0  0  0
   -0.3574    1.2124   -3.2068 N   0  0  0  0  0  0  0  0  0  0  0  0
   -0.8725    2.0788   -3.2534 H   0  0  0  0  0  0  0  0  0  0  0  0
    0.2404    0.5956   -4.2400 C   0  0  0  0  0  0  0  0  0  0  0  0
    0.2446    0.9503   -5.2634 H   0  0  0  0  0  0  0  0  0  0  0  0
    0.8407   -0.5295   -3.8250 N   0  0  0  0  0  0  0  0  0  0  0  0
    0.5975   -0.6341   -2.4530 C   0  0  0  0  0  0  0  0  0  0  0  0
    0.9631   -1.4134   -1.7968 H   0  0  0  0  0  0  0  0  0  0  0  0
   -0.1073    0.0565    1.7296 C   0  0  0  0  0  0  0  0  0  0  0  0
    1.0285   -0.1699    2.1459 O   0  0  0  0  0  0  0  0  0  0  0  0
   -1.0395    0.6588    2.4785 N   0  0  0  0  0  0  0  0  0  0  0  0
   -1.9636    0.7597    2.0849 H   0  0  0  0  0  0  0  0  0  0  0  0
   -0.8222    1.1334    3.8425 C   0  0  0  0  0  0  0  0  0  0  0  0
   -0.0212    1.8761    3.8521 H   0  0  0  0  0  0  0  0  0  0  0  0
   -1.7349    1.5853    4.2320 H   0  0  0  0  0  0  0  0  0  0  0  0
   -0.5312    0.2997    4.4834 H   0  0  0  0  0  0  0  0  0  0  0  0
  5  6  2  0  0  0  0
  5  7  1  0  0  0  0
  2  3  1  0  0  0  0
  2  4  1  0  0  0  0
  2  5  1  0  0  0  0
  1  2  1  0  0  0  0
 22 23  2  0  0  0  0
 22 24  1  0  0  0  0
 20 21  1  0  0  0  0
 19 20  1  0  0  0  0
 17 18  1  0  0  0  0
 17 19  2  0  0  0  0
 15 16  1  0  0  0  0
 15 17  1  0  0  0  0
 14 15  1  0  0  0  0
 14 20  2  0  0  0  0
 11 12  1  0  0  0  0
 11 13  1  0  0  0  0
 11 14  1  0  0  0  0
  9 10  1  0  0  0  0
  9 11  1  0  0  0  0
  9 22  1  0  0  0  0
  7  8  1  0  0  0  0
  7  9  1  0  0  0  0
 26 27  1  0  0  0  0
 26 28  1  0  0  0  0
 26 29  1  0  0  0  0
 24 25  1  0  0  0  0
 24 26  1  0  0  0  0
M  END
$$$$
default_name
  -OEChem-02102213163D

 29 29  0     1  0  0  0  0  0999 V2000
   -3.6042   -3.5728    1.4576 H   0  0  0  0  0  0  0  0  0  0  0  0
   -3.5202   -2.6488    0.8866 C   0  0  0  0  0  0  0  0  0  0  0  0
   -4.2052   -1.9048    1.2896 H   0  0  0  0  0  0  0  0  0  0  0  0
   -3.7552   -2.8428   -0.1584 H   0  0  0  0  0  0  0  0  0  0  0  0
   -2.1052   -2.1358    0.9946 C   0  0  0  0  0  0  0  0  0  0  0  0
   -1.2852   -2.7288    1.6826 O   0  0  0  0  0  0  0  0  0  0  0  0
   -1.8202   -1.0288    0.3146 N   0  0  0  0  0  0  0  0  0  0  0  0
   -2.5542   -0.5788   -0.2104 H   0  0  0  0  0  0  0  0  0  0  0  0
   -0.5102   -0.3728    0.3086 C   0  0  1  0  0  0  0  0  0  0  0  0
    0.2354   -1.0844   -0.0490 H   0  0  0  0  0  0  0  0  0  0  0  0
   -0.5452    0.8158   -0.6698 C   0  0  0  0  0  0  0  0  0  0  0  0
   -1.4557    1.3928   -0.4987 H   0  0  0  0  0  0  0  0  0  0  0  0
    0.3075    1.4670   -0.4690 H   0  0  0  0  0  0  0  0  0  0  0  0
   -0.5028    0.4060   -2.1191 C   0  0  0  0  0  0  0  0  0  0  0  0
   -0.5210    1.2523   -3.2070 N   0  0  0  0  0  0  0  0  0  0  0  0
   -0.6424    2.2536   -3.1799 H   0  0  0  0  0  0  0  0  0  0  0  0
   -0.3541    0.5095   -4.3142 C   0  0  0  0  0  0  0  0  0  0  0  0
   -0.3303    0.8923   -5.3272 H   0  0  0  0  0  0  0  0  0  0  0  0
   -0.2157   -0.7841   -3.9890 N   0  0  0  0  0  0  0  0  0  0  0  0
   -0.3127   -0.8630   -2.5973 C   0  0  0  0  0  0  0  0  0  0  0  0
   -0.2178   -1.7606   -2.0000 H   0  0  0  0  0  0  0  0  0  0  0  0
   -0.1073    0.0565    1.7296 C   0  0  0  0  0  0  0  0  0  0  0  0
    1.0285   -0.1699    2.1459 O   0  0  0  0  0  0  0  0  0  0  0  0
   -1.0395    0.6588    2.4785 N   0  0  0  0  0  0  0  0  0  0  0  0
   -1.9636    0.7597    2.0849 H   0  0  0  0  0  0  0  0  0  0  0  0
   -0.8222    1.1334    3.8425 C   0  0  0  0  0  0  0  0  0  0  0  0
   -0.0212    1.8761    3.8521 H   0  0  0  0  0  0  0  0  0  0  0  0
   -1.7349    1.5853    4.2320 H   0  0  0  0  0  0  0  0  0  0  0  0
   -0.5312    0.2997    4.4834 H   0  0  0  0  0  0  0  0  0  0  0  0
  5  6  2  0  0  0  0
  5  7  1  0  0  0  0
  2  3  1  0  0  0  0
  2  4  1  0  0  0  0
  2  5  1  0  0  0  0
  1  2  1  0  0  0  0
 22 23  2  0  0  0  0
 22 24  1  0  0  0  0
 20 21  1  0  0  0  0
 19 20  1  0  0  0  0
 17 18  1  0  0  0  0
 17 19  2  0  0  0  0
 15 16  1  0  0  0  0
 15 17  1  0  0  0  0
 14 15  1  0  0  0  0
 14 20  2  0  0  0  0
 11 12  1  0  0  0  0
 11 13  1  0  0  0  0
 11 14  1  0  0  0  0
  9 10  1  0  0  0  0
  9 11  1  0  0  0  0
  9 22  1  0  0  0  0
  7  8  1  0  0  0  0
  7  9  1  0  0  0  0
 26 27  1  0  0  0  0
 26 28  1  0  0  0  0
 26 29  1  0  0  0  0
 24 25  1  0  0  0  0
 24 26  1  0  0  0  0
M  END
$$$$
default_name
  -OEChem-02102213163D

 29 29  0     1  0  0  0  0  0999 V2000
   -3.6042   -3.5728    1.4576 H   0  0  0  0  0  0  0  0  0  0  0  0
   -3.5202   -2.6488    0.8866 C   0  0  0  0  0  0  0  0  0  0  0  0
   -4.2052   -1.9048    1.2896 H   0  0  0  0  0  0  0  0  0  0  0  0
   -3.7552   -2.8428   -0.1584 H   0  0  0  0  0  0  0  0  0  0  0  0
   -2.1052   -2.1358    0.9946 C   0  0  0  0  0  0  0  0  0  0  0  0
   -1.2852   -2.7288    1.6826 O   0  0  0  0  0  0  0  0  0  0  0  0
   -1.8202   -1.0288    0.3146 N   0  0  0  0  0  0  0  0  0  0  0  0
   -2.5542   -0.5788   -0.2104 H   0  0  0  0  0  0  0  0  0  0  0  0
   -0.5102   -0.3728    0.3086 C   0  0  1  0  0  0  0  0  0  0  0  0
    0.2354   -1.0844   -0.0490 H   0  0  0  0  0  0  0  0  0  0  0  0
   -0.5452    0.8158   -0.6698 C   0  0  0  0  0  0  0  0  0  0  0  0
   -1.4557    1.3928   -0.4987 H   0  0  0  0  0  0  0  0  0  0  0  0
    0.3075    1.4670   -0.4690 H   0  0  0  0  0  0  0  0  0  0  0  0
   -0.5028    0.4060   -2.1191 C   0  0  0  0  0  0  0  0  0  0  0  0
   -0.2323    1.2284   -3.1918 N   0  0  0  0  0  0  0  0  0  0  0  0
   -0.1025    2.2284   -3.1569 H   0  0  0  0  0  0  0  0  0  0  0  0
   -0.1769    0.4656   -4.2966 C   0  0  0  0  0  0  0  0  0  0  0  0
    0.0135    0.8287   -5.2991 H   0  0  0  0  0  0  0  0  0  0  0  0
   -0.3882   -0.8212   -3.9836 N   0  0  0  0  0  0  0  0  0  0  0  0
   -0.6006   -0.8711   -2.6034 C   0  0  0  0  0  0  0  0  0  0  0  0
   -0.7748   -1.7631   -2.0156 H   0  0  0  0  0  0  0  0  0  0  0  0
   -0.1073    0.0565    1.7296 C   0  0  0  0  0  0  0  0  0  0  0  0
    1.0285   -0.1699    2.1459 O   0  0  0  0  0  0  0  0  0  0  0  0
   -1.0395    0.6588    2.4785 N   0  0  0  0  0  0  0  0  0  0  0  0
   -1.9636    0.7597    2.0849 H   0  0  0  0  0  0  0  0  0  0  0  0
   -0.8222    1.1334    3.8425 C   0  0  0  0  0  0  0  0  0  0  0  0
   -0.0212    1.8761    3.8521 H   0  0  0  0  0  0  0  0  0  0  0  0
   -1.7349    1.5853    4.2320 H   0  0  0  0  0  0  0  0  0  0  0  0
   -0.5312    0.2997    4.4834 H   0  0  0  0  0  0  0  0  0  0  0  0
  5  6  2  0  0  0  0
  5  7  1  0  0  0  0
  2  3  1  0  0  0  0
  2  4  1  0  0  0  0
  2  5  1  0  0  0  0
  1  2  1  0  0  0  0
 22 23  2  0  0  0  0
 22 24  1  0  0  0  0
 20 21  1  0  0  0  0
 19 20  1  0  0  0  0
 17 18  1  0  0  0  0
 17 19  2  0  0  0  0
 15 16  1  0  0  0  0
 15 17  1  0  0  0  0
 14 15  1  0  0  0  0
 14 20  2  0  0  0  0
 11 12  1  0  0  0  0
 11 13  1  0  0  0  0
 11 14  1  0  0  0  0
  9 10  1  0  0  0  0
  9 11  1  0  0  0  0
  9 22  1  0  0  0  0
  7  8  1  0  0  0  0
  7  9  1  0  0  0  0
 26 27  1  0  0  0  0
 26 28  1  0  0  0  0
 26 29  1  0  0  0  0
 24 25  1  0  0  0  0
 24 26  1  0  0  0  0
M  END
$$$$
default_name
  -OEChem-02102213163D

 29 29  0     1  0  0  0  0  0999 V2000
   -3.6042   -3.5728    1.4576 H   0  0  0  0  0  0  0  0  0  0  0  0
   -3.5202   -2.6488    0.8866 C   0  0  0  0  0  0  0  0  0  0  0  0
   -4.2052   -1.9048    1.2896 H   0  0  0  0  0  0  0  0  0  0  0  0
   -3.7552   -2.8428   -0.1584 H   0  0  0  0  0  0  0  0  0  0  0  0
   -2.1052   -2.1358    0.9946 C   0  0  0  0  0  0  0  0  0  0  0  0
   -1.2852   -2.7288    1.6826 O   0  0  0  0  0  0  0  0  0  0  0  0
   -1.8202   -1.0288    0.3146 N   0  0  0  0  0  0  0  0  0  0  0  0
   -2.5542   -0.5788   -0.2104 H   0  0  0  0  0  0  0  0  0  0  0  0
   -0.5102   -0.3728    0.3086 C   0  0  1  0  0  0  0  0  0  0  0  0
    0.2354   -1.0844   -0.0490 H   0  0  0  0  0  0  0  0  0  0  0  0
   -0.5452    0.8158   -0.6698 C   0  0  0  0  0  0  0  0  0  0  0  0
   -1.4557    1.3928   -0.4987 H   0  0  0  0  0  0  0  0  0  0  0  0
    0.3075    1.4670   -0.4690 H   0  0  0  0  0  0  0  0  0  0  0  0
   -0.5028    0.4060   -2.1191 C   0  0  0  0  0  0  0  0  0  0  0  0
    0.0395    1.1333   -3.1570 N   0  0  0  0  0  0  0  0  0  0  0  0
    0.4111    2.0695   -3.0970 H   0  0  0  0  0  0  0  0  0  0  0  0
   -0.0179    0.3789   -4.2674 C   0  0  0  0  0  0  0  0  0  0  0  0
    0.3278    0.6815   -5.2483 H   0  0  0  0  0  0  0  0  0  0  0  0
   -0.5643   -0.8140   -3.9908 N   0  0  0  0  0  0  0  0  0  0  0  0
   -0.8804   -0.8072   -2.6297 C   0  0  0  0  0  0  0  0  0  0  0  0
   -1.3124   -1.6267   -2.0699 H   0  0  0  0  0  0  0  0  0  0  0  0
   -0.1073    0.0565    1.7296 C   0  0  0  0  0  0  0  0  0  0  0  0
    1.0285   -0.1699    2.1459 O   0  0  0  0  0  0  0  0  0  0  0  0
   -1.0395    0.6588    2.4785 N   0  0  0  0  0  0  0  0  0  0  0  0
   -1.9636    0.7597    2.0849 H   0  0  0  0  0  0  0  0  0  0  0  0
   -0.8222    1.1334    3.8425 C   0  0  0  0  0  0  0  0  0  0  0  0
   -0.0212    1.8761    3.8521 H   0  0  0  0  0  0  0  0  0  0  0  0
   -1.7349    1.5853    4.2320 H   0  0  0  0  0  0  0  0  0  0  0  0
   -0.5312    0.2997    4.4834 H   0  0  0  0  0  0  0  0  0  0  0  0
  5  6  2  0  0  0  0
  5  7  1  0  0  0  0
  2  3  1  0  0  0  0
  2  4  1  0  0  0  0
  2  5  1  0  0  0  0
  1  2  1  0  0  0  0
 22 23  2  0  0  0  0
 22 24  1  0  0  0  0
 20 21  1  0  0  0  0
 19 20  1  0  0  0  0
 17 18  1  0  0  0  0
 17 19  2  0  0  0  0
 15 16  1  0  0  0  0
 15 17  1  0  0  0  0
 14 15  1  0  0  0  0
 14 20  2  0  0  0  0
 11 12  1  0  0  0  0
 11 13  1  0  0  0  0
 11 14  1  0  0  0  0
  9 10  1  0  0  0  0
  9 11  1  0  0  0  0
  9 22  1  0  0  0  0
  7  8  1  0  0  0  0
  7  9  1  0  0  0  0
 26 27  1  0  0  0  0
 26 28  1  0  0  0  0
 26 29  1  0  0  0  0
 24 25  1  0  0  0  0
 24 26  1  0  0  0  0
M  END
$$$$
default_name
  -OEChem-02102213163D

 29 29  0     1  0  0  0  0  0999 V2000
   -3.6042   -3.5728    1.4576 H   0  0  0  0  0  0  0  0  0  0  0  0
   -3.5202   -2.6488    0.8866 C   0  0  0  0  0  0  0  0  0  0  0  0
   -4.2052   -1.9048    1.2896 H   0  0  0  0  0  0  0  0  0  0  0  0
   -3.7552   -2.8428   -0.1584 H   0  0  0  0  0  0  0  0  0  0  0  0
   -2.1052   -2.1358    0.9946 C   0  0  0  0  0  0  0  0  0  0  0  0
   -1.2852   -2.7288    1.6826 O   0  0  0  0  0  0  0  0  0  0  0  0
   -1.8202   -1.0288    0.3146 N   0  0  0  0  0  0  0  0  0  0  0  0
   -2.5542   -0.5788   -0.2104 H   0  0  0  0  0  0  0  0  0  0  0  0
   -0.5102   -0.3728    0.3086 C   0  0  1  0  0  0  0  0  0  0  0  0
    0.2354   -1.0844   -0.0490 H   0  0  0  0  0  0  0  0  0  0  0  0
   -0.5452    0.8158   -0.6698 C   0  0  0  0  0  0  0  0  0  0  0  0
   -1.4557    1.3928   -0.4987 H   0  0  0  0  0  0  0  0  0  0  0  0
    0.3075    1.4670   -0.4690 H   0  0  0  0  0  0  0  0  0  0  0  0
   -0.5028    0.4060   -2.1191 C   0  0  0  0  0  0  0  0  0  0  0  0
    0.2759    0.9735   -3.1049 N   0  0  0  0  0  0  0  0  0  0  0  0
    0.8634    1.7876   -3.0041 H   0  0  0  0  0  0  0  0  0  0  0  0
    0.1121    0.2555   -4.2287 C   0  0  0  0  0  0  0  0  0  0  0  0
    0.5912    0.4608   -5.1782 H   0  0  0  0  0  0  0  0  0  0  0  0
   -0.7322   -0.7633   -4.0100 N   0  0  0  0  0  0  0  0  0  0  0  0
   -1.1329   -0.6757   -2.6743 C   0  0  0  0  0  0  0  0  0  0  0  0
   -1.7938   -1.3607   -2.1592 H   0  0  0  0  0  0  0  0  0  0  0  0
   -0.1073    0.0565    1.7296 C   0  0  0  0  0  0  0  0  0  0  0  0
    1.0285   -0.1699    2.1459 O   0  0  0  0  0  0  0  0  0  0  0  0
   -1.0395    0.6588    2.4785 N   0  0  0  0  0  0  0  0  0  0  0  0
   -1.9636    0.7597    2.0849 H   0  0  0  0  0  0  0  0  0  0  0  0
   -0.8222    1.1334    3.8425 C   0  0  0  0  0  0  0  0  0  0  0  0
   -0.0212    1.8761    3.8521 H   0  0  0  0  0  0  0  0  0  0  0  0
   -1.7349    1.5853    4.2320 H   0  0  0  0  0  0  0  0  0  0  0  0
   -0.5312    0.2997    4.4834 H   0  0  0  0  0  0  0  0  0  0  0  0
  5  6  2  0  0  0  0
  5  7  1  0  0  0  0
  2  3  1  0  0  0  0
  2  4  1  0  0  0  0
  2  5  1  0  0  0  0
  1  2  1  0  0  0  0
 22 23  2  0  0  0  0
 22 24  1  0  0  0  0
 20 21  1  0  0  0  0
 19 20  1  0  0  0  0
 17 18  1  0  0  0  0
 17 19  2  0  0  0  0
 15 16  1  0  0  0  0
 15 17  1  0  0  0  0
 14 15  1  0  0  0  0
 14 20  2  0  0  0  0
 11 12  1  0  0  0  0
 11 13  1  0  0  0  0
 11 14  1  0  0  0  0
  9 10  1  0  0  0  0
  9 11  1  0  0  0  0
  9 22  1  0  0  0  0
  7  8  1  0  0  0  0
  7  9  1  0  0  0  0
 26 27  1  0  0  0  0
 26 28  1  0  0  0  0
 26 29  1  0  0  0  0
 24 25  1  0  0  0  0
 24 26  1  0  0  0  0
M  END
$$$$
default_name
  -OEChem-02102213163D

 29 29  0     1  0  0  0  0  0999 V2000
   -3.6042   -3.5728    1.4576 H   0  0  0  0  0  0  0  0  0  0  0  0
   -3.5202   -2.6488    0.8866 C   0  0  0  0  0  0  0  0  0  0  0  0
   -4.2052   -1.9048    1.2896 H   0  0  0  0  0  0  0  0  0  0  0  0
   -3.7552   -2.8428   -0.1584 H   0  0  0  0  0  0  0  0  0  0  0  0
   -2.1052   -2.1358    0.9946 C   0  0  0  0  0  0  0  0  0  0  0  0
   -1.2852   -2.7288    1.6826 O   0  0  0  0  0  0  0  0  0  0  0  0
   -1.8202   -1.0288    0.3146 N   0  0  0  0  0  0  0  0  0  0  0  0
   -2.5542   -0.5788   -0.2104 H   0  0  0  0  0  0  0  0  0  0  0  0
   -0.5102   -0.3728    0.3086 C   0  0  1  0  0  0  0  0  0  0  0  0
    0.2354   -1.0844   -0.0490 H   0  0  0  0  0  0  0  0  0  0  0  0
   -0.5452    0.8158   -0.6698 C   0  0  0  0  0  0  0  0  0  0  0  0
   -1.4557    1.3928   -0.4987 H   0  0  0  0  0  0  0  0  0  0  0  0
    0.3075    1.4670   -0.4690 H   0  0  0  0  0  0  0  0  0  0  0  0
   -0.5028    0.4060   -2.1191 C   0  0  0  0  0  0  0  0  0  0  0  0
    0.4608    0.7599   -3.0391 N   0  0  0  0  0  0  0  0  0  0  0  0
    1.2236    1.4021   -2.8845 H   0  0  0  0  0  0  0  0  0  0  0  0
    0.2041    0.1036   -4.1831 C   0  0  0  0  0  0  0  0  0  0  0  0
    0.7857    0.1814   -5.0935 H   0  0  0  0  0  0  0  0  0  0  0  0
   -0.8803   -0.6723   -4.0401 N   0  0  0  0  0  0  0  0  0  0  0  0
   -1.3408   -0.4854   -2.7342 C   0  0  0  0  0  0  0  0  0  0  0  0
   -2.1864   -0.9832   -2.2774 H   0  0  0  0  0  0  0  0  0  0  0  0
   -0.1073    0.0565    1.7296 C   0  0  0  0  0  0  0  0  0  0  0  0
    1.0285   -0.1699    2.1459 O   0  0  0  0  0  0  0  0  0  0  0  0
   -1.0395    0.6588    2.4785 N   0  0  0  0  0  0  0  0  0  0  0  0
   -1.9636    0.7597    2.0849 H   0  0  0  0  0  0  0  0  0  0  0  0
   -0.8222    1.1334    3.8425 C   0  0  0  0  0  0  0  0  0  0  0  0
   -0.0212    1.8761    3.8521 H   0  0  0  0  0  0  0  0  0  0  0  0
   -1.7349    1.5853    4.2320 H   0  0  0  0  0  0  0  0  0  0  0  0
   -0.5312    0.2997    4.4834 H   0  0  0  0  0  0  0  0  0  0  0  0
  5  6  2  0  0  0  0
  5  7  1  0  0  0  0
  2  3  1  0  0  0  0
  2  4  1  0  0  0  0
  2  5  1  0  0  0  0
  1  2  1  0  0  0  0
 22 23  2  0  0  0  0
 22 24  1  0  0  0  0
 20 21  1  0  0  0  0
 19 20  1  0  0  0  0
 17 18  1  0  0  0  0
 17 19  2  0  0  0  0
 15 16  1  0  0  0  0
 15 17  1  0  0  0  0
 14 15  1  0  0  0  0
 14 20  2  0  0  0  0
 11 12  1  0  0  0  0
 11 13  1  0  0  0  0
 11 14  1  0  0  0  0
  9 10  1  0  0  0  0
  9 11  1  0  0  0  0
  9 22  1  0  0  0  0
  7  8  1  0  0  0  0
  7  9  1  0  0  0  0
 26 27  1  0  0  0  0
 26 28  1  0  0  0  0
 26 29  1  0  0  0  0
 24 25  1  0  0  0  0
 24 26  1  0  0  0  0
M  END
$$$$
default_name
  -OEChem-02102213163D

 29 29  0     1  0  0  0  0  0999 V2000
   -3.6042   -3.5728    1.4576 H   0  0  0  0  0  0  0  0  0  0  0  0
   -3.5202   -2.6488    0.8866 C   0  0  0  0  0  0  0  0  0  0  0  0
   -4.2052   -1.9048    1.2896 H   0  0  0  0  0  0  0  0  0  0  0  0
   -3.7552   -2.8428   -0.1584 H   0  0  0  0  0  0  0  0  0  0  0  0
   -2.1052   -2.1358    0.9946 C   0  0  0  0  0  0  0  0  0  0  0  0
   -1.2852   -2.7288    1.6826 O   0  0  0  0  0  0  0  0  0  0  0  0
   -1.8202   -1.0288    0.3146 N   0  0  0  0  0  0  0  0  0  0  0  0
   -2.5542   -0.5788   -0.2104 H   0  0  0  0  0  0  0  0  0  0  0  0
   -0.5102   -0.3728    0.3086 C   0  0  1  0  0  0  0  0  0  0  0  0
    0.2354   -1.0844   -0.0490 H   0  0  0  0  0  0  0  0  0  0  0  0
   -0.5452    0.8158   -0.6698 C   0  0  0  0  0  0  0  0  0  0  0  0
   -1.4557    1.3928   -0.4987 H   0  0  0  0  0  0  0  0  0  0  0  0
    0.3075    1.4670   -0.4690 H   0  0  0  0  0  0  0  0  0  0  0  0
   -0.5028    0.4060   -2.1191 C   0  0  0  0  0  0  0  0  0  0  0  0
    0.5816    0.5071   -2.9641 N   0  0  0  0  0  0  0  0  0  0  0  0
    1.4671    0.9392   -2.7465 H   0  0  0  0  0  0  0  0  0  0  0  0
    0.2520   -0.0664   -4.1336 C   0  0  0  0  0  0  0  0  0  0  0  0
    0.8981   -0.1375   -5.0001 H   0  0  0  0  0  0  0  0  0  0  0  0
   -0.9986   -0.5473   -4.0789 N   0  0  0  0  0  0  0  0  0  0  0  0
   -1.4902   -0.2494   -2.8052 C   0  0  0  0  0  0  0  0  0  0  0  0
   -2.4633   -0.5201   -2.4164 H   0  0  0  0  0  0  0  0  0  0  0  0
   -0.1073    0.0565    1.7296 C   0  0  0  0  0  0  0  0  0  0  0  0
    1.0285   -0.1699    2.1459 O   0  0  0  0  0  0  0  0  0  0  0  0
   -1.0395    0.6588    2.4785 N   0  0  0  0  0  0  0  0  0  0  0  0
   -1.9636    0.7597    2.0849 H   0  0  0  0  0  0  0  0  0  0  0  0
   -0.8222    1.1334    3.8425 C   0  0  0  0  0  0  0  0  0  0  0  0
   -0.0212    1.8761    3.8521 H   0  0  0  0  0  0  0  0  0  0  0  0
   -1.7349    1.5853    4.2320 H   0  0  0  0  0  0  0  0  0  0  0  0
   -0.5312    0.2997    4.4834 H   0  0  0  0  0  0  0  0  0  0  0  0
  5  6  2  0  0  0  0
  5  7  1  0  0  0  0
  2  3  1  0  0  0  0
  2  4  1  0  0  0  0
  2  5  1  0  0  0  0
  1  2  1  0  0  0  0
 22 23  2  0  0  0  0
 22 24  1  0  0  0  0
 20 21  1  0  0  0  0
 19 20  1  0  0  0  0
 17 18  1  0  0  0  0
 17 19  2  0  0  0  0
 15 16  1  0  0  0  0
 15 17  1  0  0  0  0
 14 15  1  0  0  0  0
 14 20  2  0  0  0  0
 11 12  1  0  0  0  0
 11 13  1  0  0  0  0
 11 14  1  0  0  0  0
  9 10  1  0  0  0  0
  9 11  1  0  0  0  0
  9 22  1  0  0  0  0
  7  8  1  0  0  0  0
  7  9  1  0  0  0  0
 26 27  1  0  0  0  0
 26 28  1  0  0  0  0
 26 29  1  0  0  0  0
 24 25  1  0  0  0  0
 24 26  1  0  0  0  0
M  END
$$$$
default_name
  -OEChem-02102213163D

 29 29  0     1  0  0  0  0  0999 V2000
   -3.6042   -3.5728    1.4576 H   0  0  0  0  0  0  0  0  0  0  0  0
   -3.5202   -2.6488    0.8866 C   0  0  0  0  0  0  0  0  0  0  0  0
   -4.2052   -1.9048    1.2896 H   0  0  0  0  0  0  0  0  0  0  0  0
   -3.7552   -2.8428   -0.1584 H   0  0  0  0  0  0  0  0  0  0  0  0
   -2.1052   -2.1358    0.9946 C   0  0  0  0  0  0  0  0  0  0  0  0
   -1.2852   -2.7288    1.6826 O   0  0  0  0  0  0  0  0  0  0  0  0
   -1.8202   -1.0288    0.3146 N   0  0  0  0  0  0  0  0  0  0  0  0
   -2.5542   -0.5788   -0.2104 H   0  0  0  0  0  0  0  0  0  0  0  0
   -0.5102   -0.3728    0.3086 C   0  0  1  0  0  0  0  0  0  0  0  0
    0.2354   -1.0844   -0.0490 H   0  0  0  0  0  0  0  0  0  0  0  0
   -0.5452    0.8158   -0.6698 C   0  0  0  0  0  0  0  0  0  0  0  0
   -1.4557    1.3928   -0.4987 H   0  0  0  0  0  0  0  0  0  0  0  0
    0.3075    1.4670   -0.4690 H   0  0  0  0  0  0  0  0  0  0  0  0
   -0.5028    0.4060   -2.1191 C   0  0  0  0  0  0  0  0  0  0  0  0
    0.6301    0.2323   -2.8850 N   0  0  0  0  0  0  0  0  0  0  0  0
    1.5774    0.4304   -2.5994 H   0  0  0  0  0  0  0  0  0  0  0  0
    0.2525   -0.2429   -4.0837 C   0  0  0  0  0  0  0  0  0  0  0  0
    0.9207   -0.4741   -4.9042 H   0  0  0  0  0  0  0  0  0  0  0  0
   -1.0791   -0.3968   -4.1238 N   0  0  0  0  0  0  0  0  0  0  0  0
   -1.5706    0.0162   -2.8827 C   0  0  0  0  0  0  0  0  0  0  0  0
   -2.6057   -0.0027   -2.5669 H   0  0  0  0  0  0  0  0  0  0  0  0
   -0.1073    0.0565    1.7296 C   0  0  0  0  0  0  0  0  0  0  0  0
    1.0285   -0.1699    2.1459 O   0  0  0  0  0  0  0  0  0  0  0  0
   -1.0395    0.6588    2.4785 N   0  0  0  0  0  0  0  0  0  0  0  0
   -1.9636    0.7597    2.0849 H   0  0  0  0  0  0  0  0  0  0  0  0
   -0.8222    1.1334    3.8425 C   0  0  0  0  0  0  0  0  0  0  0  0
   -0.0212    1.8761    3.8521 H   0  0  0  0  0  0  0  0  0  0  0  0
   -1.7349    1.5853    4.2320 H   0  0  0  0  0  0  0  0  0  0  0  0
   -0.5312    0.2997    4.4834 H   0  0  0  0  0  0  0  0  0  0  0  0
  5  6  2  0  0  0  0
  5  7  1  0  0  0  0
  2  3  1  0  0  0  0
  2  4  1  0  0  0  0
  2  5  1  0  0  0  0
  1  2  1  0  0  0  0
 22 23  2  0  0  0  0
 22 24  1  0  0  0  0
 20 21  1  0  0  0  0
 19 20  1  0  0  0  0
 17 18  1  0  0  0  0
 17 19  2  0  0  0  0
 15 16  1  0  0  0  0
 15 17  1  0  0  0  0
 14 15  1  0  0  0  0
 14 20  2  0  0  0  0
 11 12  1  0  0  0  0
 11 13  1  0  0  0  0
 11 14  1  0  0  0  0
  9 10  1  0  0  0  0
  9 11  1  0  0  0  0
  9 22  1  0  0  0  0
  7  8  1  0  0  0  0
  7  9  1  0  0  0  0
 26 27  1  0  0  0  0
 26 28  1  0  0  0  0
 26 29  1  0  0  0  0
 24 25  1  0  0  0  0
 24 26  1  0  0  0  0
M  END
$$$$
default_name
  -OEChem-02102213163D

 29 29  0     1  0  0  0  0  0999 V2000
   -3.6042   -3.5728    1.4576 H   0  0  0  0  0  0  0  0  0  0  0  0
   -3.5202   -2.6488    0.8866 C   0  0  0  0  0  0  0  0  0  0  0  0
   -4.2052   -1.9048    1.2896 H   0  0  0  0  0  0  0  0  0  0  0  0
   -3.7552   -2.8428   -0.1584 H   0  0  0  0  0  0  0  0  0  0  0  0
   -2.1052   -2.1358    0.9946 C   0  0  0  0  0  0  0  0  0  0  0  0
   -1.2852   -2.7288    1.6826 O   0  0  0  0  0  0  0  0  0  0  0  0
   -1.8202   -1.0288    0.3146 N   0  0  0  0  0  0  0  0  0  0  0  0
   -2.5542   -0.5788   -0.2104 H   0  0  0  0  0  0  0  0  0  0  0  0
   -0.5102   -0.3728    0.3086 C   0  0  1  0  0  0  0  0  0  0  0  0
    0.2354   -1.0844   -0.0490 H   0  0  0  0  0  0  0  0  0  0  0  0
   -0.5452    0.8158   -0.6698 C   0  0  0  0  0  0  0  0  0  0  0  0
   -1.4557    1.3928   -0.4987 H   0  0  0  0  0  0  0  0  0  0  0  0
    0.3075    1.4670   -0.4690 H   0  0  0  0  0  0  0  0  0  0  0  0
   -0.5028    0.4060   -2.1191 C   0  0  0  0  0  0  0  0  0  0  0  0
    0.6029   -0.0458   -2.8071 N   0  0  0  0  0  0  0  0  0  0  0  0
    1.5469   -0.0895   -2.4533 H   0  0  0  0  0  0  0  0  0  0  0  0
    0.2055   -0.4139   -4.0367 C   0  0  0  0  0  0  0  0  0  0  0  0
    0.8519   -0.8056   -4.8125 H   0  0  0  0  0  0  0  0  0  0  0  0
   -1.1162   -0.2311   -4.1717 N   0  0  0  0  0  0  0  0  0  0  0  0
   -1.5768    0.2934   -2.9613 C   0  0  0  0  0  0  0  0  0  0  0  0
   -2.6038    0.5335   -2.7184 H   0  0  0  0  0  0  0  0  0  0  0  0
   -0.1073    0.0565    1.7296 C   0  0  0  0  0  0  0  0  0  0  0  0
    1.0285   -0.1699    2.1459 O   0  0  0  0  0  0  0  0  0  0  0  0
   -1.0395    0.6588    2.4785 N   0  0  0  0  0  0  0  0  0  0  0  0
   -1.9636    0.7597    2.0849 H   0  0  0  0  0  0  0  0  0  0  0  0
   -0.8222    1.1334    3.8425 C   0  0  0  0  0  0  0  0  0  0  0  0
   -0.0212    1.8761    3.8521 H   0  0  0  0  0  0  0  0  0  0  0  0
   -1.7349    1.5853    4.2320 H   0  0  0  0  0  0  0  0  0  0  0  0
   -0.5312    0.2997    4.4834 H   0  0  0  0  0  0  0  0  0  0  0  0
  5  6  2  0  0  0  0
  5  7  1  0  0  0  0
  2  3  1  0  0  0  0
  2  4  1  0  0  0  0
  2  5  1  0  0  0  0
  1  2  1  0  0  0  0
 22 23  2  0  0  0  0
 22 24  1  0  0  0  0
 20 21  1  0  0  0  0
 19 20  1  0  0  0  0
 17 18  1  0  0  0  0
 17 19  2  0  0  0  0
 15 16  1  0  0  0  0
 15 17  1  0  0  0  0
 14 15  1  0  0  0  0
 14 20  2  0  0  0  0
 11 12  1  0  0  0  0
 11 13  1  0  0  0  0
 11 14  1  0  0  0  0
  9 10  1  0  0  0  0
  9 11  1  0  0  0  0
  9 22  1  0  0  0  0
  7  8  1  0  0  0  0
  7  9  1  0  0  0  0
 26 27  1  0  0  0  0
 26 28  1  0  0  0  0
 26 29  1  0  0  0  0
 24 25  1  0  0  0  0
 24 26  1  0  0  0  0
M  END
$$$$
default_name
  -OEChem-02102213163D

 29 29  0     1  0  0  0  0  0999 V2000
   -3.6042   -3.5728    1.4576 H   0  0  0  0  0  0  0  0  0  0  0  0
   -3.5202   -2.6488    0.8866 C   0  0  0  0  0  0  0  0  0  0  0  0
   -4.2052   -1.9048    1.2896 H   0  0  0  0  0  0  0  0  0  0  0  0
   -3.7552   -2.8428   -0.1584 H   0  0  0  0  0  0  0  0  0  0  0  0
   -2.1052   -2.1358    0.9946 C   0  0  0  0  0  0  0  0  0  0  0  0
   -1.2852   -2.7288    1.6826 O   0  0  0  0  0  0  0  0  0  0  0  0
   -1.8202   -1.0288    0.3146 N   0  0  0  0  0  0  0  0  0  0  0  0
   -2.5542   -0.5788   -0.2104 H   0  0  0  0  0  0  0  0  0  0  0  0
   -0.5102   -0.3728    0.3086 C   0  0  1  0  0  0  0  0  0  0  0  0
    0.2354   -1.0844   -0.0490 H   0  0  0  0  0  0  0  0  0  0  0  0
   -0.5452    0.8158   -0.6698 C   0  0  0  0  0  0  0  0  0  0  0  0
   -1.4557    1.3928   -0.4987 H   0  0  0  0  0  0  0  0  0  0  0  0
    0.3075    1.4670   -0.4690 H   0  0  0  0  0  0  0  0  0  0  0  0
   -0.5028    0.4060   -2.1191 C   0  0  0  0  0  0  0  0  0  0  0  0
    0.5020   -0.3082   -2.7359 N   0  0  0  0  0  0  0  0  0  0  0  0
    1.3777   -0.5853   -2.3181 H   0  0  0  0  0  0  0  0  0  0  0  0
    0.1142   -0.5676   -3.9959 C   0  0  0  0  0  0  0  0  0  0  0  0
    0.6965   -1.1094   -4.7312 H   0  0  0  0  0  0  0  0  0  0  0  0
   -1.1074   -0.0615   -4.2194 N   0  0  0  0  0  0  0  0  0  0  0  0
   -1.5081    0.5632   -3.0355 C   0  0  0  0  0  0  0  0  0  0  0  0
   -2.4578    1.0521   -2.8608 H   0  0  0  0  0  0  0  0  0  0  0  0
   -0.1073    0.0565    1.7296 C   0  0  0  0  0  0  0  0  0  0  0  0
    1.0285   -0.1699    2.1459 O   0  0  0  0  0  0  0  0  0  0  0  0
   -1.0395    0.6588    2.4785 N   0  0  0  0  0  0  0  0  0  0  0  0
   -1.9636    0.7597    2.0849 H   0  0  0  0  0  0  0  0  0  0  0  0
   -0.8222    1.1334    3.8425 C   0  0  0  0  0  0  0  0  0  0  0  0
   -0.0212    1.8761    3.8521 H   0  0  0  0  0  0  0  0  0  0  0  0
   -1.7349    1.5853    4.2320 H   0  0  0  0  0  0  0  0  0  0  0  0
   -0.5312    0.2997    4.4834 H   0  0  0  0  0  0  0  0  0  0  0  0
  5  6  2  0  0  0  0
  5  7  1  0  0  0  0
  2  3  1  0  0  0  0
  2  4  1  0  0  0  0
  2  5  1  0  0  0  0
  1  2  1  0  0  0  0
 22 23  2  0  0  0  0
 22 24  1  0  0  0  0
 20 21  1  0  0  0  0
 19 20  1  0  0  0  0
 17 18  1  0  0  0  0
 17 19  2  0  0  0  0
 15 16  1  0  0  0  0
 15 17  1  0  0  0  0
 14 15  1  0  0  0  0
 14 20  2  0  0  0  0
 11 12  1  0  0  0  0
 11 13  1  0  0  0  0
 11 14  1  0  0  0  0
  9 10  1  0  0  0  0
  9 11  1  0  0  0  0
  9 22  1  0  0  0  0
  7  8  1  0  0  0  0
  7  9  1  0  0  0  0
 26 27  1  0  0  0  0
 26 28  1  0  0  0  0
 26 29  1  0  0  0  0
 24 25  1  0  0  0  0
 24 26  1  0  0  0  0
M  END
$$$$
default_name
  -OEChem-02102213163D

 29 29  0     1  0  0  0  0  0999 V2000
   -3.6042   -3.5728    1.4576 H   0  0  0  0  0  0  0  0  0  0  0  0
   -3.5202   -2.6488    0.8866 C   0  0  0  0  0  0  0  0  0  0  0  0
   -4.2052   -1.9048    1.2896 H   0  0  0  0  0  0  0  0  0  0  0  0
   -3.7552   -2.8428   -0.1584 H   0  0  0  0  0  0  0  0  0  0  0  0
   -2.1052   -2.1358    0.9946 C   0  0  0  0  0  0  0  0  0  0  0  0
   -1.2852   -2.7288    1.6826 O   0  0  0  0  0  0  0  0  0  0  0  0
   -1.8202   -1.0288    0.3146 N   0  0  0  0  0  0  0  0  0  0  0  0
   -2.5542   -0.5788   -0.2104 H   0  0  0  0  0  0  0  0  0  0  0  0
   -0.5102   -0.3728    0.3086 C   0  0  1  0  0  0  0  0  0  0  0  0
    0.2354   -1.0844   -0.0490 H   0  0  0  0  0  0  0  0  0  0  0  0
   -0.5452    0.8158   -0.6698 C   0  0  0  0  0  0  0  0  0  0  0  0
   -1.4557    1.3928   -0.4987 H   0  0  0  0  0  0  0  0  0  0  0  0
    0.3075    1.4670   -0.4690 H   0  0  0  0  0  0  0  0  0  0  0  0
   -0.5028    0.4060   -2.1191 C   0  0  0  0  0  0  0  0  0  0  0  0
    0.3341   -0.5371   -2.6761 N   0  0  0  0  0  0  0  0  0  0  0  0
    1.0813   -1.0229   -2.2030 H   0  0  0  0  0  0  0  0  0  0  0  0
   -0.0151   -0.6937   -3.9641 C   0  0  0  0  0  0  0  0  0  0  0  0
    0.4651   -1.3647   -4.6657 H   0  0  0  0  0  0  0  0  0  0  0  0
   -1.0533    0.1005   -4.2637 N   0  0  0  0  0  0  0  0  0  0  0  0
   -1.3695    0.8073   -3.1005 C   0  0  0  0  0  0  0  0  0  0  0  0
   -2.1777    1.5178   -2.9843 H   0  0  0  0  0  0  0  0  0  0  0  0
   -0.1073    0.0565    1.7296 C   0  0  0  0  0  0  0  0  0  0  0  0
    1.0285   -0.1699    2.1459 O   0  0  0  0  0  0  0  0  0  0  0  0
   -1.0395    0.6588    2.4785 N   0  0  0  0  0  0  0  0  0  0  0  0
   -1.9636    0.7597    2.0849 H   0  0  0  0  0  0  0  0  0  0  0  0
   -0.8222    1.1334    3.8425 C   0  0  0  0  0  0  0  0  0  0  0  0
   -0.0212    1.8761    3.8521 H   0  0  0  0  0  0  0  0  0  0  0  0
   -1.7349    1.5853    4.2320 H   0  0  0  0  0  0  0  0  0  0  0  0
   -0.5312    0.2997    4.4834 H   0  0  0  0  0  0  0  0  0  0  0  0
  5  6  2  0  0  0  0
  5  7  1  0  0  0  0
  2  3  1  0  0  0  0
  2  4  1  0  0  0  0
  2  5  1  0  0  0  0
  1  2  1  0  0  0  0
 22 23  2  0  0  0  0
 22 24  1  0  0  0  0
 20 21  1  0  0  0  0
 19 20  1  0  0  0  0
 17 18  1  0  0  0  0
 17 19  2  0  0  0  0
 15 16  1  0  0  0  0
 15 17  1  0  0  0  0
 14 15  1  0  0  0  0
 14 20  2  0  0  0  0
 11 12  1  0  0  0  0
 11 13  1  0  0  0  0
 11 14  1  0  0  0  0
  9 10  1  0  0  0  0
  9 11  1  0  0  0  0
  9 22  1  0  0  0  0
  7  8  1  0  0  0  0
  7  9  1  0  0  0  0
 26 27  1  0  0  0  0
 26 28  1  0  0  0  0
 26 29  1  0  0  0  0
 24 25  1  0  0  0  0
 24 26  1  0  0  0  0
M  END
$$$$
default_name
  -OEChem-02102213163D

 29 29  0     1  0  0  0  0  0999 V2000
   -3.6042   -3.5728    1.4576 H   0  0  0  0  0  0  0  0  0  0  0  0
   -3.5202   -2.6488    0.8866 C   0  0  0  0  0  0  0  0  0  0  0  0
   -4.2052   -1.9048    1.2896 H   0  0  0  0  0  0  0  0  0  0  0  0
   -3.7552   -2.8428   -0.1584 H   0  0  0  0  0  0  0  0  0  0  0  0
   -2.1052   -2.1358    0.9946 C   0  0  0  0  0  0  0  0  0  0  0  0
   -1.2852   -2.7288    1.6826 O   0  0  0  0  0  0  0  0  0  0  0  0
   -1.8202   -1.0288    0.3146 N   0  0  0  0  0  0  0  0  0  0  0  0
   -2.5542   -0.5788   -0.2104 H   0  0  0  0  0  0  0  0  0  0  0  0
   -0.5102   -0.3728    0.3086 C   0  0  1  0  0  0  0  0  0  0  0  0
    0.2354   -1.0844   -0.0490 H   0  0  0  0  0  0  0  0  0  0  0  0
   -0.5452    0.8158   -0.6698 C   0  0  0  0  0  0  0  0  0  0  0  0
   -1.4557    1.3928   -0.4987 H   0  0  0  0  0  0  0  0  0  0  0  0
    0.3075    1.4670   -0.4690 H   0  0  0  0  0  0  0  0  0  0  0  0
   -0.5028    0.4060   -2.1191 C   0  0  0  0  0  0  0  0  0  0  0  0
    0.1108   -0.7168   -2.6318 N   0  0  0  0  0  0  0  0  0  0  0  0
    0.6780   -1.3728   -2.1159 H   0  0  0  0  0  0  0  0  0  0  0  0
   -0.1737   -0.7835   -3.9433 C   0  0  0  0  0  0  0  0  0  0  0  0
    0.1734   -1.5542   -4.6207 H   0  0  0  0  0  0  0  0  0  0  0  0
   -0.9576    0.2439   -4.3014 N   0  0  0  0  0  0  0  0  0  0  0  0
   -1.1702    1.0091   -3.1517 C   0  0  0  0  0  0  0  0  0  0  0  0
   -1.7825    1.8987   -3.0804 H   0  0  0  0  0  0  0  0  0  0  0  0
   -0.1073    0.0565    1.7296 C   0  0  0  0  0  0  0  0  0  0  0  0
    1.0285   -0.1699    2.1459 O   0  0  0  0  0  0  0  0  0  0  0  0
   -1.0395    0.6588    2.4785 N   0  0  0  0  0  0  0  0  0  0  0  0
   -1.9636    0.7597    2.0849 H   0  0  0  0  0  0  0  0  0  0  0  0
   -0.8222    1.1334    3.8425 C   0  0  0  0  0  0  0  0  0  0  0  0
   -0.0212    1.8761    3.8521 H   0  0  0  0  0  0  0  0  0  0  0  0
   -1.7349    1.5853    4.2320 H   0  0  0  0  0  0  0  0  0  0  0  0
   -0.5312    0.2997    4.4834 H   0  0  0  0  0  0  0  0  0  0  0  0
  5  6  2  0  0  0  0
  5  7  1  0  0  0  0
  2  3  1  0  0  0  0
  2  4  1  0  0  0  0
  2  5  1  0  0  0  0
  1  2  1  0  0  0  0
 22 23  2  0  0  0  0
 22 24  1  0  0  0  0
 20 21  1  0  0  0  0
 19 20  1  0  0  0  0
 17 18  1  0  0  0  0
 17 19  2  0  0  0  0
 15 16  1  0  0  0  0
 15 17  1  0  0  0  0
 14 15  1  0  0  0  0
 14 20  2  0  0  0  0
 11 12  1  0  0  0  0
 11 13  1  0  0  0  0
 11 14  1  0  0  0  0
  9 10  1  0  0  0  0
  9 11  1  0  0  0  0
  9 22  1  0  0  0  0
  7  8  1  0  0  0  0
  7  9  1  0  0  0  0
 26 27  1  0  0  0  0
 26 28  1  0  0  0  0
 26 29  1  0  0  0  0
 24 25  1  0  0  0  0
 24 26  1  0  0  0  0
M  END
$$$$
default_name
  -OEChem-02102213163D

 29 29  0     1  0  0  0  0  0999 V2000
   -3.6042   -3.5728    1.4576 H   0  0  0  0  0  0  0  0  0  0  0  0
   -3.5202   -2.6488    0.8866 C   0  0  0  0  0  0  0  0  0  0  0  0
   -4.2052   -1.9048    1.2896 H   0  0  0  0  0  0  0  0  0  0  0  0
   -3.7552   -2.8428   -0.1584 H   0  0  0  0  0  0  0  0  0  0  0  0
   -2.1052   -2.1358    0.9946 C   0  0  0  0  0  0  0  0  0  0  0  0
   -1.2852   -2.7288    1.6826 O   0  0  0  0  0  0  0  0  0  0  0  0
   -1.8202   -1.0288    0.3146 N   0  0  0  0  0  0  0  0  0  0  0  0
   -2.5542   -0.5788   -0.2104 H   0  0  0  0  0  0  0  0  0  0  0  0
   -0.5102   -0.3728    0.3086 C   0  0  1  0  0  0  0  0  0  0  0  0
    0.2354   -1.0844   -0.0490 H   0  0  0  0  0  0  0  0  0  0  0  0
   -0.5452    0.8158   -0.6698 C   0  0  0  0  0  0  0  0  0  0  0  0
   -1.4557    1.3928   -0.4987 H   0  0  0  0  0  0  0  0  0  0  0  0
    0.3075    1.4670   -0.4690 H   0  0  0  0  0  0  0  0  0  0  0  0
   -0.5028    0.4060   -2.1191 C   0  0  0  0  0  0  0  0  0  0  0  0
   -0.1528   -0.8351   -2.6061 N   0  0  0  0  0  0  0  0  0  0  0  0
    0.1952   -1.6109   -2.0627 H   0  0  0  0  0  0  0  0  0  0  0  0
   -0.3506   -0.8310   -3.9351 C   0  0  0  0  0  0  0  0  0  0  0  0
   -0.1588   -1.6649   -4.5991 H   0  0  0  0  0  0  0  0  0  0  0  0
   -0.8268    0.3588   -4.3300 N   0  0  0  0  0  0  0  0  0  0  0  0
   -0.9238    1.1547   -3.1857 C   0  0  0  0  0  0  0  0  0  0  0  0
   -1.2991    2.1690   -3.1427 H   0  0  0  0  0  0  0  0  0  0  0  0
   -0.1073    0.0565    1.7296 C   0  0  0  0  0  0  0  0  0  0  0  0
    1.0285   -0.1699    2.1459 O   0  0  0  0  0  0  0  0  0  0  0  0
   -1.0395    0.6588    2.4785 N   0  0  0  0  0  0  0  0  0  0  0  0
   -1.9636    0.7597    2.0849 H   0  0  0  0  0  0  0  0  0  0  0  0
   -0.8222    1.1334    3.8425 C   0  0  0  0  0  0  0  0  0  0  0  0
   -0.0212    1.8761    3.8521 H   0  0  0  0  0  0  0  0  0  0  0  0
   -1.7349    1.5853    4.2320 H   0  0  0  0  0  0  0  0  0  0  0  0
   -0.5312    0.2997    4.4834 H   0  0  0  0  0  0  0  0  0  0  0  0
  5  6  2  0  0  0  0
  5  7  1  0  0  0  0
  2  3  1  0  0  0  0
  2  4  1  0  0  0  0
  2  5  1  0  0  0  0
  1  2  1  0  0  0  0
 22 23  2  0  0  0  0
 22 24  1  0  0  0  0
 20 21  1  0  0  0  0
 19 20  1  0  0  0  0
 17 18  1  0  0  0  0
 17 19  2  0  0  0  0
 15 16  1  0  0  0  0
 15 17  1  0  0  0  0
 14 15  1  0  0  0  0
 14 20  2  0  0  0  0
 11 12  1  0  0  0  0
 11 13  1  0  0  0  0
 11 14  1  0  0  0  0
  9 10  1  0  0  0  0
  9 11  1  0  0  0  0
  9 22  1  0  0  0  0
  7  8  1  0  0  0  0
  7  9  1  0  0  0  0
 26 27  1  0  0  0  0
 26 28  1  0  0  0  0
 26 29  1  0  0  0  0
 24 25  1  0  0  0  0
 24 26  1  0  0  0  0
M  END
$$$$
default_name
  -OEChem-02102213163D

 29 29  0     1  0  0  0  0  0999 V2000
   -3.6042   -3.5728    1.4576 H   0  0  0  0  0  0  0  0  0  0  0  0
   -3.5202   -2.6488    0.8866 C   0  0  0  0  0  0  0  0  0  0  0  0
   -4.2052   -1.9048    1.2896 H   0  0  0  0  0  0  0  0  0  0  0  0
   -3.7552   -2.8428   -0.1584 H   0  0  0  0  0  0  0  0  0  0  0  0
   -2.1052   -2.1358    0.9946 C   0  0  0  0  0  0  0  0  0  0  0  0
   -1.2852   -2.7288    1.6826 O   0  0  0  0  0  0  0  0  0  0  0  0
   -1.8202   -1.0288    0.3146 N   0  0  0  0  0  0  0  0  0  0  0  0
   -2.5542   -0.5788   -0.2104 H   0  0  0  0  0  0  0  0  0  0  0  0
   -0.5102   -0.3728    0.3086 C   0  0  1  0  0  0  0  0  0  0  0  0
    0.2354   -1.0844   -0.0490 H   0  0  0  0  0  0  0  0  0  0  0  0
   -0.5452    0.8158   -0.6698 C   0  0  0  0  0  0  0  0  0  0  0  0
   -1.4557    1.3928   -0.4987 H   0  0  0  0  0  0  0  0  0  0  0  0
    0.3075    1.4670   -0.4690 H   0  0  0  0  0  0  0  0  0  0  0  0
   -0.5028    0.4060   -2.1191 C   0  0  0  0  0  0  0  0  0  0  0  0
   -0.4386   -0.8840   -2.6006 N   0  0  0  0  0  0  0  0  0  0  0  0
   -0.3342   -1.7211   -2.0471 H   0  0  0  0  0  0  0  0  0  0  0  0
   -0.5339   -0.8328   -3.9399 C   0  0  0  0  0  0  0  0  0  0  0  0
   -0.5087   -1.6894   -4.6024 H   0  0  0  0  0  0  0  0  0  0  0  0
   -0.6699    0.4374   -4.3477 N   0  0  0  0  0  0  0  0  0  0  0  0
   -0.6473    1.2343   -3.2001 C   0  0  0  0  0  0  0  0  0  0  0  0
   -0.7606    2.3101   -3.1668 H   0  0  0  0  0  0  0  0  0  0  0  0
   -0.1073    0.0565    1.7296 C   0  0  0  0  0  0  0  0  0  0  0  0
    1.0285   -0.1699    2.1459 O   0  0  0  0  0  0  0  0  0  0  0  0
   -1.0395    0.6588    2.4785 N   0  0  0  0  0  0  0  0  0  0  0  0
   -1.9636    0.7597    2.0849 H   0  0  0  0  0  0  0  0  0  0  0  0
   -0.8222    1.1334    3.8425 C   0  0  0  0  0  0  0  0  0  0  0  0
   -0.0212    1.8761    3.8521 H   0  0  0  0  0  0  0  0  0  0  0  0
   -1.7349    1.5853    4.2320 H   0  0  0  0  0  0  0  0  0  0  0  0
   -0.5312    0.2997    4.4834 H   0  0  0  0  0  0  0  0  0  0  0  0
  5  6  2  0  0  0  0
  5  7  1  0  0  0  0
  2  3  1  0  0  0  0
  2  4  1  0  0  0  0
  2  5  1  0  0  0  0
  1  2  1  0  0  0  0
 22 23  2  0  0  0  0
 22 24  1  0  0  0  0
 20 21  1  0  0  0  0
 19 20  1  0  0  0  0
 17 18  1  0  0  0  0
 17 19  2  0  0  0  0
 15 16  1  0  0  0  0
 15 17  1  0  0  0  0
 14 15  1  0  0  0  0
 14 20  2  0  0  0  0
 11 12  1  0  0  0  0
 11 13  1  0  0  0  0
 11 14  1  0  0  0  0
  9 10  1  0  0  0  0
  9 11  1  0  0  0  0
  9 22  1  0  0  0  0
  7  8  1  0  0  0  0
  7  9  1  0  0  0  0
 26 27  1  0  0  0  0
 26 28  1  0  0  0  0
 26 29  1  0  0  0  0
 24 25  1  0  0  0  0
 24 26  1  0  0  0  0
M  END
$$$$
default_name
  -OEChem-02102213163D

 29 29  0     1  0  0  0  0  0999 V2000
   -3.6042   -3.5728    1.4576 H   0  0  0  0  0  0  0  0  0  0  0  0
   -3.5202   -2.6488    0.8866 C   0  0  0  0  0  0  0  0  0  0  0  0
   -4.2052   -1.9048    1.2896 H   0  0  0  0  0  0  0  0  0  0  0  0
   -3.7552   -2.8428   -0.1584 H   0  0  0  0  0  0  0  0  0  0  0  0
   -2.1052   -2.1358    0.9946 C   0  0  0  0  0  0  0  0  0  0  0  0
   -1.2852   -2.7288    1.6826 O   0  0  0  0  0  0  0  0  0  0  0  0
   -1.8202   -1.0288    0.3146 N   0  0  0  0  0  0  0  0  0  0  0  0
   -2.5542   -0.5788   -0.2104 H   0  0  0  0  0  0  0  0  0  0  0  0
   -0.5102   -0.3728    0.3086 C   0  0  1  0  0  0  0  0  0  0  0  0
    0.2354   -1.0844   -0.0490 H   0  0  0  0  0  0  0  0  0  0  0  0
   -0.5452    0.8158   -0.6698 C   0  0  0  0  0  0  0  0  0  0  0  0
   -1.4557    1.3928   -0.4987 H   0  0  0  0  0  0  0  0  0  0  0  0
    0.3075    1.4670   -0.4690 H   0  0  0  0  0  0  0  0  0  0  0  0
   -0.5028    0.4060   -2.1191 C   0  0  0  0  0  0  0  0  0  0  0  0
   -0.7273   -0.8600   -2.6158 N   0  0  0  0  0  0  0  0  0  0  0  0
   -0.8741   -1.6959   -2.0700 H   0  0  0  0  0  0  0  0  0  0  0  0
   -0.7111   -0.7889   -3.9575 C   0  0  0  0  0  0  0  0  0  0  0  0
   -0.8525   -1.6258   -4.6305 H   0  0  0  0  0  0  0  0  0  0  0  0
   -0.4974    0.4744   -4.3531 N   0  0  0  0  0  0  0  0  0  0  0  0
   -0.3593    1.2424   -3.1939 C   0  0  0  0  0  0  0  0  0  0  0  0
   -0.2036    2.3126   -3.1512 H   0  0  0  0  0  0  0  0  0  0  0  0
   -0.1073    0.0565    1.7296 C   0  0  0  0  0  0  0  0  0  0  0  0
    1.0285   -0.1699    2.1459 O   0  0  0  0  0  0  0  0  0  0  0  0
   -1.0395    0.6588    2.4785 N   0  0  0  0  0  0  0  0  0  0  0  0
   -1.9636    0.7597    2.0849 H   0  0  0  0  0  0  0  0  0  0  0  0
   -0.8222    1.1334    3.8425 C   0  0  0  0  0  0  0  0  0  0  0  0
   -0.0212    1.8761    3.8521 H   0  0  0  0  0  0  0  0  0  0  0  0
   -1.7349    1.5853    4.2320 H   0  0  0  0  0  0  0  0  0  0  0  0
   -0.5312    0.2997    4.4834 H   0  0  0  0  0  0  0  0  0  0  0  0
  5  6  2  0  0  0  0
  5  7  1  0  0  0  0
  2  3  1  0  0  0  0
  2  4  1  0  0  0  0
  2  5  1  0  0  0  0
  1  2  1  0  0  0  0
 22 23  2  0  0  0  0
 22 24  1  0  0  0  0
 20 21  1  0  0  0  0
 19 20  1  0  0  0  0
 17 18  1  0  0  0  0
 17 19  2  0  0  0  0
 15 16  1  0  0  0  0
 15 17  1  0  0  0  0
 14 15  1  0  0  0  0
 14 20  2  0  0  0  0
 11 12  1  0  0  0  0
 11 13  1  0  0  0  0
 11 14  1  0  0  0  0
  9 10  1  0  0  0  0
  9 11  1  0  0  0  0
  9 22  1  0  0  0  0
  7  8  1  0  0  0  0
  7  9  1  0  0  0  0
 26 27  1  0  0  0  0
 26 28  1  0  0  0  0
 26 29  1  0  0  0  0
 24 25  1  0  0  0  0
 24 26  1  0  0  0  0
M  END
$$$$
default_name
  -OEChem-02102213163D

 29 29  0     1  0  0  0  0  0999 V2000
   -3.6042   -3.5728    1.4576 H   0  0  0  0  0  0  0  0  0  0  0  0
   -3.5202   -2.6488    0.8866 C   0  0  0  0  0  0  0  0  0  0  0  0
   -4.2052   -1.9048    1.2896 H   0  0  0  0  0  0  0  0  0  0  0  0
   -3.7552   -2.8428   -0.1584 H   0  0  0  0  0  0  0  0  0  0  0  0
   -2.1052   -2.1358    0.9946 C   0  0  0  0  0  0  0  0  0  0  0  0
   -1.2852   -2.7288    1.6826 O   0  0  0  0  0  0  0  0  0  0  0  0
   -1.8202   -1.0288    0.3146 N   0  0  0  0  0  0  0  0  0  0  0  0
   -2.5542   -0.5788   -0.2104 H   0  0  0  0  0  0  0  0  0  0  0  0
   -0.5102   -0.3728    0.3086 C   0  0  1  0  0  0  0  0  0  0  0  0
    0.2354   -1.0844   -0.0490 H   0  0  0  0  0  0  0  0  0  0  0  0
   -0.5452    0.8158   -0.6698 C   0  0  0  0  0  0  0  0  0  0  0  0
   -1.4557    1.3928   -0.4987 H   0  0  0  0  0  0  0  0  0  0  0  0
    0.3075    1.4670   -0.4690 H   0  0  0  0  0  0  0  0  0  0  0  0
   -0.5028    0.4060   -2.1191 C   0  0  0  0  0  0  0  0  0  0  0  0
   -0.9991   -0.7649   -2.6507 N   0  0  0  0  0  0  0  0  0  0  0  0
   -1.3877   -1.5369   -2.1300 H   0  0  0  0  0  0  0  0  0  0  0  0
   -0.8701   -0.7023   -3.9867 C   0  0  0  0  0  0  0  0  0  0  0  0
   -1.1668   -1.4786   -4.6813 H   0  0  0  0  0  0  0  0  0  0  0  0
   -0.3213    0.4673   -4.3459 N   0  0  0  0  0  0  0  0  0  0  0  0
   -0.0795    1.1785   -3.1677 C   0  0  0  0  0  0  0  0  0  0  0  0
    0.3340    2.1762   -3.0969 H   0  0  0  0  0  0  0  0  0  0  0  0
   -0.1073    0.0565    1.7296 C   0  0  0  0  0  0  0  0  0  0  0  0
    1.0285   -0.1699    2.1459 O   0  0  0  0  0  0  0  0  0  0  0  0
   -1.0395    0.6588    2.4785 N   0  0  0  0  0  0  0  0  0  0  0  0
   -1.9636    0.7597    2.0849 H   0  0  0  0  0  0  0  0  0  0  0  0
   -0.8222    1.1334    3.8425 C   0  0  0  0  0  0  0  0  0  0  0  0
   -0.0212    1.8761    3.8521 H   0  0  0  0  0  0  0  0  0  0  0  0
   -1.7349    1.5853    4.2320 H   0  0  0  0  0  0  0  0  0  0  0  0
   -0.5312    0.2997    4.4834 H   0  0  0  0  0  0  0  0  0  0  0  0
  5  6  2  0  0  0  0
  5  7  1  0  0  0  0
  2  3  1  0  0  0  0
  2  4  1  0  0  0  0
  2  5  1  0  0  0  0
  1  2  1  0  0  0  0
 22 23  2  0  0  0  0
 22 24  1  0  0  0  0
 20 21  1  0  0  0  0
 19 20  1  0  0  0  0
 17 18  1  0  0  0  0
 17 19  2  0  0  0  0
 15 16  1  0  0  0  0
 15 17  1  0  0  0  0
 14 15  1  0  0  0  0
 14 20  2  0  0  0  0
 11 12  1  0  0  0  0
 11 13  1  0  0  0  0
 11 14  1  0  0  0  0
  9 10  1  0  0  0  0
  9 11  1  0  0  0  0
  9 22  1  0  0  0  0
  7  8  1  0  0  0  0
  7  9  1  0  0  0  0
 26 27  1  0  0  0  0
 26 28  1  0  0  0  0
 26 29  1  0  0  0  0
 24 25  1  0  0  0  0
 24 26  1  0  0  0  0
M  END
$$$$
default_name
  -OEChem-02102213163D

 29 29  0     1  0  0  0  0  0999 V2000
   -3.6042   -3.5728    1.4576 H   0  0  0  0  0  0  0  0  0  0  0  0
   -3.5202   -2.6488    0.8866 C   0  0  0  0  0  0  0  0  0  0  0  0
   -4.2052   -1.9048    1.2896 H   0  0  0  0  0  0  0  0  0  0  0  0
   -3.7552   -2.8428   -0.1584 H   0  0  0  0  0  0  0  0  0  0  0  0
   -2.1052   -2.1358    0.9946 C   0  0  0  0  0  0  0  0  0  0  0  0
   -1.2852   -2.7288    1.6826 O   0  0  0  0  0  0  0  0  0  0  0  0
   -1.8202   -1.0288    0.3146 N   0  0  0  0  0  0  0  0  0  0  0  0
   -2.5542   -0.5788   -0.2104 H   0  0  0  0  0  0  0  0  0  0  0  0
   -0.5102   -0.3728    0.3086 C   0  0  1  0  0  0  0  0  0  0  0  0
    0.2354   -1.0844   -0.0490 H   0  0  0  0  0  0  0  0  0  0  0  0
   -0.5452    0.8158   -0.6698 C   0  0  0  0  0  0  0  0  0  0  0  0
   -1.4557    1.3928   -0.4987 H   0  0  0  0  0  0  0  0  0  0  0  0
    0.3075    1.4670   -0.4690 H   0  0  0  0  0  0  0  0  0  0  0  0
   -0.5028    0.4060   -2.1191 C   0  0  0  0  0  0  0  0  0  0  0  0
   -1.2355   -0.6052   -2.7028 N   0  0  0  0  0  0  0  0  0  0  0  0
   -1.8400   -1.2551   -2.2229 H   0  0  0  0  0  0  0  0  0  0  0  0
   -1.0001   -0.5788   -4.0254 C   0  0  0  0  0  0  0  0  0  0  0  0
   -1.4302   -1.2578   -4.7514 H   0  0  0  0  0  0  0  0  0  0  0  0
   -0.1534    0.4165   -4.3267 N   0  0  0  0  0  0  0  0  0  0  0  0
    0.1730    1.0469   -3.1231 C   0  0  0  0  0  0  0  0  0  0  0  0
    0.8155    1.9102   -3.0076 H   0  0  0  0  0  0  0  0  0  0  0  0
   -0.1073    0.0565    1.7296 C   0  0  0  0  0  0  0  0  0  0  0  0
    1.0285   -0.1699    2.1459 O   0  0  0  0  0  0  0  0  0  0  0  0
   -1.0395    0.6588    2.4785 N   0  0  0  0  0  0  0  0  0  0  0  0
   -1.9636    0.7597    2.0849 H   0  0  0  0  0  0  0  0  0  0  0  0
   -0.8222    1.1334    3.8425 C   0  0  0  0  0  0  0  0  0  0  0  0
   -0.0212    1.8761    3.8521 H   0  0  0  0  0  0  0  0  0  0  0  0
   -1.7349    1.5853    4.2320 H   0  0  0  0  0  0  0  0  0  0  0  0
   -0.5312    0.2997    4.4834 H   0  0  0  0  0  0  0  0  0  0  0  0
  5  6  2  0  0  0  0
  5  7  1  0  0  0  0
  2  3  1  0  0  0  0
  2  4  1  0  0  0  0
  2  5  1  0  0  0  0
  1  2  1  0  0  0  0
 22 23  2  0  0  0  0
 22 24  1  0  0  0  0
 20 21  1  0  0  0  0
 19 20  1  0  0  0  0
 17 18  1  0  0  0  0
 17 19  2  0  0  0  0
 15 16  1  0  0  0  0
 15 17  1  0  0  0  0
 14 15  1  0  0  0  0
 14 20  2  0  0  0  0
 11 12  1  0  0  0  0
 11 13  1  0  0  0  0
 11 14  1  0  0  0  0
  9 10  1  0  0  0  0
  9 11  1  0  0  0  0
  9 22  1  0  0  0  0
  7  8  1  0  0  0  0
  7  9  1  0  0  0  0
 26 27  1  0  0  0  0
 26 28  1  0  0  0  0
 26 29  1  0  0  0  0
 24 25  1  0  0  0  0
 24 26  1  0  0  0  0
M  END
$$$$
default_name
  -OEChem-02102213163D

 29 29  0     1  0  0  0  0  0999 V2000
   -3.6042   -3.5728    1.4576 H   0  0  0  0  0  0  0  0  0  0  0  0
   -3.5202   -2.6488    0.8866 C   0  0  0  0  0  0  0  0  0  0  0  0
   -4.2052   -1.9048    1.2896 H   0  0  0  0  0  0  0  0  0  0  0  0
   -3.7552   -2.8428   -0.1584 H   0  0  0  0  0  0  0  0  0  0  0  0
   -2.1052   -2.1358    0.9946 C   0  0  0  0  0  0  0  0  0  0  0  0
   -1.2852   -2.7288    1.6826 O   0  0  0  0  0  0  0  0  0  0  0  0
   -1.8202   -1.0288    0.3146 N   0  0  0  0  0  0  0  0  0  0  0  0
   -2.5542   -0.5788   -0.2104 H   0  0  0  0  0  0  0  0  0  0  0  0
   -0.5102   -0.3728    0.3086 C   0  0  1  0  0  0  0  0  0  0  0  0
    0.2354   -1.0844   -0.0490 H   0  0  0  0  0  0  0  0  0  0  0  0
   -0.5452    0.8158   -0.6698 C   0  0  0  0  0  0  0  0  0  0  0  0
   -1.4557    1.3928   -0.4987 H   0  0  0  0  0  0  0  0  0  0  0  0
    0.3075    1.4670   -0.4690 H   0  0  0  0  0  0  0  0  0  0  0  0
   -0.5028    0.4060   -2.1191 C   0  0  0  0  0  0  0  0  0  0  0  0
   -1.4204   -0.3916   -2.7686 N   0  0  0  0  0  0  0  0  0  0  0  0
   -2.2002   -0.8696   -2.3424 H   0  0  0  0  0  0  0  0  0  0  0  0
   -1.0921   -0.4269   -4.0710 C   0  0  0  0  0  0  0  0  0  0  0  0
   -1.6247   -0.9785   -4.8361 H   0  0  0  0  0  0  0  0  0  0  0  0
   -0.0053    0.3256   -4.2966 N   0  0  0  0  0  0  0  0  0  0  0  0
    0.3809    0.8567   -3.0632 C   0  0  0  0  0  0  0  0  0  0  0  0
    1.2080    1.5328   -2.8894 H   0  0  0  0  0  0  0  0  0  0  0  0
   -0.1073    0.0565    1.7296 C   0  0  0  0  0  0  0  0  0  0  0  0
    1.0285   -0.1699    2.1459 O   0  0  0  0  0  0  0  0  0  0  0  0
   -1.0395    0.6588    2.4785 N   0  0  0  0  0  0  0  0  0  0  0  0
   -1.9636    0.7597    2.0849 H   0  0  0  0  0  0  0  0  0  0  0  0
   -0.8222    1.1334    3.8425 C   0  0  0  0  0  0  0  0  0  0  0  0
   -0.0212    1.8761    3.8521 H   0  0  0  0  0  0  0  0  0  0  0  0
   -1.7349    1.5853    4.2320 H   0  0  0  0  0  0  0  0  0  0  0  0
   -0.5312    0.2997    4.4834 H   0  0  0  0  0  0  0  0  0  0  0  0
  5  6  2  0  0  0  0
  5  7  1  0  0  0  0
  2  3  1  0  0  0  0
  2  4  1  0  0  0  0
  2  5  1  0  0  0  0
  1  2  1  0  0  0  0
 22 23  2  0  0  0  0
 22 24  1  0  0  0  0
 20 21  1  0  0  0  0
 19 20  1  0  0  0  0
 17 18  1  0  0  0  0
 17 19  2  0  0  0  0
 15 16  1  0  0  0  0
 15 17  1  0  0  0  0
 14 15  1  0  0  0  0
 14 20  2  0  0  0  0
 11 12  1  0  0  0  0
 11 13  1  0  0  0  0
 11 14  1  0  0  0  0
  9 10  1  0  0  0  0
  9 11  1  0  0  0  0
  9 22  1  0  0  0  0
  7  8  1  0  0  0  0
  7  9  1  0  0  0  0
 26 27  1  0  0  0  0
 26 28  1  0  0  0  0
 26 29  1  0  0  0  0
 24 25  1  0  0  0  0
 24 26  1  0  0  0  0
M  END
$$$$
default_name
  -OEChem-02102213163D

 29 29  0     1  0  0  0  0  0999 V2000
   -3.6042   -3.5728    1.4576 H   0  0  0  0  0  0  0  0  0  0  0  0
   -3.5202   -2.6488    0.8866 C   0  0  0  0  0  0  0  0  0  0  0  0
   -4.2052   -1.9048    1.2896 H   0  0  0  0  0  0  0  0  0  0  0  0
   -3.7552   -2.8428   -0.1584 H   0  0  0  0  0  0  0  0  0  0  0  0
   -2.1052   -2.1358    0.9946 C   0  0  0  0  0  0  0  0  0  0  0  0
   -1.2852   -2.7288    1.6826 O   0  0  0  0  0  0  0  0  0  0  0  0
   -1.8202   -1.0288    0.3146 N   0  0  0  0  0  0  0  0  0  0  0  0
   -2.5542   -0.5788   -0.2104 H   0  0  0  0  0  0  0  0  0  0  0  0
   -0.5102   -0.3728    0.3086 C   0  0  1  0  0  0  0  0  0  0  0  0
    0.2354   -1.0844   -0.0490 H   0  0  0  0  0  0  0  0  0  0  0  0
   -0.5452    0.8158   -0.6698 C   0  0  0  0  0  0  0  0  0  0  0  0
   -1.4557    1.3928   -0.4987 H   0  0  0  0  0  0  0  0  0  0  0  0
    0.3075    1.4670   -0.4690 H   0  0  0  0  0  0  0  0  0  0  0  0
   -0.5028    0.4060   -2.1191 C   0  0  0  0  0  0  0  0  0  0  0  0
   -1.5412   -0.1388   -2.8436 N   0  0  0  0  0  0  0  0  0  0  0  0
   -2.4437   -0.4067   -2.4804 H   0  0  0  0  0  0  0  0  0  0  0  0
   -1.1400   -0.2569   -4.1205 C   0  0  0  0  0  0  0  0  0  0  0  0
   -1.7371   -0.6596   -4.9295 H   0  0  0  0  0  0  0  0  0  0  0  0
    0.1130    0.2006   -4.2578 N   0  0  0  0  0  0  0  0  0  0  0  0
    0.5302    0.6207   -2.9921 C   0  0  0  0  0  0  0  0  0  0  0  0
    1.4849    1.0696   -2.7504 H   0  0  0  0  0  0  0  0  0  0  0  0
   -0.1073    0.0565    1.7296 C   0  0  0  0  0  0  0  0  0  0  0  0
    1.0285   -0.1699    2.1459 O   0  0  0  0  0  0  0  0  0  0  0  0
   -1.0395    0.6588    2.4785 N   0  0  0  0  0  0  0  0  0  0  0  0
   -1.9636    0.7597    2.0849 H   0  0  0  0  0  0  0  0  0  0  0  0
   -0.8222    1.1334    3.8425 C   0  0  0  0  0  0  0  0  0  0  0  0
   -0.0212    1.8761    3.8521 H   0  0  0  0  0  0  0  0  0  0  0  0
   -1.7349    1.5853    4.2320 H   0  0  0  0  0  0  0  0  0  0  0  0
   -0.5312    0.2997    4.4834 H   0  0  0  0  0  0  0  0  0  0  0  0
  5  6  2  0  0  0  0
  5  7  1  0  0  0  0
  2  3  1  0  0  0  0
  2  4  1  0  0  0  0
  2  5  1  0  0  0  0
  1  2  1  0  0  0  0
 22 23  2  0  0  0  0
 22 24  1  0  0  0  0
 20 21  1  0  0  0  0
 19 20  1  0  0  0  0
 17 18  1  0  0  0  0
 17 19  2  0  0  0  0
 15 16  1  0  0  0  0
 15 17  1  0  0  0  0
 14 15  1  0  0  0  0
 14 20  2  0  0  0  0
 11 12  1  0  0  0  0
 11 13  1  0  0  0  0
 11 14  1  0  0  0  0
  9 10  1  0  0  0  0
  9 11  1  0  0  0  0
  9 22  1  0  0  0  0
  7  8  1  0  0  0  0
  7  9  1  0  0  0  0
 26 27  1  0  0  0  0
 26 28  1  0  0  0  0
 26 29  1  0  0  0  0
 24 25  1  0  0  0  0
 24 26  1  0  0  0  0
M  END
$$$$
default_name
  -OEChem-02102213163D

 29 29  0     1  0  0  0  0  0999 V2000
   -3.6042   -3.5728    1.4576 H   0  0  0  0  0  0  0  0  0  0  0  0
   -3.5202   -2.6488    0.8866 C   0  0  0  0  0  0  0  0  0  0  0  0
   -4.2052   -1.9048    1.2896 H   0  0  0  0  0  0  0  0  0  0  0  0
   -3.7552   -2.8428   -0.1584 H   0  0  0  0  0  0  0  0  0  0  0  0
   -2.1052   -2.1358    0.9946 C   0  0  0  0  0  0  0  0  0  0  0  0
   -1.2852   -2.7288    1.6826 O   0  0  0  0  0  0  0  0  0  0  0  0
   -1.8202   -1.0288    0.3146 N   0  0  0  0  0  0  0  0  0  0  0  0
   -2.5542   -0.5788   -0.2104 H   0  0  0  0  0  0  0  0  0  0  0  0
   -0.5102   -0.3728    0.3086 C   0  0  1  0  0  0  0  0  0  0  0  0
    0.2354   -1.0844   -0.0490 H   0  0  0  0  0  0  0  0  0  0  0  0
   -0.5452    0.8158   -0.6698 C   0  0  0  0  0  0  0  0  0  0  0  0
   -1.4557    1.3928   -0.4987 H   0  0  0  0  0  0  0  0  0  0  0  0
    0.3075    1.4670   -0.4690 H   0  0  0  0  0  0  0  0  0  0  0  0
   -0.5028    0.4060   -2.1191 C   0  0  0  0  0  0  0  0  0  0  0  0
   -1.5897    0.1360   -2.9227 N   0  0  0  0  0  0  0  0  0  0  0  0
   -2.5540    0.1021   -2.6275 H   0  0  0  0  0  0  0  0  0  0  0  0
   -1.1405   -0.0804   -4.1704 C   0  0  0  0  0  0  0  0  0  0  0  0
   -1.7597   -0.3230   -5.0254 H   0  0  0  0  0  0  0  0  0  0  0  0
    0.1935    0.0501   -4.2129 N   0  0  0  0  0  0  0  0  0  0  0  0
    0.6107    0.3550   -2.9147 C   0  0  0  0  0  0  0  0  0  0  0  0
    1.6273    0.5523   -2.5999 H   0  0  0  0  0  0  0  0  0  0  0  0
   -0.1073    0.0565    1.7296 C   0  0  0  0  0  0  0  0  0  0  0  0
    1.0285   -0.1699    2.1459 O   0  0  0  0  0  0  0  0  0  0  0  0
   -1.0395    0.6588    2.4785 N   0  0  0  0  0  0  0  0  0  0  0  0
   -1.9636    0.7597    2.0849 H   0  0  0  0  0  0  0  0  0  0  0  0
   -0.8222    1.1334    3.8425 C   0  0  0  0  0  0  0  0  0  0  0  0
   -0.0212    1.8761    3.8521 H   0  0  0  0  0  0  0  0  0  0  0  0
   -1.7349    1.5853    4.2320 H   0  0  0  0  0  0  0  0  0  0  0  0
   -0.5312    0.2997    4.4834 H   0  0  0  0  0  0  0  0  0  0  0  0
  5  6  2  0  0  0  0
  5  7  1  0  0  0  0
  2  3  1  0  0  0  0
  2  4  1  0  0  0  0
  2  5  1  0  0  0  0
  1  2  1  0  0  0  0
 22 23  2  0  0  0  0
 22 24  1  0  0  0  0
 20 21  1  0  0  0  0
 19 20  1  0  0  0  0
 17 18  1  0  0  0  0
 17 19  2  0  0  0  0
 15 16  1  0  0  0  0
 15 17  1  0  0  0  0
 14 15  1  0  0  0  0
 14 20  2  0  0  0  0
 11 12  1  0  0  0  0
 11 13  1  0  0  0  0
 11 14  1  0  0  0  0
  9 10  1  0  0  0  0
  9 11  1  0  0  0  0
  9 22  1  0  0  0  0
  7  8  1  0  0  0  0
  7  9  1  0  0  0  0
 26 27  1  0  0  0  0
 26 28  1  0  0  0  0
 26 29  1  0  0  0  0
 24 25  1  0  0  0  0
 24 26  1  0  0  0  0
M  END
$$$$
default_name
  -OEChem-02102213163D

 29 29  0     1  0  0  0  0  0999 V2000
   -3.6042   -3.5728    1.4576 H   0  0  0  0  0  0  0  0  0  0  0  0
   -3.5202   -2.6488    0.8866 C   0  0  0  0  0  0  0  0  0  0  0  0
   -4.2052   -1.9048    1.2896 H   0  0  0  0  0  0  0  0  0  0  0  0
   -3.7552   -2.8428   -0.1584 H   0  0  0  0  0  0  0  0  0  0  0  0
   -2.1052   -2.1358    0.9946 C   0  0  0  0  0  0  0  0  0  0  0  0
   -1.2852   -2.7288    1.6826 O   0  0  0  0  0  0  0  0  0  0  0  0
   -1.8202   -1.0288    0.3146 N   0  0  0  0  0  0  0  0  0  0  0  0
   -2.5542   -0.5788   -0.2104 H   0  0  0  0  0  0  0  0  0  0  0  0
   -0.5102   -0.3728    0.3086 C   0  0  1  0  0  0  0  0  0  0  0  0
    0.2354   -1.0844   -0.0490 H   0  0  0  0  0  0  0  0  0  0  0  0
   -0.5452    0.8158   -0.6698 C   0  0  0  0  0  0  0  0  0  0  0  0
   -1.4557    1.3928   -0.4987 H   0  0  0  0  0  0  0  0  0  0  0  0
    0.3075    1.4670   -0.4690 H   0  0  0  0  0  0  0  0  0  0  0  0
   -0.5028    0.4060   -2.1191 C   0  0  0  0  0  0  0  0  0  0  0  0
   -1.5625    0.4141   -3.0005 N   0  0  0  0  0  0  0  0  0  0  0  0
   -2.5235    0.6221   -2.7736 H   0  0  0  0  0  0  0  0  0  0  0  0
   -1.0935    0.0905   -4.2173 C   0  0  0  0  0  0  0  0  0  0  0  0
   -1.6909    0.0085   -5.1171 H   0  0  0  0  0  0  0  0  0  0  0  0
    0.2306   -0.1156   -4.1650 N   0  0  0  0  0  0  0  0  0  0  0  0
    0.6168    0.0779   -2.8361 C   0  0  0  0  0  0  0  0  0  0  0  0
    1.6254    0.0160   -2.4484 H   0  0  0  0  0  0  0  0  0  0  0  0
   -0.1073    0.0565    1.7296 C   0  0  0  0  0  0  0  0  0  0  0  0
    1.0285   -0.1699    2.1459 O   0  0  0  0  0  0  0  0  0  0  0  0
   -1.0395    0.6588    2.4785 N   0  0  0  0  0  0  0  0  0  0  0  0
   -1.9636    0.7597    2.0849 H   0  0  0  0  0  0  0  0  0  0  0  0
   -0.8222    1.1334    3.8425 C   0  0  0  0  0  0  0  0  0  0  0  0
   -0.0212    1.8761    3.8521 H   0  0  0  0  0  0  0  0  0  0  0  0
   -1.7349    1.5853    4.2320 H   0  0  0  0  0  0  0  0  0  0  0  0
   -0.5312    0.2997    4.4834 H   0  0  0  0  0  0  0  0  0  0  0  0
  5  6  2  0  0  0  0
  5  7  1  0  0  0  0
  2  3  1  0  0  0  0
  2  4  1  0  0  0  0
  2  5  1  0  0  0  0
  1  2  1  0  0  0  0
 22 23  2  0  0  0  0
 22 24  1  0  0  0  0
 20 21  1  0  0  0  0
 19 20  1  0  0  0  0
 17 18  1  0  0  0  0
 17 19  2  0  0  0  0
 15 16  1  0  0  0  0
 15 17  1  0  0  0  0
 14 15  1  0  0  0  0
 14 20  2  0  0  0  0
 11 12  1  0  0  0  0
 11 13  1  0  0  0  0
 11 14  1  0  0  0  0
  9 10  1  0  0  0  0
  9 11  1  0  0  0  0
  9 22  1  0  0  0  0
  7  8  1  0  0  0  0
  7  9  1  0  0  0  0
 26 27  1  0  0  0  0
 26 28  1  0  0  0  0
 26 29  1  0  0  0  0
 24 25  1  0  0  0  0
 24 26  1  0  0  0  0
M  END
$$$$
default_name
  -OEChem-02102213163D

 29 29  0     1  0  0  0  0  0999 V2000
   -3.6042   -3.5728    1.4576 H   0  0  0  0  0  0  0  0  0  0  0  0
   -3.5202   -2.6488    0.8866 C   0  0  0  0  0  0  0  0  0  0  0  0
   -4.2052   -1.9048    1.2896 H   0  0  0  0  0  0  0  0  0  0  0  0
   -3.7552   -2.8428   -0.1584 H   0  0  0  0  0  0  0  0  0  0  0  0
   -2.1052   -2.1358    0.9946 C   0  0  0  0  0  0  0  0  0  0  0  0
   -1.2852   -2.7288    1.6826 O   0  0  0  0  0  0  0  0  0  0  0  0
   -1.8202   -1.0288    0.3146 N   0  0  0  0  0  0  0  0  0  0  0  0
   -2.5542   -0.5788   -0.2104 H   0  0  0  0  0  0  0  0  0  0  0  0
   -0.5102   -0.3728    0.3086 C   0  0  1  0  0  0  0  0  0  0  0  0
    0.2354   -1.0844   -0.0490 H   0  0  0  0  0  0  0  0  0  0  0  0
   -0.5452    0.8158   -0.6698 C   0  0  0  0  0  0  0  0  0  0  0  0
   -1.4557    1.3928   -0.4987 H   0  0  0  0  0  0  0  0  0  0  0  0
    0.3075    1.4670   -0.4690 H   0  0  0  0  0  0  0  0  0  0  0  0
   -0.5028    0.4060   -2.1191 C   0  0  0  0  0  0  0  0  0  0  0  0
   -1.4616    0.6765   -3.0718 N   0  0  0  0  0  0  0  0  0  0  0  0
   -2.3543    1.1178   -2.9088 H   0  0  0  0  0  0  0  0  0  0  0  0
   -1.0022    0.2443   -4.2581 C   0  0  0  0  0  0  0  0  0  0  0  0
   -1.5355    0.3123   -5.1985 H   0  0  0  0  0  0  0  0  0  0  0  0
    0.2218   -0.2852   -4.1173 N   0  0  0  0  0  0  0  0  0  0  0  0
    0.5482   -0.1920   -2.7618 C   0  0  0  0  0  0  0  0  0  0  0  0
    1.4795   -0.5026   -2.3060 H   0  0  0  0  0  0  0  0  0  0  0  0
   -0.1073    0.0565    1.7296 C   0  0  0  0  0  0  0  0  0  0  0  0
    1.0285   -0.1699    2.1459 O   0  0  0  0  0  0  0  0  0  0  0  0
   -1.0395    0.6588    2.4785 N   0  0  0  0  0  0  0  0  0  0  0  0
   -1.9636    0.7597    2.0849 H   0  0  0  0  0  0  0  0  0  0  0  0
   -0.8222    1.1334    3.8425 C   0  0  0  0  0  0  0  0  0  0  0  0
   -0.0212    1.8761    3.8521 H   0  0  0  0  0  0  0  0  0  0  0  0
   -1.7349    1.5853    4.2320 H   0  0  0  0  0  0  0  0  0  0  0  0
   -0.5312    0.2997    4.4834 H   0  0  0  0  0  0  0  0  0  0  0  0
  5  6  2  0  0  0  0
  5  7  1  0  0  0  0
  2  3  1  0  0  0  0
  2  4  1  0  0  0  0
  2  5  1  0  0  0  0
  1  2  1  0  0  0  0
 22 23  2  0  0  0  0
 22 24  1  0  0  0  0
 20 21  1  0  0  0  0
 19 20  1  0  0  0  0
 17 18  1  0  0  0  0
 17 19  2  0  0  0  0
 15 16  1  0  0  0  0
 15 17  1  0  0  0  0
 14 15  1  0  0  0  0
 14 20  2  0  0  0  0
 11 12  1  0  0  0  0
 11 13  1  0  0  0  0
 11 14  1  0  0  0  0
  9 10  1  0  0  0  0
  9 11  1  0  0  0  0
  9 22  1  0  0  0  0
  7  8  1  0  0  0  0
  7  9  1  0  0  0  0
 26 27  1  0  0  0  0
 26 28  1  0  0  0  0
 26 29  1  0  0  0  0
 24 25  1  0  0  0  0
 24 26  1  0  0  0  0
M  END
$$$$
default_name
  -OEChem-02102213163D

 29 29  0     1  0  0  0  0  0999 V2000
   -3.6042   -3.5728    1.4576 H   0  0  0  0  0  0  0  0  0  0  0  0
   -3.5202   -2.6488    0.8866 C   0  0  0  0  0  0  0  0  0  0  0  0
   -4.2052   -1.9048    1.2896 H   0  0  0  0  0  0  0  0  0  0  0  0
   -3.7552   -2.8428   -0.1584 H   0  0  0  0  0  0  0  0  0  0  0  0
   -2.1052   -2.1358    0.9946 C   0  0  0  0  0  0  0  0  0  0  0  0
   -1.2852   -2.7288    1.6826 O   0  0  0  0  0  0  0  0  0  0  0  0
   -1.8202   -1.0288    0.3146 N   0  0  0  0  0  0  0  0  0  0  0  0
   -2.5542   -0.5788   -0.2104 H   0  0  0  0  0  0  0  0  0  0  0  0
   -0.5102   -0.3728    0.3086 C   0  0  1  0  0  0  0  0  0  0  0  0
    0.2354   -1.0844   -0.0490 H   0  0  0  0  0  0  0  0  0  0  0  0
   -0.5452    0.8158   -0.6698 C   0  0  0  0  0  0  0  0  0  0  0  0
   -1.4557    1.3928   -0.4987 H   0  0  0  0  0  0  0  0  0  0  0  0
    0.3075    1.4670   -0.4690 H   0  0  0  0  0  0  0  0  0  0  0  0
   -0.5028    0.4060   -2.1191 C   0  0  0  0  0  0  0  0  0  0  0  0
   -1.2937    0.9054   -3.1316 N   0  0  0  0  0  0  0  0  0  0  0  0
   -2.0579    1.5555   -3.0239 H   0  0  0  0  0  0  0  0  0  0  0  0
   -0.8729    0.3703   -4.2900 C   0  0  0  0  0  0  0  0  0  0  0  0
   -1.3041    0.5676   -5.2639 H   0  0  0  0  0  0  0  0  0  0  0  0
    0.1677   -0.4472   -4.0731 N   0  0  0  0  0  0  0  0  0  0  0  0
    0.4096   -0.4361   -2.6969 C   0  0  0  0  0  0  0  0  0  0  0  0
    1.1993   -0.9682   -2.1825 H   0  0  0  0  0  0  0  0  0  0  0  0
   -0.1073    0.0565    1.7296 C   0  0  0  0  0  0  0  0  0  0  0  0
    1.0285   -0.1699    2.1459 O   0  0  0  0  0  0  0  0  0  0  0  0
   -1.0395    0.6588    2.4785 N   0  0  0  0  0  0  0  0  0  0  0  0
   -1.9636    0.7597    2.0849 H   0  0  0  0  0  0  0  0  0  0  0  0
   -0.8222    1.1334    3.8425 C   0  0  0  0  0  0  0  0  0  0  0  0
   -0.0212    1.8761    3.8521 H   0  0  0  0  0  0  0  0  0  0  0  0
   -1.7349    1.5853    4.2320 H   0  0  0  0  0  0  0  0  0  0  0  0
   -0.5312    0.2997    4.4834 H   0  0  0  0  0  0  0  0  0  0  0  0
  5  6  2  0  0  0  0
  5  7  1  0  0  0  0
  2  3  1  0  0  0  0
  2  4  1  0  0  0  0
  2  5  1  0  0  0  0
  1  2  1  0  0  0  0
 22 23  2  0  0  0  0
 22 24  1  0  0  0  0
 20 21  1  0  0  0  0
 19 20  1  0  0  0  0
 17 18  1  0  0  0  0
 17 19  2  0  0  0  0
 15 16  1  0  0  0  0
 15 17  1  0  0  0  0
 14 15  1  0  0  0  0
 14 20  2  0  0  0  0
 11 12  1  0  0  0  0
 11 13  1  0  0  0  0
 11 14  1  0  0  0  0
  9 10  1  0  0  0  0
  9 11  1  0  0  0  0
  9 22  1  0  0  0  0
  7  8  1  0  0  0  0
  7  9  1  0  0  0  0
 26 27  1  0  0  0  0
 26 28  1  0  0  0  0
 26 29  1  0  0  0  0
 24 25  1  0  0  0  0
 24 26  1  0  0  0  0
M  END
$$$$
default_name
  -OEChem-02102213163D

 29 29  0     1  0  0  0  0  0999 V2000
   -3.6042   -3.5728    1.4576 H   0  0  0  0  0  0  0  0  0  0  0  0
   -3.5202   -2.6488    0.8866 C   0  0  0  0  0  0  0  0  0  0  0  0
   -4.2052   -1.9048    1.2896 H   0  0  0  0  0  0  0  0  0  0  0  0
   -3.7552   -2.8428   -0.1584 H   0  0  0  0  0  0  0  0  0  0  0  0
   -2.1052   -2.1358    0.9946 C   0  0  0  0  0  0  0  0  0  0  0  0
   -1.2852   -2.7288    1.6826 O   0  0  0  0  0  0  0  0  0  0  0  0
   -1.8202   -1.0288    0.3146 N   0  0  0  0  0  0  0  0  0  0  0  0
   -2.5542   -0.5788   -0.2104 H   0  0  0  0  0  0  0  0  0  0  0  0
   -0.5102   -0.3728    0.3086 C   0  0  1  0  0  0  0  0  0  0  0  0
    0.2354   -1.0844   -0.0490 H   0  0  0  0  0  0  0  0  0  0  0  0
   -0.5452    0.8158   -0.6698 C   0  0  0  0  0  0  0  0  0  0  0  0
   -1.4557    1.3928   -0.4987 H   0  0  0  0  0  0  0  0  0  0  0  0
    0.3075    1.4670   -0.4690 H   0  0  0  0  0  0  0  0  0  0  0  0
   -0.5028    0.4060   -2.1191 C   0  0  0  0  0  0  0  0  0  0  0  0
   -1.0704    1.0851   -3.1758 N   0  0  0  0  0  0  0  0  0  0  0  0
   -1.6546    1.9053   -3.1110 H   0  0  0  0  0  0  0  0  0  0  0  0
   -0.7144    0.4602   -4.3108 C   0  0  0  0  0  0  0  0  0  0  0  0
   -1.0124    0.7571   -5.3089 H   0  0  0  0  0  0  0  0  0  0  0  0
    0.0720   -0.5906   -4.0353 N   0  0  0  0  0  0  0  0  0  0  0  0
    0.2103   -0.6378   -2.6457 C   0  0  0  0  0  0  0  0  0  0  0  0
    0.8041   -1.3492   -2.0864 H   0  0  0  0  0  0  0  0  0  0  0  0
   -0.1073    0.0565    1.7296 C   0  0  0  0  0  0  0  0  0  0  0  0
    1.0285   -0.1699    2.1459 O   0  0  0  0  0  0  0  0  0  0  0  0
   -1.0395    0.6588    2.4785 N   0  0  0  0  0  0  0  0  0  0  0  0
   -1.9636    0.7597    2.0849 H   0  0  0  0  0  0  0  0  0  0  0  0
   -0.8222    1.1334    3.8425 C   0  0  0  0  0  0  0  0  0  0  0  0
   -0.0212    1.8761    3.8521 H   0  0  0  0  0  0  0  0  0  0  0  0
   -1.7349    1.5853    4.2320 H   0  0  0  0  0  0  0  0  0  0  0  0
   -0.5312    0.2997    4.4834 H   0  0  0  0  0  0  0  0  0  0  0  0
  5  6  2  0  0  0  0
  5  7  1  0  0  0  0
  2  3  1  0  0  0  0
  2  4  1  0  0  0  0
  2  5  1  0  0  0  0
  1  2  1  0  0  0  0
 22 23  2  0  0  0  0
 22 24  1  0  0  0  0
 20 21  1  0  0  0  0
 19 20  1  0  0  0  0
 17 18  1  0  0  0  0
 17 19  2  0  0  0  0
 15 16  1  0  0  0  0
 15 17  1  0  0  0  0
 14 15  1  0  0  0  0
 14 20  2  0  0  0  0
 11 12  1  0  0  0  0
 11 13  1  0  0  0  0
 11 14  1  0  0  0  0
  9 10  1  0  0  0  0
  9 11  1  0  0  0  0
  9 22  1  0  0  0  0
  7  8  1  0  0  0  0
  7  9  1  0  0  0  0
 26 27  1  0  0  0  0
 26 28  1  0  0  0  0
 26 29  1  0  0  0  0
 24 25  1  0  0  0  0
 24 26  1  0  0  0  0
M  END
$$$$
default_name
  -OEChem-02102213163D

 29 29  0     1  0  0  0  0  0999 V2000
   -3.6042   -3.5728    1.4576 H   0  0  0  0  0  0  0  0  0  0  0  0
   -3.5202   -2.6488    0.8866 C   0  0  0  0  0  0  0  0  0  0  0  0
   -4.2052   -1.9048    1.2896 H   0  0  0  0  0  0  0  0  0  0  0  0
   -3.7552   -2.8428   -0.1584 H   0  0  0  0  0  0  0  0  0  0  0  0
   -2.1052   -2.1358    0.9946 C   0  0  0  0  0  0  0  0  0  0  0  0
   -1.2852   -2.7288    1.6826 O   0  0  0  0  0  0  0  0  0  0  0  0
   -1.8202   -1.0288    0.3146 N   0  0  0  0  0  0  0  0  0  0  0  0
   -2.5542   -0.5788   -0.2104 H   0  0  0  0  0  0  0  0  0  0  0  0
   -0.5102   -0.3728    0.3086 C   0  0  1  0  0  0  0  0  0  0  0  0
    0.2354   -1.0844   -0.0490 H   0  0  0  0  0  0  0  0  0  0  0  0
   -0.5452    0.8158   -0.6698 C   0  0  0  0  0  0  0  0  0  0  0  0
   -1.4557    1.3928   -0.4987 H   0  0  0  0  0  0  0  0  0  0  0  0
    0.3075    1.4670   -0.4690 H   0  0  0  0  0  0  0  0  0  0  0  0
   -0.5028    0.4060   -2.1191 C   0  0  0  0  0  0  0  0  0  0  0  0
   -0.8069    1.2034   -3.2016 N   0  0  0  0  0  0  0  0  0  0  0  0
   -1.1718    2.1434   -3.1642 H   0  0  0  0  0  0  0  0  0  0  0  0
   -0.5374    0.5076   -4.3190 C   0  0  0  0  0  0  0  0  0  0  0  0
   -0.6802    0.8678   -5.3305 H   0  0  0  0  0  0  0  0  0  0  0  0
   -0.0588   -0.7055   -4.0067 N   0  0  0  0  0  0  0  0  0  0  0  0
   -0.0361   -0.7835   -2.6117 C   0  0  0  0  0  0  0  0  0  0  0  0
    0.3208   -1.6194   -2.0241 H   0  0  0  0  0  0  0  0  0  0  0  0
   -0.1073    0.0565    1.7296 C   0  0  0  0  0  0  0  0  0  0  0  0
    1.0285   -0.1699    2.1459 O   0  0  0  0  0  0  0  0  0  0  0  0
   -1.0395    0.6588    2.4785 N   0  0  0  0  0  0  0  0  0  0  0  0
   -1.9636    0.7597    2.0849 H   0  0  0  0  0  0  0  0  0  0  0  0
   -0.8222    1.1334    3.8425 C   0  0  0  0  0  0  0  0  0  0  0  0
   -0.0212    1.8761    3.8521 H   0  0  0  0  0  0  0  0  0  0  0  0
   -1.7349    1.5853    4.2320 H   0  0  0  0  0  0  0  0  0  0  0  0
   -0.5312    0.2997    4.4834 H   0  0  0  0  0  0  0  0  0  0  0  0
  5  6  2  0  0  0  0
  5  7  1  0  0  0  0
  2  3  1  0  0  0  0
  2  4  1  0  0  0  0
  2  5  1  0  0  0  0
  1  2  1  0  0  0  0
 22 23  2  0  0  0  0
 22 24  1  0  0  0  0
 20 21  1  0  0  0  0
 19 20  1  0  0  0  0
 17 18  1  0  0  0  0
 17 19  2  0  0  0  0
 15 16  1  0  0  0  0
 15 17  1  0  0  0  0
 14 15  1  0  0  0  0
 14 20  2  0  0  0  0
 11 12  1  0  0  0  0
 11 13  1  0  0  0  0
 11 14  1  0  0  0  0
  9 10  1  0  0  0  0
  9 11  1  0  0  0  0
  9 22  1  0  0  0  0
  7  8  1  0  0  0  0
  7  9  1  0  0  0  0
 26 27  1  0  0  0  0
 26 28  1  0  0  0  0
 26 29  1  0  0  0  0
 24 25  1  0  0  0  0
 24 26  1  0  0  0  0
M  END
$$$$
default_name
  -OEChem-02102213163D

 29 29  0     1  0  0  0  0  0999 V2000
   -3.6042   -3.5728    1.4576 H   0  0  0  0  0  0  0  0  0  0  0  0
   -3.5202   -2.6488    0.8866 C   0  0  0  0  0  0  0  0  0  0  0  0
   -4.2052   -1.9048    1.2896 H   0  0  0  0  0  0  0  0  0  0  0  0
   -3.7552   -2.8428   -0.1584 H   0  0  0  0  0  0  0  0  0  0  0  0
   -2.1052   -2.1358    0.9946 C   0  0  0  0  0  0  0  0  0  0  0  0
   -1.2852   -2.7288    1.6826 O   0  0  0  0  0  0  0  0  0  0  0  0
   -1.8202   -1.0288    0.3146 N   0  0  0  0  0  0  0  0  0  0  0  0
   -2.5542   -0.5788   -0.2104 H   0  0  0  0  0  0  0  0  0  0  0  0
   -0.5102   -0.3728    0.3086 C   0  0  1  0  0  0  0  0  0  0  0  0
    0.2354   -1.0844   -0.0490 H   0  0  0  0  0  0  0  0  0  0  0  0
   -0.5452    0.8158   -0.6698 C   0  0  0  0  0  0  0  0  0  0  0  0
   -1.2958    1.5333   -0.3337 H   0  0  0  0  0  0  0  0  0  0  0  0
    0.4254    1.3151   -0.6577 H   0  0  0  0  0  0  0  0  0  0  0  0
   -0.8616    0.4204   -2.0889 C   0  0  0  0  0  0  0  0  0  0  0  0
   -0.9584    1.2698   -3.1702 N   0  0  0  0  0  0  0  0  0  0  0  0
   -0.9062    2.2771   -3.1420 H   0  0  0  0  0  0  0  0  0  0  0  0
   -1.1406    0.5217   -4.2713 C   0  0  0  0  0  0  0  0  0  0  0  0
   -1.2578    0.9062   -5.2771 H   0  0  0  0  0  0  0  0  0  0  0  0
   -1.1538   -0.7805   -3.9511 N   0  0  0  0  0  0  0  0  0  0  0  0
   -0.9817   -0.8574   -2.5666 C   0  0  0  0  0  0  0  0  0  0  0  0
   -0.9174   -1.7647   -1.9800 H   0  0  0  0  0  0  0  0  0  0  0  0
   -0.1073    0.0565    1.7296 C   0  0  0  0  0  0  0  0  0  0  0  0
    1.0285   -0.1699    2.1459 O   0  0  0  0  0  0  0  0  0  0  0  0
   -1.0395    0.6588    2.4785 N   0  0  0  0  0  0  0  0  0  0  0  0
   -1.9636    0.7597    2.0849 H   0  0  0  0  0  0  0  0  0  0  0  0
   -0.8222    1.1334    3.8425 C   0  0  0  0  0  0  0  0  0  0  0  0
   -0.0212    1.8761    3.8521 H   0  0  0  0  0  0  0  0  0  0  0  0
   -1.7349    1.5853    4.2320 H   0  0  0  0  0  0  0  0  0  0  0  0
   -0.5312    0.2997    4.4834 H   0  0  0  0  0  0  0  0  0  0  0  0
  5  6  2  0  0  0  0
  5  7  1  0  0  0  0
  2  3  1  0  0  0  0
  2  4  1  0  0  0  0
  2  5  1  0  0  0  0
  1  2  1  0  0  0  0
 22 23  2  0  0  0  0
 22 24  1  0  0  0  0
 20 21  1  0  0  0  0
 19 20  1  0  0  0  0
 17 18  1  0  0  0  0
 17 19  2  0  0  0  0
 15 16  1  0  0  0  0
 15 17  1  0  0  0  0
 14 15  1  0  0  0  0
 14 20  2  0  0  0  0
 11 12  1  0  0  0  0
 11 13  1  0  0  0  0
 11 14  1  0  0  0  0
  9 10  1  0  0  0  0
  9 11  1  0  0  0  0
  9 22  1  0  0  0  0
  7  8  1  0  0  0  0
  7  9  1  0  0  0  0
 26 27  1  0  0  0  0
 26 28  1  0  0  0  0
 26 29  1  0  0  0  0
 24 25  1  0  0  0  0
 24 26  1  0  0  0  0
M  END
$$$$
default_name
  -OEChem-02102213163D

 29 29  0     1  0  0  0  0  0999 V2000
   -3.6042   -3.5728    1.4576 H   0  0  0  0  0  0  0  0  0  0  0  0
   -3.5202   -2.6488    0.8866 C   0  0  0  0  0  0  0  0  0  0  0  0
   -4.2052   -1.9048    1.2896 H   0  0  0  0  0  0  0  0  0  0  0  0
   -3.7552   -2.8428   -0.1584 H   0  0  0  0  0  0  0  0  0  0  0  0
   -2.1052   -2.1358    0.9946 C   0  0  0  0  0  0  0  0  0  0  0  0
   -1.2852   -2.7288    1.6826 O   0  0  0  0  0  0  0  0  0  0  0  0
   -1.8202   -1.0288    0.3146 N   0  0  0  0  0  0  0  0  0  0  0  0
   -2.5542   -0.5788   -0.2104 H   0  0  0  0  0  0  0  0  0  0  0  0
   -0.5102   -0.3728    0.3086 C   0  0  1  0  0  0  0  0  0  0  0  0
    0.2354   -1.0844   -0.0490 H   0  0  0  0  0  0  0  0  0  0  0  0
   -0.5452    0.8158   -0.6698 C   0  0  0  0  0  0  0  0  0  0  0  0
   -1.2958    1.5333   -0.3337 H   0  0  0  0  0  0  0  0  0  0  0  0
    0.4254    1.3151   -0.6577 H   0  0  0  0  0  0  0  0  0  0  0  0
   -0.8616    0.4204   -2.0889 C   0  0  0  0  0  0  0  0  0  0  0  0
   -0.6805    1.1984   -3.2122 N   0  0  0  0  0  0  0  0  0  0  0  0
   -0.3842    2.1628   -3.2265 H   0  0  0  0  0  0  0  0  0  0  0  0
   -0.9731    0.4489   -4.2884 C   0  0  0  0  0  0  0  0  0  0  0  0
   -0.9305    0.7865   -5.3167 H   0  0  0  0  0  0  0  0  0  0  0  0
   -1.3254   -0.7886   -3.9106 N   0  0  0  0  0  0  0  0  0  0  0  0
   -1.2624   -0.8178   -2.5150 C   0  0  0  0  0  0  0  0  0  0  0  0
   -1.4590   -1.6751   -1.8842 H   0  0  0  0  0  0  0  0  0  0  0  0
   -0.1073    0.0565    1.7296 C   0  0  0  0  0  0  0  0  0  0  0  0
    1.0285   -0.1699    2.1459 O   0  0  0  0  0  0  0  0  0  0  0  0
   -1.0395    0.6588    2.4785 N   0  0  0  0  0  0  0  0  0  0  0  0
   -1.9636    0.7597    2.0849 H   0  0  0  0  0  0  0  0  0  0  0  0
   -0.8222    1.1334    3.8425 C   0  0  0  0  0  0  0  0  0  0  0  0
   -0.0212    1.8761    3.8521 H   0  0  0  0  0  0  0  0  0  0  0  0
   -1.7349    1.5853    4.2320 H   0  0  0  0  0  0  0  0  0  0  0  0
   -0.5312    0.2997    4.4834 H   0  0  0  0  0  0  0  0  0  0  0  0
  5  6  2  0  0  0  0
  5  7  1  0  0  0  0
  2  3  1  0  0  0  0
  2  4  1  0  0  0  0
  2  5  1  0  0  0  0
  1  2  1  0  0  0  0
 22 23  2  0  0  0  0
 22 24  1  0  0  0  0
 20 21  1  0  0  0  0
 19 20  1  0  0  0  0
 17 18  1  0  0  0  0
 17 19  2  0  0  0  0
 15 16  1  0  0  0  0
 15 17  1  0  0  0  0
 14 15  1  0  0  0  0
 14 20  2  0  0  0  0
 11 12  1  0  0  0  0
 11 13  1  0  0  0  0
 11 14  1  0  0  0  0
  9 10  1  0  0  0  0
  9 11  1  0  0  0  0
  9 22  1  0  0  0  0
  7  8  1  0  0  0  0
  7  9  1  0  0  0  0
 26 27  1  0  0  0  0
 26 28  1  0  0  0  0
 26 29  1  0  0  0  0
 24 25  1  0  0  0  0
 24 26  1  0  0  0  0
M  END
$$$$
default_name
  -OEChem-02102213163D

 29 29  0     1  0  0  0  0  0999 V2000
   -3.6042   -3.5728    1.4576 H   0  0  0  0  0  0  0  0  0  0  0  0
   -3.5202   -2.6488    0.8866 C   0  0  0  0  0  0  0  0  0  0  0  0
   -4.2052   -1.9048    1.2896 H   0  0  0  0  0  0  0  0  0  0  0  0
   -3.7552   -2.8428   -0.1584 H   0  0  0  0  0  0  0  0  0  0  0  0
   -2.1052   -2.1358    0.9946 C   0  0  0  0  0  0  0  0  0  0  0  0
   -1.2852   -2.7288    1.6826 O   0  0  0  0  0  0  0  0  0  0  0  0
   -1.8202   -1.0288    0.3146 N   0  0  0  0  0  0  0  0  0  0  0  0
   -2.5542   -0.5788   -0.2104 H   0  0  0  0  0  0  0  0  0  0  0  0
   -0.5102   -0.3728    0.3086 C   0  0  1  0  0  0  0  0  0  0  0  0
    0.2354   -1.0844   -0.0490 H   0  0  0  0  0  0  0  0  0  0  0  0
   -0.5452    0.8158   -0.6698 C   0  0  0  0  0  0  0  0  0  0  0  0
   -1.2958    1.5333   -0.3337 H   0  0  0  0  0  0  0  0  0  0  0  0
    0.4254    1.3151   -0.6577 H   0  0  0  0  0  0  0  0  0  0  0  0
   -0.8616    0.4204   -2.0889 C   0  0  0  0  0  0  0  0  0  0  0  0
   -0.4265    1.0594   -3.2301 N   0  0  0  0  0  0  0  0  0  0  0  0
    0.0979    1.9207   -3.2665 H   0  0  0  0  0  0  0  0  0  0  0  0
   -0.8279    0.3369   -4.2895 C   0  0  0  0  0  0  0  0  0  0  0  0
   -0.6408    0.5889   -5.3262 H   0  0  0  0  0  0  0  0  0  0  0  0
   -1.4958   -0.7524   -3.8827 N   0  0  0  0  0  0  0  0  0  0  0  0
   -1.5274   -0.7083   -2.4864 C   0  0  0  0  0  0  0  0  0  0  0  0
   -1.9668   -1.4512   -1.8334 H   0  0  0  0  0  0  0  0  0  0  0  0
   -0.1073    0.0565    1.7296 C   0  0  0  0  0  0  0  0  0  0  0  0
    1.0285   -0.1699    2.1459 O   0  0  0  0  0  0  0  0  0  0  0  0
   -1.0395    0.6588    2.4785 N   0  0  0  0  0  0  0  0  0  0  0  0
   -1.9636    0.7597    2.0849 H   0  0  0  0  0  0  0  0  0  0  0  0
   -0.8222    1.1334    3.8425 C   0  0  0  0  0  0  0  0  0  0  0  0
   -0.0212    1.8761    3.8521 H   0  0  0  0  0  0  0  0  0  0  0  0
   -1.7349    1.5853    4.2320 H   0  0  0  0  0  0  0  0  0  0  0  0
   -0.5312    0.2997    4.4834 H   0  0  0  0  0  0  0  0  0  0  0  0
  5  6  2  0  0  0  0
  5  7  1  0  0  0  0
  2  3  1  0  0  0  0
  2  4  1  0  0  0  0
  2  5  1  0  0  0  0
  1  2  1  0  0  0  0
 22 23  2  0  0  0  0
 22 24  1  0  0  0  0
 20 21  1  0  0  0  0
 19 20  1  0  0  0  0
 17 18  1  0  0  0  0
 17 19  2  0  0  0  0
 15 16  1  0  0  0  0
 15 17  1  0  0  0  0
 14 15  1  0  0  0  0
 14 20  2  0  0  0  0
 11 12  1  0  0  0  0
 11 13  1  0  0  0  0
 11 14  1  0  0  0  0
  9 10  1  0  0  0  0
  9 11  1  0  0  0  0
  9 22  1  0  0  0  0
  7  8  1  0  0  0  0
  7  9  1  0  0  0  0
 26 27  1  0  0  0  0
 26 28  1  0  0  0  0
 26 29  1  0  0  0  0
 24 25  1  0  0  0  0
 24 26  1  0  0  0  0
M  END
$$$$
default_name
  -OEChem-02102213163D

 29 29  0     1  0  0  0  0  0999 V2000
   -3.6042   -3.5728    1.4576 H   0  0  0  0  0  0  0  0  0  0  0  0
   -3.5202   -2.6488    0.8866 C   0  0  0  0  0  0  0  0  0  0  0  0
   -4.2052   -1.9048    1.2896 H   0  0  0  0  0  0  0  0  0  0  0  0
   -3.7552   -2.8428   -0.1584 H   0  0  0  0  0  0  0  0  0  0  0  0
   -2.1052   -2.1358    0.9946 C   0  0  0  0  0  0  0  0  0  0  0  0
   -1.2852   -2.7288    1.6826 O   0  0  0  0  0  0  0  0  0  0  0  0
   -1.8202   -1.0288    0.3146 N   0  0  0  0  0  0  0  0  0  0  0  0
   -2.5542   -0.5788   -0.2104 H   0  0  0  0  0  0  0  0  0  0  0  0
   -0.5102   -0.3728    0.3086 C   0  0  1  0  0  0  0  0  0  0  0  0
    0.2354   -1.0844   -0.0490 H   0  0  0  0  0  0  0  0  0  0  0  0
   -0.5452    0.8158   -0.6698 C   0  0  0  0  0  0  0  0  0  0  0  0
   -1.2958    1.5333   -0.3337 H   0  0  0  0  0  0  0  0  0  0  0  0
    0.4254    1.3151   -0.6577 H   0  0  0  0  0  0  0  0  0  0  0  0
   -0.8616    0.4204   -2.0889 C   0  0  0  0  0  0  0  0  0  0  0  0
   -0.2139    0.8622   -3.2226 N   0  0  0  0  0  0  0  0  0  0  0  0
    0.5072    1.5671   -3.2593 H   0  0  0  0  0  0  0  0  0  0  0  0
   -0.7149    0.1933   -4.2747 C   0  0  0  0  0  0  0  0  0  0  0  0
   -0.4085    0.3270   -5.3050 H   0  0  0  0  0  0  0  0  0  0  0  0
   -1.6535   -0.6744   -3.8692 N   0  0  0  0  0  0  0  0  0  0  0  0
   -1.7587   -0.5364   -2.4827 C   0  0  0  0  0  0  0  0  0  0  0  0
   -2.4062   -1.1085   -1.8309 H   0  0  0  0  0  0  0  0  0  0  0  0
   -0.1073    0.0565    1.7296 C   0  0  0  0  0  0  0  0  0  0  0  0
    1.0285   -0.1699    2.1459 O   0  0  0  0  0  0  0  0  0  0  0  0
   -1.0395    0.6588    2.4785 N   0  0  0  0  0  0  0  0  0  0  0  0
   -1.9636    0.7597    2.0849 H   0  0  0  0  0  0  0  0  0  0  0  0
   -0.8222    1.1334    3.8425 C   0  0  0  0  0  0  0  0  0  0  0  0
   -0.0212    1.8761    3.8521 H   0  0  0  0  0  0  0  0  0  0  0  0
   -1.7349    1.5853    4.2320 H   0  0  0  0  0  0  0  0  0  0  0  0
   -0.5312    0.2997    4.4834 H   0  0  0  0  0  0  0  0  0  0  0  0
  5  6  2  0  0  0  0
  5  7  1  0  0  0  0
  2  3  1  0  0  0  0
  2  4  1  0  0  0  0
  2  5  1  0  0  0  0
  1  2  1  0  0  0  0
 22 23  2  0  0  0  0
 22 24  1  0  0  0  0
 20 21  1  0  0  0  0
 19 20  1  0  0  0  0
 17 18  1  0  0  0  0
 17 19  2  0  0  0  0
 15 16  1  0  0  0  0
 15 17  1  0  0  0  0
 14 15  1  0  0  0  0
 14 20  2  0  0  0  0
 11 12  1  0  0  0  0
 11 13  1  0  0  0  0
 11 14  1  0  0  0  0
  9 10  1  0  0  0  0
  9 11  1  0  0  0  0
  9 22  1  0  0  0  0
  7  8  1  0  0  0  0
  7  9  1  0  0  0  0
 26 27  1  0  0  0  0
 26 28  1  0  0  0  0
 26 29  1  0  0  0  0
 24 25  1  0  0  0  0
 24 26  1  0  0  0  0
M  END
$$$$
default_name
  -OEChem-02102213163D

 29 29  0     1  0  0  0  0  0999 V2000
   -3.6042   -3.5728    1.4576 H   0  0  0  0  0  0  0  0  0  0  0  0
   -3.5202   -2.6488    0.8866 C   0  0  0  0  0  0  0  0  0  0  0  0
   -4.2052   -1.9048    1.2896 H   0  0  0  0  0  0  0  0  0  0  0  0
   -3.7552   -2.8428   -0.1584 H   0  0  0  0  0  0  0  0  0  0  0  0
   -2.1052   -2.1358    0.9946 C   0  0  0  0  0  0  0  0  0  0  0  0
   -1.2852   -2.7288    1.6826 O   0  0  0  0  0  0  0  0  0  0  0  0
   -1.8202   -1.0288    0.3146 N   0  0  0  0  0  0  0  0  0  0  0  0
   -2.5542   -0.5788   -0.2104 H   0  0  0  0  0  0  0  0  0  0  0  0
   -0.5102   -0.3728    0.3086 C   0  0  1  0  0  0  0  0  0  0  0  0
    0.2354   -1.0844   -0.0490 H   0  0  0  0  0  0  0  0  0  0  0  0
   -0.5452    0.8158   -0.6698 C   0  0  0  0  0  0  0  0  0  0  0  0
   -1.2958    1.5333   -0.3337 H   0  0  0  0  0  0  0  0  0  0  0  0
    0.4254    1.3151   -0.6577 H   0  0  0  0  0  0  0  0  0  0  0  0
   -0.8616    0.4204   -2.0889 C   0  0  0  0  0  0  0  0  0  0  0  0
   -0.0571    0.6204   -3.1902 N   0  0  0  0  0  0  0  0  0  0  0  0
    0.8159    1.1261   -3.2052 H   0  0  0  0  0  0  0  0  0  0  0  0
   -0.6417    0.0278   -4.2449 C   0  0  0  0  0  0  0  0  0  0  0  0
   -0.2495    0.0184   -5.2545 H   0  0  0  0  0  0  0  0  0  0  0  0
   -1.7877   -0.5599   -3.8712 N   0  0  0  0  0  0  0  0  0  0  0  0
   -1.9404   -0.3138   -2.5043 C   0  0  0  0  0  0  0  0  0  0  0  0
   -2.7472   -0.6702   -1.8770 H   0  0  0  0  0  0  0  0  0  0  0  0
   -0.1073    0.0565    1.7296 C   0  0  0  0  0  0  0  0  0  0  0  0
    1.0285   -0.1699    2.1459 O   0  0  0  0  0  0  0  0  0  0  0  0
   -1.0395    0.6588    2.4785 N   0  0  0  0  0  0  0  0  0  0  0  0
   -1.9636    0.7597    2.0849 H   0  0  0  0  0  0  0  0  0  0  0  0
   -0.8222    1.1334    3.8425 C   0  0  0  0  0  0  0  0  0  0  0  0
   -0.0212    1.8761    3.8521 H   0  0  0  0  0  0  0  0  0  0  0  0
   -1.7349    1.5853    4.2320 H   0  0  0  0  0  0  0  0  0  0  0  0
   -0.5312    0.2997    4.4834 H   0  0  0  0  0  0  0  0  0  0  0  0
  5  6  2  0  0  0  0
  5  7  1  0  0  0  0
  2  3  1  0  0  0  0
  2  4  1  0  0  0  0
  2  5  1  0  0  0  0
  1  2  1  0  0  0  0
 22 23  2  0  0  0  0
 22 24  1  0  0  0  0
 20 21  1  0  0  0  0
 19 20  1  0  0  0  0
 17 18  1  0  0  0  0
 17 19  2  0  0  0  0
 15 16  1  0  0  0  0
 15 17  1  0  0  0  0
 14 15  1  0  0  0  0
 14 20  2  0  0  0  0
 11 12  1  0  0  0  0
 11 13  1  0  0  0  0
 11 14  1  0  0  0  0
  9 10  1  0  0  0  0
  9 11  1  0  0  0  0
  9 22  1  0  0  0  0
  7  8  1  0  0  0  0
  7  9  1  0  0  0  0
 26 27  1  0  0  0  0
 26 28  1  0  0  0  0
 26 29  1  0  0  0  0
 24 25  1  0  0  0  0
 24 26  1  0  0  0  0
M  END
$$$$
default_name
  -OEChem-02102213163D

 29 29  0     1  0  0  0  0  0999 V2000
   -3.6042   -3.5728    1.4576 H   0  0  0  0  0  0  0  0  0  0  0  0
   -3.5202   -2.6488    0.8866 C   0  0  0  0  0  0  0  0  0  0  0  0
   -4.2052   -1.9048    1.2896 H   0  0  0  0  0  0  0  0  0  0  0  0
   -3.7552   -2.8428   -0.1584 H   0  0  0  0  0  0  0  0  0  0  0  0
   -2.1052   -2.1358    0.9946 C   0  0  0  0  0  0  0  0  0  0  0  0
   -1.2852   -2.7288    1.6826 O   0  0  0  0  0  0  0  0  0  0  0  0
   -1.8202   -1.0288    0.3146 N   0  0  0  0  0  0  0  0  0  0  0  0
   -2.5542   -0.5788   -0.2104 H   0  0  0  0  0  0  0  0  0  0  0  0
   -0.5102   -0.3728    0.3086 C   0  0  1  0  0  0  0  0  0  0  0  0
    0.2354   -1.0844   -0.0490 H   0  0  0  0  0  0  0  0  0  0  0  0
   -0.5452    0.8158   -0.6698 C   0  0  0  0  0  0  0  0  0  0  0  0
   -1.2958    1.5333   -0.3337 H   0  0  0  0  0  0  0  0  0  0  0  0
    0.4254    1.3151   -0.6577 H   0  0  0  0  0  0  0  0  0  0  0  0
   -0.8616    0.4204   -2.0889 C   0  0  0  0  0  0  0  0  0  0  0  0
    0.0332    0.3503   -3.1350 N   0  0  0  0  0  0  0  0  0  0  0  0
    1.0029    0.6279   -3.1081 H   0  0  0  0  0  0  0  0  0  0  0  0
   -0.6134   -0.1483   -4.2022 C   0  0  0  0  0  0  0  0  0  0  0  0
   -0.1744   -0.3156   -5.1782 H   0  0  0  0  0  0  0  0  0  0  0  0
   -1.8893   -0.4167   -3.8885 N   0  0  0  0  0  0  0  0  0  0  0  0
   -2.0602   -0.0556   -2.5495 C   0  0  0  0  0  0  0  0  0  0  0  0
   -2.9667   -0.1662   -1.9685 H   0  0  0  0  0  0  0  0  0  0  0  0
   -0.1073    0.0565    1.7296 C   0  0  0  0  0  0  0  0  0  0  0  0
    1.0285   -0.1699    2.1459 O   0  0  0  0  0  0  0  0  0  0  0  0
   -1.0395    0.6588    2.4785 N   0  0  0  0  0  0  0  0  0  0  0  0
   -1.9636    0.7597    2.0849 H   0  0  0  0  0  0  0  0  0  0  0  0
   -0.8222    1.1334    3.8425 C   0  0  0  0  0  0  0  0  0  0  0  0
   -0.0212    1.8761    3.8521 H   0  0  0  0  0  0  0  0  0  0  0  0
   -1.7349    1.5853    4.2320 H   0  0  0  0  0  0  0  0  0  0  0  0
   -0.5312    0.2997    4.4834 H   0  0  0  0  0  0  0  0  0  0  0  0
  5  6  2  0  0  0  0
  5  7  1  0  0  0  0
  2  3  1  0  0  0  0
  2  4  1  0  0  0  0
  2  5  1  0  0  0  0
  1  2  1  0  0  0  0
 22 23  2  0  0  0  0
 22 24  1  0  0  0  0
 20 21  1  0  0  0  0
 19 20  1  0  0  0  0
 17 18  1  0  0  0  0
 17 19  2  0  0  0  0
 15 16  1  0  0  0  0
 15 17  1  0  0  0  0
 14 15  1  0  0  0  0
 14 20  2  0  0  0  0
 11 12  1  0  0  0  0
 11 13  1  0  0  0  0
 11 14  1  0  0  0  0
  9 10  1  0  0  0  0
  9 11  1  0  0  0  0
  9 22  1  0  0  0  0
  7  8  1  0  0  0  0
  7  9  1  0  0  0  0
 26 27  1  0  0  0  0
 26 28  1  0  0  0  0
 26 29  1  0  0  0  0
 24 25  1  0  0  0  0
 24 26  1  0  0  0  0
M  END
$$$$
default_name
  -OEChem-02102213163D

 29 29  0     1  0  0  0  0  0999 V2000
   -3.6042   -3.5728    1.4576 H   0  0  0  0  0  0  0  0  0  0  0  0
   -3.5202   -2.6488    0.8866 C   0  0  0  0  0  0  0  0  0  0  0  0
   -4.2052   -1.9048    1.2896 H   0  0  0  0  0  0  0  0  0  0  0  0
   -3.7552   -2.8428   -0.1584 H   0  0  0  0  0  0  0  0  0  0  0  0
   -2.1052   -2.1358    0.9946 C   0  0  0  0  0  0  0  0  0  0  0  0
   -1.2852   -2.7288    1.6826 O   0  0  0  0  0  0  0  0  0  0  0  0
   -1.8202   -1.0288    0.3146 N   0  0  0  0  0  0  0  0  0  0  0  0
   -2.5542   -0.5788   -0.2104 H   0  0  0  0  0  0  0  0  0  0  0  0
   -0.5102   -0.3728    0.3086 C   0  0  1  0  0  0  0  0  0  0  0  0
    0.2354   -1.0844   -0.0490 H   0  0  0  0  0  0  0  0  0  0  0  0
   -0.5452    0.8158   -0.6698 C   0  0  0  0  0  0  0  0  0  0  0  0
   -1.2958    1.5333   -0.3337 H   0  0  0  0  0  0  0  0  0  0  0  0
    0.4254    1.3151   -0.6577 H   0  0  0  0  0  0  0  0  0  0  0  0
   -0.8616    0.4204   -2.0889 C   0  0  0  0  0  0  0  0  0  0  0  0
    0.0508    0.0704   -3.0610 N   0  0  0  0  0  0  0  0  0  0  0  0
    1.0555    0.1063   -2.9745 H   0  0  0  0  0  0  0  0  0  0  0  0
   -0.6318   -0.3230   -4.1494 C   0  0  0  0  0  0  0  0  0  0  0  0
   -0.1886   -0.6524   -5.0812 H   0  0  0  0  0  0  0  0  0  0  0  0
   -1.9513   -0.2546   -3.9198 N   0  0  0  0  0  0  0  0  0  0  0  0
   -2.1099    0.2205   -2.6153 C   0  0  0  0  0  0  0  0  0  0  0  0
   -3.0495    0.3692   -2.0992 H   0  0  0  0  0  0  0  0  0  0  0  0
   -0.1073    0.0565    1.7296 C   0  0  0  0  0  0  0  0  0  0  0  0
    1.0285   -0.1699    2.1459 O   0  0  0  0  0  0  0  0  0  0  0  0
   -1.0395    0.6588    2.4785 N   0  0  0  0  0  0  0  0  0  0  0  0
   -1.9636    0.7597    2.0849 H   0  0  0  0  0  0  0  0  0  0  0  0
   -0.8222    1.1334    3.8425 C   0  0  0  0  0  0  0  0  0  0  0  0
   -0.0212    1.8761    3.8521 H   0  0  0  0  0  0  0  0  0  0  0  0
   -1.7349    1.5853    4.2320 H   0  0  0  0  0  0  0  0  0  0  0  0
   -0.5312    0.2997    4.4834 H   0  0  0  0  0  0  0  0  0  0  0  0
  5  6  2  0  0  0  0
  5  7  1  0  0  0  0
  2  3  1  0  0  0  0
  2  4  1  0  0  0  0
  2  5  1  0  0  0  0
  1  2  1  0  0  0  0
 22 23  2  0  0  0  0
 22 24  1  0  0  0  0
 20 21  1  0  0  0  0
 19 20  1  0  0  0  0
 17 18  1  0  0  0  0
 17 19  2  0  0  0  0
 15 16  1  0  0  0  0
 15 17  1  0  0  0  0
 14 15  1  0  0  0  0
 14 20  2  0  0  0  0
 11 12  1  0  0  0  0
 11 13  1  0  0  0  0
 11 14  1  0  0  0  0
  9 10  1  0  0  0  0
  9 11  1  0  0  0  0
  9 22  1  0  0  0  0
  7  8  1  0  0  0  0
  7  9  1  0  0  0  0
 26 27  1  0  0  0  0
 26 28  1  0  0  0  0
 26 29  1  0  0  0  0
 24 25  1  0  0  0  0
 24 26  1  0  0  0  0
M  END
$$$$
default_name
  -OEChem-02102213163D

 29 29  0     1  0  0  0  0  0999 V2000
   -3.6042   -3.5728    1.4576 H   0  0  0  0  0  0  0  0  0  0  0  0
   -3.5202   -2.6488    0.8866 C   0  0  0  0  0  0  0  0  0  0  0  0
   -4.2052   -1.9048    1.2896 H   0  0  0  0  0  0  0  0  0  0  0  0
   -3.7552   -2.8428   -0.1584 H   0  0  0  0  0  0  0  0  0  0  0  0
   -2.1052   -2.1358    0.9946 C   0  0  0  0  0  0  0  0  0  0  0  0
   -1.2852   -2.7288    1.6826 O   0  0  0  0  0  0  0  0  0  0  0  0
   -1.8202   -1.0288    0.3146 N   0  0  0  0  0  0  0  0  0  0  0  0
   -2.5542   -0.5788   -0.2104 H   0  0  0  0  0  0  0  0  0  0  0  0
   -0.5102   -0.3728    0.3086 C   0  0  1  0  0  0  0  0  0  0  0  0
    0.2354   -1.0844   -0.0490 H   0  0  0  0  0  0  0  0  0  0  0  0
   -0.5452    0.8158   -0.6698 C   0  0  0  0  0  0  0  0  0  0  0  0
   -1.2958    1.5333   -0.3337 H   0  0  0  0  0  0  0  0  0  0  0  0
    0.4254    1.3151   -0.6577 H   0  0  0  0  0  0  0  0  0  0  0  0
   -0.8616    0.4204   -2.0889 C   0  0  0  0  0  0  0  0  0  0  0  0
   -0.0054   -0.2002   -2.9730 N   0  0  0  0  0  0  0  0  0  0  0  0
    0.9701   -0.4030   -2.8135 H   0  0  0  0  0  0  0  0  0  0  0  0
   -0.6959   -0.4843   -4.0901 C   0  0  0  0  0  0  0  0  0  0  0  0
   -0.2910   -0.9690   -4.9701 H   0  0  0  0  0  0  0  0  0  0  0  0
   -1.9696   -0.0845   -3.9631 N   0  0  0  0  0  0  0  0  0  0  0  0
   -2.0861    0.4957   -2.6973 C   0  0  0  0  0  0  0  0  0  0  0  0
   -2.9902    0.8994   -2.2602 H   0  0  0  0  0  0  0  0  0  0  0  0
   -0.1073    0.0565    1.7296 C   0  0  0  0  0  0  0  0  0  0  0  0
    1.0285   -0.1699    2.1459 O   0  0  0  0  0  0  0  0  0  0  0  0
   -1.0395    0.6588    2.4785 N   0  0  0  0  0  0  0  0  0  0  0  0
   -1.9636    0.7597    2.0849 H   0  0  0  0  0  0  0  0  0  0  0  0
   -0.8222    1.1334    3.8425 C   0  0  0  0  0  0  0  0  0  0  0  0
   -0.0212    1.8761    3.8521 H   0  0  0  0  0  0  0  0  0  0  0  0
   -1.7349    1.5853    4.2320 H   0  0  0  0  0  0  0  0  0  0  0  0
   -0.5312    0.2997    4.4834 H   0  0  0  0  0  0  0  0  0  0  0  0
  5  6  2  0  0  0  0
  5  7  1  0  0  0  0
  2  3  1  0  0  0  0
  2  4  1  0  0  0  0
  2  5  1  0  0  0  0
  1  2  1  0  0  0  0
 22 23  2  0  0  0  0
 22 24  1  0  0  0  0
 20 21  1  0  0  0  0
 19 20  1  0  0  0  0
 17 18  1  0  0  0  0
 17 19  2  0  0  0  0
 15 16  1  0  0  0  0
 15 17  1  0  0  0  0
 14 15  1  0  0  0  0
 14 20  2  0  0  0  0
 11 12  1  0  0  0  0
 11 13  1  0  0  0  0
 11 14  1  0  0  0  0
  9 10  1  0  0  0  0
  9 11  1  0  0  0  0
  9 22  1  0  0  0  0
  7  8  1  0  0  0  0
  7  9  1  0  0  0  0
 26 27  1  0  0  0  0
 26 28  1  0  0  0  0
 26 29  1  0  0  0  0
 24 25  1  0  0  0  0
 24 26  1  0  0  0  0
M  END
$$$$
default_name
  -OEChem-02102213163D

 29 29  0     1  0  0  0  0  0999 V2000
   -3.6042   -3.5728    1.4576 H   0  0  0  0  0  0  0  0  0  0  0  0
   -3.5202   -2.6488    0.8866 C   0  0  0  0  0  0  0  0  0  0  0  0
   -4.2052   -1.9048    1.2896 H   0  0  0  0  0  0  0  0  0  0  0  0
   -3.7552   -2.8428   -0.1584 H   0  0  0  0  0  0  0  0  0  0  0  0
   -2.1052   -2.1358    0.9946 C   0  0  0  0  0  0  0  0  0  0  0  0
   -1.2852   -2.7288    1.6826 O   0  0  0  0  0  0  0  0  0  0  0  0
   -1.8202   -1.0288    0.3146 N   0  0  0  0  0  0  0  0  0  0  0  0
   -2.5542   -0.5788   -0.2104 H   0  0  0  0  0  0  0  0  0  0  0  0
   -0.5102   -0.3728    0.3086 C   0  0  1  0  0  0  0  0  0  0  0  0
    0.2354   -1.0844   -0.0490 H   0  0  0  0  0  0  0  0  0  0  0  0
   -0.5452    0.8158   -0.6698 C   0  0  0  0  0  0  0  0  0  0  0  0
   -1.2958    1.5333   -0.3337 H   0  0  0  0  0  0  0  0  0  0  0  0
    0.4254    1.3151   -0.6577 H   0  0  0  0  0  0  0  0  0  0  0  0
   -0.8616    0.4204   -2.0889 C   0  0  0  0  0  0  0  0  0  0  0  0
   -0.1316   -0.4431   -2.8772 N   0  0  0  0  0  0  0  0  0  0  0  0
    0.7525   -0.8655   -2.6362 H   0  0  0  0  0  0  0  0  0  0  0  0
   -0.8010   -0.6213   -4.0285 C   0  0  0  0  0  0  0  0  0  0  0  0
   -0.4745   -1.2438   -4.8526 H   0  0  0  0  0  0  0  0  0  0  0  0
   -1.9428    0.0819   -4.0155 N   0  0  0  0  0  0  0  0  0  0  0  0
   -1.9905    0.7513   -2.7899 C   0  0  0  0  0  0  0  0  0  0  0  0
   -2.7928    1.3883   -2.4405 H   0  0  0  0  0  0  0  0  0  0  0  0
   -0.1073    0.0565    1.7296 C   0  0  0  0  0  0  0  0  0  0  0  0
    1.0285   -0.1699    2.1459 O   0  0  0  0  0  0  0  0  0  0  0  0
   -1.0395    0.6588    2.4785 N   0  0  0  0  0  0  0  0  0  0  0  0
   -1.9636    0.7597    2.0849 H   0  0  0  0  0  0  0  0  0  0  0  0
   -0.8222    1.1334    3.8425 C   0  0  0  0  0  0  0  0  0  0  0  0
   -0.0212    1.8761    3.8521 H   0  0  0  0  0  0  0  0  0  0  0  0
   -1.7349    1.5853    4.2320 H   0  0  0  0  0  0  0  0  0  0  0  0
   -0.5312    0.2997    4.4834 H   0  0  0  0  0  0  0  0  0  0  0  0
  5  6  2  0  0  0  0
  5  7  1  0  0  0  0
  2  3  1  0  0  0  0
  2  4  1  0  0  0  0
  2  5  1  0  0  0  0
  1  2  1  0  0  0  0
 22 23  2  0  0  0  0
 22 24  1  0  0  0  0
 20 21  1  0  0  0  0
 19 20  1  0  0  0  0
 17 18  1  0  0  0  0
 17 19  2  0  0  0  0
 15 16  1  0  0  0  0
 15 17  1  0  0  0  0
 14 15  1  0  0  0  0
 14 20  2  0  0  0  0
 11 12  1  0  0  0  0
 11 13  1  0  0  0  0
 11 14  1  0  0  0  0
  9 10  1  0  0  0  0
  9 11  1  0  0  0  0
  9 22  1  0  0  0  0
  7  8  1  0  0  0  0
  7  9  1  0  0  0  0
 26 27  1  0  0  0  0
 26 28  1  0  0  0  0
 26 29  1  0  0  0  0
 24 25  1  0  0  0  0
 24 26  1  0  0  0  0
M  END
$$$$
default_name
  -OEChem-02102213163D

 29 29  0     1  0  0  0  0  0999 V2000
   -3.6042   -3.5728    1.4576 H   0  0  0  0  0  0  0  0  0  0  0  0
   -3.5202   -2.6488    0.8866 C   0  0  0  0  0  0  0  0  0  0  0  0
   -4.2052   -1.9048    1.2896 H   0  0  0  0  0  0  0  0  0  0  0  0
   -3.7552   -2.8428   -0.1584 H   0  0  0  0  0  0  0  0  0  0  0  0
   -2.1052   -2.1358    0.9946 C   0  0  0  0  0  0  0  0  0  0  0  0
   -1.2852   -2.7288    1.6826 O   0  0  0  0  0  0  0  0  0  0  0  0
   -1.8202   -1.0288    0.3146 N   0  0  0  0  0  0  0  0  0  0  0  0
   -2.5542   -0.5788   -0.2104 H   0  0  0  0  0  0  0  0  0  0  0  0
   -0.5102   -0.3728    0.3086 C   0  0  1  0  0  0  0  0  0  0  0  0
    0.2354   -1.0844   -0.0490 H   0  0  0  0  0  0  0  0  0  0  0  0
   -0.5452    0.8158   -0.6698 C   0  0  0  0  0  0  0  0  0  0  0  0
   -1.2958    1.5333   -0.3337 H   0  0  0  0  0  0  0  0  0  0  0  0
    0.4254    1.3151   -0.6577 H   0  0  0  0  0  0  0  0  0  0  0  0
   -0.8616    0.4204   -2.0889 C   0  0  0  0  0  0  0  0  0  0  0  0
   -0.3193   -0.6418   -2.7800 N   0  0  0  0  0  0  0  0  0  0  0  0
    0.4176   -1.2494   -2.4545 H   0  0  0  0  0  0  0  0  0  0  0  0
   -0.9402   -0.7247   -3.9687 C   0  0  0  0  0  0  0  0  0  0  0  0
   -0.7268   -1.4581   -4.7366 H   0  0  0  0  0  0  0  0  0  0  0  0
   -1.8729    0.2332   -4.0732 N   0  0  0  0  0  0  0  0  0  0  0  0
   -1.8296    0.9698   -2.8867 C   0  0  0  0  0  0  0  0  0  0  0  0
   -2.4706    1.8026   -2.6278 H   0  0  0  0  0  0  0  0  0  0  0  0
   -0.1073    0.0565    1.7296 C   0  0  0  0  0  0  0  0  0  0  0  0
    1.0285   -0.1699    2.1459 O   0  0  0  0  0  0  0  0  0  0  0  0
   -1.0395    0.6588    2.4785 N   0  0  0  0  0  0  0  0  0  0  0  0
   -1.9636    0.7597    2.0849 H   0  0  0  0  0  0  0  0  0  0  0  0
   -0.8222    1.1334    3.8425 C   0  0  0  0  0  0  0  0  0  0  0  0
   -0.0212    1.8761    3.8521 H   0  0  0  0  0  0  0  0  0  0  0  0
   -1.7349    1.5853    4.2320 H   0  0  0  0  0  0  0  0  0  0  0  0
   -0.5312    0.2997    4.4834 H   0  0  0  0  0  0  0  0  0  0  0  0
  5  6  2  0  0  0  0
  5  7  1  0  0  0  0
  2  3  1  0  0  0  0
  2  4  1  0  0  0  0
  2  5  1  0  0  0  0
  1  2  1  0  0  0  0
 22 23  2  0  0  0  0
 22 24  1  0  0  0  0
 20 21  1  0  0  0  0
 19 20  1  0  0  0  0
 17 18  1  0  0  0  0
 17 19  2  0  0  0  0
 15 16  1  0  0  0  0
 15 17  1  0  0  0  0
 14 15  1  0  0  0  0
 14 20  2  0  0  0  0
 11 12  1  0  0  0  0
 11 13  1  0  0  0  0
 11 14  1  0  0  0  0
  9 10  1  0  0  0  0
  9 11  1  0  0  0  0
  9 22  1  0  0  0  0
  7  8  1  0  0  0  0
  7  9  1  0  0  0  0
 26 27  1  0  0  0  0
 26 28  1  0  0  0  0
 26 29  1  0  0  0  0
 24 25  1  0  0  0  0
 24 26  1  0  0  0  0
M  END
$$$$
default_name
  -OEChem-02102213163D

 29 29  0     1  0  0  0  0  0999 V2000
   -3.6042   -3.5728    1.4576 H   0  0  0  0  0  0  0  0  0  0  0  0
   -3.5202   -2.6488    0.8866 C   0  0  0  0  0  0  0  0  0  0  0  0
   -4.2052   -1.9048    1.2896 H   0  0  0  0  0  0  0  0  0  0  0  0
   -3.7552   -2.8428   -0.1584 H   0  0  0  0  0  0  0  0  0  0  0  0
   -2.1052   -2.1358    0.9946 C   0  0  0  0  0  0  0  0  0  0  0  0
   -1.2852   -2.7288    1.6826 O   0  0  0  0  0  0  0  0  0  0  0  0
   -1.8202   -1.0288    0.3146 N   0  0  0  0  0  0  0  0  0  0  0  0
   -2.5542   -0.5788   -0.2104 H   0  0  0  0  0  0  0  0  0  0  0  0
   -0.5102   -0.3728    0.3086 C   0  0  1  0  0  0  0  0  0  0  0  0
    0.2354   -1.0844   -0.0490 H   0  0  0  0  0  0  0  0  0  0  0  0
   -0.5452    0.8158   -0.6698 C   0  0  0  0  0  0  0  0  0  0  0  0
   -1.2958    1.5333   -0.3337 H   0  0  0  0  0  0  0  0  0  0  0  0
    0.4254    1.3151   -0.6577 H   0  0  0  0  0  0  0  0  0  0  0  0
   -0.8616    0.4204   -2.0889 C   0  0  0  0  0  0  0  0  0  0  0  0
   -0.5556   -0.7827   -2.6881 N   0  0  0  0  0  0  0  0  0  0  0  0
   -0.0119   -1.5288   -2.2809 H   0  0  0  0  0  0  0  0  0  0  0  0
   -1.1039   -0.7873   -3.9147 C   0  0  0  0  0  0  0  0  0  0  0  0
   -1.0307   -1.5973   -4.6301 H   0  0  0  0  0  0  0  0  0  0  0  0
   -1.7645    0.3592   -4.1325 N   0  0  0  0  0  0  0  0  0  0  0  0
   -1.6143    1.1365   -2.9811 C   0  0  0  0  0  0  0  0  0  0  0  0
   -2.0457    2.1141   -2.8093 H   0  0  0  0  0  0  0  0  0  0  0  0
   -0.1073    0.0565    1.7296 C   0  0  0  0  0  0  0  0  0  0  0  0
    1.0285   -0.1699    2.1459 O   0  0  0  0  0  0  0  0  0  0  0  0
   -1.0395    0.6588    2.4785 N   0  0  0  0  0  0  0  0  0  0  0  0
   -1.9636    0.7597    2.0849 H   0  0  0  0  0  0  0  0  0  0  0  0
   -0.8222    1.1334    3.8425 C   0  0  0  0  0  0  0  0  0  0  0  0
   -0.0212    1.8761    3.8521 H   0  0  0  0  0  0  0  0  0  0  0  0
   -1.7349    1.5853    4.2320 H   0  0  0  0  0  0  0  0  0  0  0  0
   -0.5312    0.2997    4.4834 H   0  0  0  0  0  0  0  0  0  0  0  0
  5  6  2  0  0  0  0
  5  7  1  0  0  0  0
  2  3  1  0  0  0  0
  2  4  1  0  0  0  0
  2  5  1  0  0  0  0
  1  2  1  0  0  0  0
 22 23  2  0  0  0  0
 22 24  1  0  0  0  0
 20 21  1  0  0  0  0
 19 20  1  0  0  0  0
 17 18  1  0  0  0  0
 17 19  2  0  0  0  0
 15 16  1  0  0  0  0
 15 17  1  0  0  0  0
 14 15  1  0  0  0  0
 14 20  2  0  0  0  0
 11 12  1  0  0  0  0
 11 13  1  0  0  0  0
 11 14  1  0  0  0  0
  9 10  1  0  0  0  0
  9 11  1  0  0  0  0
  9 22  1  0  0  0  0
  7  8  1  0  0  0  0
  7  9  1  0  0  0  0
 26 27  1  0  0  0  0
 26 28  1  0  0  0  0
 26 29  1  0  0  0  0
 24 25  1  0  0  0  0
 24 26  1  0  0  0  0
M  END
$$$$
default_name
  -OEChem-02102213163D

 29 29  0     1  0  0  0  0  0999 V2000
   -3.6042   -3.5728    1.4576 H   0  0  0  0  0  0  0  0  0  0  0  0
   -3.5202   -2.6488    0.8866 C   0  0  0  0  0  0  0  0  0  0  0  0
   -4.2052   -1.9048    1.2896 H   0  0  0  0  0  0  0  0  0  0  0  0
   -3.7552   -2.8428   -0.1584 H   0  0  0  0  0  0  0  0  0  0  0  0
   -2.1052   -2.1358    0.9946 C   0  0  0  0  0  0  0  0  0  0  0  0
   -1.2852   -2.7288    1.6826 O   0  0  0  0  0  0  0  0  0  0  0  0
   -1.8202   -1.0288    0.3146 N   0  0  0  0  0  0  0  0  0  0  0  0
   -2.5542   -0.5788   -0.2104 H   0  0  0  0  0  0  0  0  0  0  0  0
   -0.5102   -0.3728    0.3086 C   0  0  1  0  0  0  0  0  0  0  0  0
    0.2354   -1.0844   -0.0490 H   0  0  0  0  0  0  0  0  0  0  0  0
   -0.5452    0.8158   -0.6698 C   0  0  0  0  0  0  0  0  0  0  0  0
   -1.2958    1.5333   -0.3337 H   0  0  0  0  0  0  0  0  0  0  0  0
    0.4254    1.3151   -0.6577 H   0  0  0  0  0  0  0  0  0  0  0  0
   -0.8616    0.4204   -2.0889 C   0  0  0  0  0  0  0  0  0  0  0  0
   -0.8244   -0.8561   -2.6076 N   0  0  0  0  0  0  0  0  0  0  0  0
   -0.5066   -1.6846   -2.1271 H   0  0  0  0  0  0  0  0  0  0  0  0
   -1.2810   -0.8050   -3.8703 C   0  0  0  0  0  0  0  0  0  0  0  0
   -1.3653   -1.6520   -4.5403 H   0  0  0  0  0  0  0  0  0  0  0  0
   -1.6251    0.4512   -4.1892 N   0  0  0  0  0  0  0  0  0  0  0  0
   -1.3593    1.2398   -3.0668 C   0  0  0  0  0  0  0  0  0  0  0  0
   -1.5470    2.3016   -2.9727 H   0  0  0  0  0  0  0  0  0  0  0  0
   -0.1073    0.0565    1.7296 C   0  0  0  0  0  0  0  0  0  0  0  0
    1.0285   -0.1699    2.1459 O   0  0  0  0  0  0  0  0  0  0  0  0
   -1.0395    0.6588    2.4785 N   0  0  0  0  0  0  0  0  0  0  0  0
   -1.9636    0.7597    2.0849 H   0  0  0  0  0  0  0  0  0  0  0  0
   -0.8222    1.1334    3.8425 C   0  0  0  0  0  0  0  0  0  0  0  0
   -0.0212    1.8761    3.8521 H   0  0  0  0  0  0  0  0  0  0  0  0
   -1.7349    1.5853    4.2320 H   0  0  0  0  0  0  0  0  0  0  0  0
   -0.5312    0.2997    4.4834 H   0  0  0  0  0  0  0  0  0  0  0  0
  5  6  2  0  0  0  0
  5  7  1  0  0  0  0
  2  3  1  0  0  0  0
  2  4  1  0  0  0  0
  2  5  1  0  0  0  0
  1  2  1  0  0  0  0
 22 23  2  0  0  0  0
 22 24  1  0  0  0  0
 20 21  1  0  0  0  0
 19 20  1  0  0  0  0
 17 18  1  0  0  0  0
 17 19  2  0  0  0  0
 15 16  1  0  0  0  0
 15 17  1  0  0  0  0
 14 15  1  0  0  0  0
 14 20  2  0  0  0  0
 11 12  1  0  0  0  0
 11 13  1  0  0  0  0
 11 14  1  0  0  0  0
  9 10  1  0  0  0  0
  9 11  1  0  0  0  0
  9 22  1  0  0  0  0
  7  8  1  0  0  0  0
  7  9  1  0  0  0  0
 26 27  1  0  0  0  0
 26 28  1  0  0  0  0
 26 29  1  0  0  0  0
 24 25  1  0  0  0  0
 24 26  1  0  0  0  0
M  END
$$$$
default_name
  -OEChem-02102213163D

 29 29  0     1  0  0  0  0  0999 V2000
   -3.6042   -3.5728    1.4576 H   0  0  0  0  0  0  0  0  0  0  0  0
   -3.5202   -2.6488    0.8866 C   0  0  0  0  0  0  0  0  0  0  0  0
   -4.2052   -1.9048    1.2896 H   0  0  0  0  0  0  0  0  0  0  0  0
   -3.7552   -2.8428   -0.1584 H   0  0  0  0  0  0  0  0  0  0  0  0
   -2.1052   -2.1358    0.9946 C   0  0  0  0  0  0  0  0  0  0  0  0
   -1.2852   -2.7288    1.6826 O   0  0  0  0  0  0  0  0  0  0  0  0
   -1.8202   -1.0288    0.3146 N   0  0  0  0  0  0  0  0  0  0  0  0
   -2.5542   -0.5788   -0.2104 H   0  0  0  0  0  0  0  0  0  0  0  0
   -0.5102   -0.3728    0.3086 C   0  0  1  0  0  0  0  0  0  0  0  0
    0.2354   -1.0844   -0.0490 H   0  0  0  0  0  0  0  0  0  0  0  0
   -0.5452    0.8158   -0.6698 C   0  0  0  0  0  0  0  0  0  0  0  0
   -1.2958    1.5333   -0.3337 H   0  0  0  0  0  0  0  0  0  0  0  0
    0.4254    1.3151   -0.6577 H   0  0  0  0  0  0  0  0  0  0  0  0
   -0.8616    0.4204   -2.0889 C   0  0  0  0  0  0  0  0  0  0  0  0
   -1.1074   -0.8572   -2.5442 N   0  0  0  0  0  0  0  0  0  0  0  0
   -1.0329   -1.7061   -2.0038 H   0  0  0  0  0  0  0  0  0  0  0  0
   -1.4593   -0.7765   -3.8385 C   0  0  0  0  0  0  0  0  0  0  0  0
   -1.7080   -1.6183   -4.4732 H   0  0  0  0  0  0  0  0  0  0  0  0
   -1.4642    0.5031   -4.2396 N   0  0  0  0  0  0  0  0  0  0  0  0
   -1.0819    1.2728   -3.1378 C   0  0  0  0  0  0  0  0  0  0  0  0
   -1.0085    2.3522   -3.1069 H   0  0  0  0  0  0  0  0  0  0  0  0
   -0.1073    0.0565    1.7296 C   0  0  0  0  0  0  0  0  0  0  0  0
    1.0285   -0.1699    2.1459 O   0  0  0  0  0  0  0  0  0  0  0  0
   -1.0395    0.6588    2.4785 N   0  0  0  0  0  0  0  0  0  0  0  0
   -1.9636    0.7597    2.0849 H   0  0  0  0  0  0  0  0  0  0  0  0
   -0.8222    1.1334    3.8425 C   0  0  0  0  0  0  0  0  0  0  0  0
   -0.0212    1.8761    3.8521 H   0  0  0  0  0  0  0  0  0  0  0  0
   -1.7349    1.5853    4.2320 H   0  0  0  0  0  0  0  0  0  0  0  0
   -0.5312    0.2997    4.4834 H   0  0  0  0  0  0  0  0  0  0  0  0
  5  6  2  0  0  0  0
  5  7  1  0  0  0  0
  2  3  1  0  0  0  0
  2  4  1  0  0  0  0
  2  5  1  0  0  0  0
  1  2  1  0  0  0  0
 22 23  2  0  0  0  0
 22 24  1  0  0  0  0
 20 21  1  0  0  0  0
 19 20  1  0  0  0  0
 17 18  1  0  0  0  0
 17 19  2  0  0  0  0
 15 16  1  0  0  0  0
 15 17  1  0  0  0  0
 14 15  1  0  0  0  0
 14 20  2  0  0  0  0
 11 12  1  0  0  0  0
 11 13  1  0  0  0  0
 11 14  1  0  0  0  0
  9 10  1  0  0  0  0
  9 11  1  0  0  0  0
  9 22  1  0  0  0  0
  7  8  1  0  0  0  0
  7  9  1  0  0  0  0
 26 27  1  0  0  0  0
 26 28  1  0  0  0  0
 26 29  1  0  0  0  0
 24 25  1  0  0  0  0
 24 26  1  0  0  0  0
M  END
$$$$
default_name
  -OEChem-02102213163D

 29 29  0     1  0  0  0  0  0999 V2000
   -3.6042   -3.5728    1.4576 H   0  0  0  0  0  0  0  0  0  0  0  0
   -3.5202   -2.6488    0.8866 C   0  0  0  0  0  0  0  0  0  0  0  0
   -4.2052   -1.9048    1.2896 H   0  0  0  0  0  0  0  0  0  0  0  0
   -3.7552   -2.8428   -0.1584 H   0  0  0  0  0  0  0  0  0  0  0  0
   -2.1052   -2.1358    0.9946 C   0  0  0  0  0  0  0  0  0  0  0  0
   -1.2852   -2.7288    1.6826 O   0  0  0  0  0  0  0  0  0  0  0  0
   -1.8202   -1.0288    0.3146 N   0  0  0  0  0  0  0  0  0  0  0  0
   -2.5542   -0.5788   -0.2104 H   0  0  0  0  0  0  0  0  0  0  0  0
   -0.5102   -0.3728    0.3086 C   0  0  1  0  0  0  0  0  0  0  0  0
    0.2354   -1.0844   -0.0490 H   0  0  0  0  0  0  0  0  0  0  0  0
   -0.5452    0.8158   -0.6698 C   0  0  0  0  0  0  0  0  0  0  0  0
   -1.2958    1.5333   -0.3337 H   0  0  0  0  0  0  0  0  0  0  0  0
    0.4254    1.3151   -0.6577 H   0  0  0  0  0  0  0  0  0  0  0  0
   -0.8616    0.4204   -2.0889 C   0  0  0  0  0  0  0  0  0  0  0  0
   -1.3854   -0.7858   -2.5022 N   0  0  0  0  0  0  0  0  0  0  0  0
   -1.5549   -1.5918   -1.9193 H   0  0  0  0  0  0  0  0  0  0  0  0
   -1.6268   -0.7038   -3.8214 C   0  0  0  0  0  0  0  0  0  0  0  0
   -2.0353   -1.4985   -4.4336 H   0  0  0  0  0  0  0  0  0  0  0  0
   -1.2926    0.5112   -4.2801 N   0  0  0  0  0  0  0  0  0  0  0  0
   -0.8012    1.2332   -3.1893 C   0  0  0  0  0  0  0  0  0  0  0  0
   -0.4669    2.2625   -3.2027 H   0  0  0  0  0  0  0  0  0  0  0  0
   -0.1073    0.0565    1.7296 C   0  0  0  0  0  0  0  0  0  0  0  0
    1.0285   -0.1699    2.1459 O   0  0  0  0  0  0  0  0  0  0  0  0
   -1.0395    0.6588    2.4785 N   0  0  0  0  0  0  0  0  0  0  0  0
   -1.9636    0.7597    2.0849 H   0  0  0  0  0  0  0  0  0  0  0  0
   -0.8222    1.1334    3.8425 C   0  0  0  0  0  0  0  0  0  0  0  0
   -0.0212    1.8761    3.8521 H   0  0  0  0  0  0  0  0  0  0  0  0
   -1.7349    1.5853    4.2320 H   0  0  0  0  0  0  0  0  0  0  0  0
   -0.5312    0.2997    4.4834 H   0  0  0  0  0  0  0  0  0  0  0  0
  5  6  2  0  0  0  0
  5  7  1  0  0  0  0
  2  3  1  0  0  0  0
  2  4  1  0  0  0  0
  2  5  1  0  0  0  0
  1  2  1  0  0  0  0
 22 23  2  0  0  0  0
 22 24  1  0  0  0  0
 20 21  1  0  0  0  0
 19 20  1  0  0  0  0
 17 18  1  0  0  0  0
 17 19  2  0  0  0  0
 15 16  1  0  0  0  0
 15 17  1  0  0  0  0
 14 15  1  0  0  0  0
 14 20  2  0  0  0  0
 11 12  1  0  0  0  0
 11 13  1  0  0  0  0
 11 14  1  0  0  0  0
  9 10  1  0  0  0  0
  9 11  1  0  0  0  0
  9 22  1  0  0  0  0
  7  8  1  0  0  0  0
  7  9  1  0  0  0  0
 26 27  1  0  0  0  0
 26 28  1  0  0  0  0
 26 29  1  0  0  0  0
 24 25  1  0  0  0  0
 24 26  1  0  0  0  0
M  END
$$$$
default_name
  -OEChem-02102213163D

 29 29  0     1  0  0  0  0  0999 V2000
   -3.6042   -3.5728    1.4576 H   0  0  0  0  0  0  0  0  0  0  0  0
   -3.5202   -2.6488    0.8866 C   0  0  0  0  0  0  0  0  0  0  0  0
   -4.2052   -1.9048    1.2896 H   0  0  0  0  0  0  0  0  0  0  0  0
   -3.7552   -2.8428   -0.1584 H   0  0  0  0  0  0  0  0  0  0  0  0
   -2.1052   -2.1358    0.9946 C   0  0  0  0  0  0  0  0  0  0  0  0
   -1.2852   -2.7288    1.6826 O   0  0  0  0  0  0  0  0  0  0  0  0
   -1.8202   -1.0288    0.3146 N   0  0  0  0  0  0  0  0  0  0  0  0
   -2.5542   -0.5788   -0.2104 H   0  0  0  0  0  0  0  0  0  0  0  0
   -0.5102   -0.3728    0.3086 C   0  0  1  0  0  0  0  0  0  0  0  0
    0.2354   -1.0844   -0.0490 H   0  0  0  0  0  0  0  0  0  0  0  0
   -0.5452    0.8158   -0.6698 C   0  0  0  0  0  0  0  0  0  0  0  0
   -1.2958    1.5333   -0.3337 H   0  0  0  0  0  0  0  0  0  0  0  0
    0.4254    1.3151   -0.6577 H   0  0  0  0  0  0  0  0  0  0  0  0
   -0.8616    0.4204   -2.0889 C   0  0  0  0  0  0  0  0  0  0  0  0
   -1.6393   -0.6468   -2.4843 N   0  0  0  0  0  0  0  0  0  0  0  0
   -2.0369   -1.3496   -1.8793 H   0  0  0  0  0  0  0  0  0  0  0  0
   -1.7721   -0.5918   -3.8202 C   0  0  0  0  0  0  0  0  0  0  0  0
   -2.3249   -1.3010   -4.4241 H   0  0  0  0  0  0  0  0  0  0  0  0
   -1.1222    0.4750   -4.3080 N   0  0  0  0  0  0  0  0  0  0  0  0
   -0.5362    1.1237   -3.2179 C   0  0  0  0  0  0  0  0  0  0  0  0
    0.0409    2.0387   -3.2535 H   0  0  0  0  0  0  0  0  0  0  0  0
   -0.1073    0.0565    1.7296 C   0  0  0  0  0  0  0  0  0  0  0  0
    1.0285   -0.1699    2.1459 O   0  0  0  0  0  0  0  0  0  0  0  0
   -1.0395    0.6588    2.4785 N   0  0  0  0  0  0  0  0  0  0  0  0
   -1.9636    0.7597    2.0849 H   0  0  0  0  0  0  0  0  0  0  0  0
   -0.8222    1.1334    3.8425 C   0  0  0  0  0  0  0  0  0  0  0  0
   -0.0212    1.8761    3.8521 H   0  0  0  0  0  0  0  0  0  0  0  0
   -1.7349    1.5853    4.2320 H   0  0  0  0  0  0  0  0  0  0  0  0
   -0.5312    0.2997    4.4834 H   0  0  0  0  0  0  0  0  0  0  0  0
  5  6  2  0  0  0  0
  5  7  1  0  0  0  0
  2  3  1  0  0  0  0
  2  4  1  0  0  0  0
  2  5  1  0  0  0  0
  1  2  1  0  0  0  0
 22 23  2  0  0  0  0
 22 24  1  0  0  0  0
 20 21  1  0  0  0  0
 19 20  1  0  0  0  0
 17 18  1  0  0  0  0
 17 19  2  0  0  0  0
 15 16  1  0  0  0  0
 15 17  1  0  0  0  0
 14 15  1  0  0  0  0
 14 20  2  0  0  0  0
 11 12  1  0  0  0  0
 11 13  1  0  0  0  0
 11 14  1  0  0  0  0
  9 10  1  0  0  0  0
  9 11  1  0  0  0  0
  9 22  1  0  0  0  0
  7  8  1  0  0  0  0
  7  9  1  0  0  0  0
 26 27  1  0  0  0  0
 26 28  1  0  0  0  0
 26 29  1  0  0  0  0
 24 25  1  0  0  0  0
 24 26  1  0  0  0  0
M  END
$$$$
default_name
  -OEChem-02102213163D

 29 29  0     1  0  0  0  0  0999 V2000
   -3.6042   -3.5728    1.4576 H   0  0  0  0  0  0  0  0  0  0  0  0
   -3.5202   -2.6488    0.8866 C   0  0  0  0  0  0  0  0  0  0  0  0
   -4.2052   -1.9048    1.2896 H   0  0  0  0  0  0  0  0  0  0  0  0
   -3.7552   -2.8428   -0.1584 H   0  0  0  0  0  0  0  0  0  0  0  0
   -2.1052   -2.1358    0.9946 C   0  0  0  0  0  0  0  0  0  0  0  0
   -1.2852   -2.7288    1.6826 O   0  0  0  0  0  0  0  0  0  0  0  0
   -1.8202   -1.0288    0.3146 N   0  0  0  0  0  0  0  0  0  0  0  0
   -2.5542   -0.5788   -0.2104 H   0  0  0  0  0  0  0  0  0  0  0  0
   -0.5102   -0.3728    0.3086 C   0  0  1  0  0  0  0  0  0  0  0  0
    0.2354   -1.0844   -0.0490 H   0  0  0  0  0  0  0  0  0  0  0  0
   -0.5452    0.8158   -0.6698 C   0  0  0  0  0  0  0  0  0  0  0  0
   -1.2958    1.5333   -0.3337 H   0  0  0  0  0  0  0  0  0  0  0  0
    0.4254    1.3151   -0.6577 H   0  0  0  0  0  0  0  0  0  0  0  0
   -0.8616    0.4204   -2.0889 C   0  0  0  0  0  0  0  0  0  0  0  0
   -1.8519   -0.4496   -2.4918 N   0  0  0  0  0  0  0  0  0  0  0  0
   -2.4463   -0.9960   -1.8865 H   0  0  0  0  0  0  0  0  0  0  0  0
   -1.8851   -0.4482   -3.8350 C   0  0  0  0  0  0  0  0  0  0  0  0
   -2.5572   -1.0390   -4.4453 H   0  0  0  0  0  0  0  0  0  0  0  0
   -0.9645    0.3970   -4.3214 N   0  0  0  0  0  0  0  0  0  0  0  0
   -0.3049    0.9518   -3.2216 C   0  0  0  0  0  0  0  0  0  0  0  0
    0.4803    1.6959   -3.2560 H   0  0  0  0  0  0  0  0  0  0  0  0
   -0.1073    0.0565    1.7296 C   0  0  0  0  0  0  0  0  0  0  0  0
    1.0285   -0.1699    2.1459 O   0  0  0  0  0  0  0  0  0  0  0  0
   -1.0395    0.6588    2.4785 N   0  0  0  0  0  0  0  0  0  0  0  0
   -1.9636    0.7597    2.0849 H   0  0  0  0  0  0  0  0  0  0  0  0
   -0.8222    1.1334    3.8425 C   0  0  0  0  0  0  0  0  0  0  0  0
   -0.0212    1.8761    3.8521 H   0  0  0  0  0  0  0  0  0  0  0  0
   -1.7349    1.5853    4.2320 H   0  0  0  0  0  0  0  0  0  0  0  0
   -0.5312    0.2997    4.4834 H   0  0  0  0  0  0  0  0  0  0  0  0
  5  6  2  0  0  0  0
  5  7  1  0  0  0  0
  2  3  1  0  0  0  0
  2  4  1  0  0  0  0
  2  5  1  0  0  0  0
  1  2  1  0  0  0  0
 22 23  2  0  0  0  0
 22 24  1  0  0  0  0
 20 21  1  0  0  0  0
 19 20  1  0  0  0  0
 17 18  1  0  0  0  0
 17 19  2  0  0  0  0
 15 16  1  0  0  0  0
 15 17  1  0  0  0  0
 14 15  1  0  0  0  0
 14 20  2  0  0  0  0
 11 12  1  0  0  0  0
 11 13  1  0  0  0  0
 11 14  1  0  0  0  0
  9 10  1  0  0  0  0
  9 11  1  0  0  0  0
  9 22  1  0  0  0  0
  7  8  1  0  0  0  0
  7  9  1  0  0  0  0
 26 27  1  0  0  0  0
 26 28  1  0  0  0  0
 26 29  1  0  0  0  0
 24 25  1  0  0  0  0
 24 26  1  0  0  0  0
M  END
$$$$
default_name
  -OEChem-02102213163D

 29 29  0     1  0  0  0  0  0999 V2000
   -3.6042   -3.5728    1.4576 H   0  0  0  0  0  0  0  0  0  0  0  0
   -3.5202   -2.6488    0.8866 C   0  0  0  0  0  0  0  0  0  0  0  0
   -4.2052   -1.9048    1.2896 H   0  0  0  0  0  0  0  0  0  0  0  0
   -3.7552   -2.8428   -0.1584 H   0  0  0  0  0  0  0  0  0  0  0  0
   -2.1052   -2.1358    0.9946 C   0  0  0  0  0  0  0  0  0  0  0  0
   -1.2852   -2.7288    1.6826 O   0  0  0  0  0  0  0  0  0  0  0  0
   -1.8202   -1.0288    0.3146 N   0  0  0  0  0  0  0  0  0  0  0  0
   -2.5542   -0.5788   -0.2104 H   0  0  0  0  0  0  0  0  0  0  0  0
   -0.5102   -0.3728    0.3086 C   0  0  1  0  0  0  0  0  0  0  0  0
    0.2354   -1.0844   -0.0490 H   0  0  0  0  0  0  0  0  0  0  0  0
   -0.5452    0.8158   -0.6698 C   0  0  0  0  0  0  0  0  0  0  0  0
   -1.2958    1.5333   -0.3337 H   0  0  0  0  0  0  0  0  0  0  0  0
    0.4254    1.3151   -0.6577 H   0  0  0  0  0  0  0  0  0  0  0  0
   -0.8616    0.4204   -2.0889 C   0  0  0  0  0  0  0  0  0  0  0  0
   -2.0087   -0.2078   -2.5242 N   0  0  0  0  0  0  0  0  0  0  0  0
   -2.7550   -0.5551   -1.9406 H   0  0  0  0  0  0  0  0  0  0  0  0
   -1.9583   -0.2827   -3.8648 C   0  0  0  0  0  0  0  0  0  0  0  0
   -2.7163   -0.7305   -4.4958 H   0  0  0  0  0  0  0  0  0  0  0  0
   -0.8303    0.2825   -4.3194 N   0  0  0  0  0  0  0  0  0  0  0  0
   -0.1232    0.7292   -3.2001 C   0  0  0  0  0  0  0  0  0  0  0  0
    0.8213    1.2576   -3.2099 H   0  0  0  0  0  0  0  0  0  0  0  0
   -0.1073    0.0565    1.7296 C   0  0  0  0  0  0  0  0  0  0  0  0
    1.0285   -0.1699    2.1459 O   0  0  0  0  0  0  0  0  0  0  0  0
   -1.0395    0.6588    2.4785 N   0  0  0  0  0  0  0  0  0  0  0  0
   -1.9636    0.7597    2.0849 H   0  0  0  0  0  0  0  0  0  0  0  0
   -0.8222    1.1334    3.8425 C   0  0  0  0  0  0  0  0  0  0  0  0
   -0.0212    1.8761    3.8521 H   0  0  0  0  0  0  0  0  0  0  0  0
   -1.7349    1.5853    4.2320 H   0  0  0  0  0  0  0  0  0  0  0  0
   -0.5312    0.2997    4.4834 H   0  0  0  0  0  0  0  0  0  0  0  0
  5  6  2  0  0  0  0
  5  7  1  0  0  0  0
  2  3  1  0  0  0  0
  2  4  1  0  0  0  0
  2  5  1  0  0  0  0
  1  2  1  0  0  0  0
 22 23  2  0  0  0  0
 22 24  1  0  0  0  0
 20 21  1  0  0  0  0
 19 20  1  0  0  0  0
 17 18  1  0  0  0  0
 17 19  2  0  0  0  0
 15 16  1  0  0  0  0
 15 17  1  0  0  0  0
 14 15  1  0  0  0  0
 14 20  2  0  0  0  0
 11 12  1  0  0  0  0
 11 13  1  0  0  0  0
 11 14  1  0  0  0  0
  9 10  1  0  0  0  0
  9 11  1  0  0  0  0
  9 22  1  0  0  0  0
  7  8  1  0  0  0  0
  7  9  1  0  0  0  0
 26 27  1  0  0  0  0
 26 28  1  0  0  0  0
 26 29  1  0  0  0  0
 24 25  1  0  0  0  0
 24 26  1  0  0  0  0
M  END
$$$$
default_name
  -OEChem-02102213163D

 29 29  0     1  0  0  0  0  0999 V2000
   -3.6042   -3.5728    1.4576 H   0  0  0  0  0  0  0  0  0  0  0  0
   -3.5202   -2.6488    0.8866 C   0  0  0  0  0  0  0  0  0  0  0  0
   -4.2052   -1.9048    1.2896 H   0  0  0  0  0  0  0  0  0  0  0  0
   -3.7552   -2.8428   -0.1584 H   0  0  0  0  0  0  0  0  0  0  0  0
   -2.1052   -2.1358    0.9946 C   0  0  0  0  0  0  0  0  0  0  0  0
   -1.2852   -2.7288    1.6826 O   0  0  0  0  0  0  0  0  0  0  0  0
   -1.8202   -1.0288    0.3146 N   0  0  0  0  0  0  0  0  0  0  0  0
   -2.5542   -0.5788   -0.2104 H   0  0  0  0  0  0  0  0  0  0  0  0
   -0.5102   -0.3728    0.3086 C   0  0  1  0  0  0  0  0  0  0  0  0
    0.2354   -1.0844   -0.0490 H   0  0  0  0  0  0  0  0  0  0  0  0
   -0.5452    0.8158   -0.6698 C   0  0  0  0  0  0  0  0  0  0  0  0
   -1.2958    1.5333   -0.3337 H   0  0  0  0  0  0  0  0  0  0  0  0
    0.4254    1.3151   -0.6577 H   0  0  0  0  0  0  0  0  0  0  0  0
   -0.8616    0.4204   -2.0889 C   0  0  0  0  0  0  0  0  0  0  0  0
   -2.0990    0.0623   -2.5794 N   0  0  0  0  0  0  0  0  0  0  0  0
   -2.9420   -0.0569   -2.0377 H   0  0  0  0  0  0  0  0  0  0  0  0
   -1.9866   -0.1066   -3.9076 C   0  0  0  0  0  0  0  0  0  0  0  0
   -2.7913   -0.3964   -4.5721 H   0  0  0  0  0  0  0  0  0  0  0  0
   -0.7287    0.1393   -4.3022 N   0  0  0  0  0  0  0  0  0  0  0  0
   -0.0034    0.4710   -3.1549 C   0  0  0  0  0  0  0  0  0  0  0  0
    1.0407    0.7536   -3.1184 H   0  0  0  0  0  0  0  0  0  0  0  0
   -0.1073    0.0565    1.7296 C   0  0  0  0  0  0  0  0  0  0  0  0
    1.0285   -0.1699    2.1459 O   0  0  0  0  0  0  0  0  0  0  0  0
   -1.0395    0.6588    2.4785 N   0  0  0  0  0  0  0  0  0  0  0  0
   -1.9636    0.7597    2.0849 H   0  0  0  0  0  0  0  0  0  0  0  0
   -0.8222    1.1334    3.8425 C   0  0  0  0  0  0  0  0  0  0  0  0
   -0.0212    1.8761    3.8521 H   0  0  0  0  0  0  0  0  0  0  0  0
   -1.7349    1.5853    4.2320 H   0  0  0  0  0  0  0  0  0  0  0  0
   -0.5312    0.2997    4.4834 H   0  0  0  0  0  0  0  0  0  0  0  0
  5  6  2  0  0  0  0
  5  7  1  0  0  0  0
  2  3  1  0  0  0  0
  2  4  1  0  0  0  0
  2  5  1  0  0  0  0
  1  2  1  0  0  0  0
 22 23  2  0  0  0  0
 22 24  1  0  0  0  0
 20 21  1  0  0  0  0
 19 20  1  0  0  0  0
 17 18  1  0  0  0  0
 17 19  2  0  0  0  0
 15 16  1  0  0  0  0
 15 17  1  0  0  0  0
 14 15  1  0  0  0  0
 14 20  2  0  0  0  0
 11 12  1  0  0  0  0
 11 13  1  0  0  0  0
 11 14  1  0  0  0  0
  9 10  1  0  0  0  0
  9 11  1  0  0  0  0
  9 22  1  0  0  0  0
  7  8  1  0  0  0  0
  7  9  1  0  0  0  0
 26 27  1  0  0  0  0
 26 28  1  0  0  0  0
 26 29  1  0  0  0  0
 24 25  1  0  0  0  0
 24 26  1  0  0  0  0
M  END
$$$$
default_name
  -OEChem-02102213163D

 29 29  0     1  0  0  0  0  0999 V2000
   -3.6042   -3.5728    1.4576 H   0  0  0  0  0  0  0  0  0  0  0  0
   -3.5202   -2.6488    0.8866 C   0  0  0  0  0  0  0  0  0  0  0  0
   -4.2052   -1.9048    1.2896 H   0  0  0  0  0  0  0  0  0  0  0  0
   -3.7552   -2.8428   -0.1584 H   0  0  0  0  0  0  0  0  0  0  0  0
   -2.1052   -2.1358    0.9946 C   0  0  0  0  0  0  0  0  0  0  0  0
   -1.2852   -2.7288    1.6826 O   0  0  0  0  0  0  0  0  0  0  0  0
   -1.8202   -1.0288    0.3146 N   0  0  0  0  0  0  0  0  0  0  0  0
   -2.5542   -0.5788   -0.2104 H   0  0  0  0  0  0  0  0  0  0  0  0
   -0.5102   -0.3728    0.3086 C   0  0  1  0  0  0  0  0  0  0  0  0
    0.2354   -1.0844   -0.0490 H   0  0  0  0  0  0  0  0  0  0  0  0
   -0.5452    0.8158   -0.6698 C   0  0  0  0  0  0  0  0  0  0  0  0
   -1.2958    1.5333   -0.3337 H   0  0  0  0  0  0  0  0  0  0  0  0
    0.4254    1.3151   -0.6577 H   0  0  0  0  0  0  0  0  0  0  0  0
   -0.8616    0.4204   -2.0889 C   0  0  0  0  0  0  0  0  0  0  0  0
   -2.1167    0.3422   -2.6534 N   0  0  0  0  0  0  0  0  0  0  0  0
   -2.9946    0.4647   -2.1713 H   0  0  0  0  0  0  0  0  0  0  0  0
   -1.9681    0.0681   -3.9604 C   0  0  0  0  0  0  0  0  0  0  0  0
   -2.7772   -0.0596   -4.6691 H   0  0  0  0  0  0  0  0  0  0  0  0
   -0.6667   -0.0229   -4.2708 N   0  0  0  0  0  0  0  0  0  0  0  0
    0.0463    0.1949   -3.0890 C   0  0  0  0  0  0  0  0  0  0  0  0
    1.1236    0.2183   -2.9877 H   0  0  0  0  0  0  0  0  0  0  0  0
   -0.1073    0.0565    1.7296 C   0  0  0  0  0  0  0  0  0  0  0  0
    1.0285   -0.1699    2.1459 O   0  0  0  0  0  0  0  0  0  0  0  0
   -1.0395    0.6588    2.4785 N   0  0  0  0  0  0  0  0  0  0  0  0
   -1.9636    0.7597    2.0849 H   0  0  0  0  0  0  0  0  0  0  0  0
   -0.8222    1.1334    3.8425 C   0  0  0  0  0  0  0  0  0  0  0  0
   -0.0212    1.8761    3.8521 H   0  0  0  0  0  0  0  0  0  0  0  0
   -1.7349    1.5853    4.2320 H   0  0  0  0  0  0  0  0  0  0  0  0
   -0.5312    0.2997    4.4834 H   0  0  0  0  0  0  0  0  0  0  0  0
  5  6  2  0  0  0  0
  5  7  1  0  0  0  0
  2  3  1  0  0  0  0
  2  4  1  0  0  0  0
  2  5  1  0  0  0  0
  1  2  1  0  0  0  0
 22 23  2  0  0  0  0
 22 24  1  0  0  0  0
 20 21  1  0  0  0  0
 19 20  1  0  0  0  0
 17 18  1  0  0  0  0
 17 19  2  0  0  0  0
 15 16  1  0  0  0  0
 15 17  1  0  0  0  0
 14 15  1  0  0  0  0
 14 20  2  0  0  0  0
 11 12  1  0  0  0  0
 11 13  1  0  0  0  0
 11 14  1  0  0  0  0
  9 10  1  0  0  0  0
  9 11  1  0  0  0  0
  9 22  1  0  0  0  0
  7  8  1  0  0  0  0
  7  9  1  0  0  0  0
 26 27  1  0  0  0  0
 26 28  1  0  0  0  0
 26 29  1  0  0  0  0
 24 25  1  0  0  0  0
 24 26  1  0  0  0  0
M  END
$$$$
default_name
  -OEChem-02102213163D

 29 29  0     1  0  0  0  0  0999 V2000
   -3.6042   -3.5728    1.4576 H   0  0  0  0  0  0  0  0  0  0  0  0
   -3.5202   -2.6488    0.8866 C   0  0  0  0  0  0  0  0  0  0  0  0
   -4.2052   -1.9048    1.2896 H   0  0  0  0  0  0  0  0  0  0  0  0
   -3.7552   -2.8428   -0.1584 H   0  0  0  0  0  0  0  0  0  0  0  0
   -2.1052   -2.1358    0.9946 C   0  0  0  0  0  0  0  0  0  0  0  0
   -1.2852   -2.7288    1.6826 O   0  0  0  0  0  0  0  0  0  0  0  0
   -1.8202   -1.0288    0.3146 N   0  0  0  0  0  0  0  0  0  0  0  0
   -2.5542   -0.5788   -0.2104 H   0  0  0  0  0  0  0  0  0  0  0  0
   -0.5102   -0.3728    0.3086 C   0  0  1  0  0  0  0  0  0  0  0  0
    0.2354   -1.0844   -0.0490 H   0  0  0  0  0  0  0  0  0  0  0  0
   -0.5452    0.8158   -0.6698 C   0  0  0  0  0  0  0  0  0  0  0  0
   -1.2958    1.5333   -0.3337 H   0  0  0  0  0  0  0  0  0  0  0  0
    0.4254    1.3151   -0.6577 H   0  0  0  0  0  0  0  0  0  0  0  0
   -0.8616    0.4204   -2.0889 C   0  0  0  0  0  0  0  0  0  0  0  0
   -2.0605    0.6128   -2.7414 N   0  0  0  0  0  0  0  0  0  0  0  0
   -2.9092    0.9741   -2.3323 H   0  0  0  0  0  0  0  0  0  0  0  0
   -1.9041    0.2294   -4.0196 C   0  0  0  0  0  0  0  0  0  0  0  0
   -2.6748    0.2570   -4.7802 H   0  0  0  0  0  0  0  0  0  0  0  0
   -0.6484   -0.1929   -4.2275 N   0  0  0  0  0  0  0  0  0  0  0  0
    0.0225   -0.0803   -3.0070 C   0  0  0  0  0  0  0  0  0  0  0  0
    1.0643   -0.3119   -2.8267 H   0  0  0  0  0  0  0  0  0  0  0  0
   -0.1073    0.0565    1.7296 C   0  0  0  0  0  0  0  0  0  0  0  0
    1.0285   -0.1699    2.1459 O   0  0  0  0  0  0  0  0  0  0  0  0
   -1.0395    0.6588    2.4785 N   0  0  0  0  0  0  0  0  0  0  0  0
   -1.9636    0.7597    2.0849 H   0  0  0  0  0  0  0  0  0  0  0  0
   -0.8222    1.1334    3.8425 C   0  0  0  0  0  0  0  0  0  0  0  0
   -0.0212    1.8761    3.8521 H   0  0  0  0  0  0  0  0  0  0  0  0
   -1.7349    1.5853    4.2320 H   0  0  0  0  0  0  0  0  0  0  0  0
   -0.5312    0.2997    4.4834 H   0  0  0  0  0  0  0  0  0  0  0  0
  5  6  2  0  0  0  0
  5  7  1  0  0  0  0
  2  3  1  0  0  0  0
  2  4  1  0  0  0  0
  2  5  1  0  0  0  0
  1  2  1  0  0  0  0
 22 23  2  0  0  0  0
 22 24  1  0  0  0  0
 20 21  1  0  0  0  0
 19 20  1  0  0  0  0
 17 18  1  0  0  0  0
 17 19  2  0  0  0  0
 15 16  1  0  0  0  0
 15 17  1  0  0  0  0
 14 15  1  0  0  0  0
 14 20  2  0  0  0  0
 11 12  1  0  0  0  0
 11 13  1  0  0  0  0
 11 14  1  0  0  0  0
  9 10  1  0  0  0  0
  9 11  1  0  0  0  0
  9 22  1  0  0  0  0
  7  8  1  0  0  0  0
  7  9  1  0  0  0  0
 26 27  1  0  0  0  0
 26 28  1  0  0  0  0
 26 29  1  0  0  0  0
 24 25  1  0  0  0  0
 24 26  1  0  0  0  0
M  END
$$$$
default_name
  -OEChem-02102213163D

 29 29  0     1  0  0  0  0  0999 V2000
   -3.6042   -3.5728    1.4576 H   0  0  0  0  0  0  0  0  0  0  0  0
   -3.5202   -2.6488    0.8866 C   0  0  0  0  0  0  0  0  0  0  0  0
   -4.2052   -1.9048    1.2896 H   0  0  0  0  0  0  0  0  0  0  0  0
   -3.7552   -2.8428   -0.1584 H   0  0  0  0  0  0  0  0  0  0  0  0
   -2.1052   -2.1358    0.9946 C   0  0  0  0  0  0  0  0  0  0  0  0
   -1.2852   -2.7288    1.6826 O   0  0  0  0  0  0  0  0  0  0  0  0
   -1.8202   -1.0288    0.3146 N   0  0  0  0  0  0  0  0  0  0  0  0
   -2.5542   -0.5788   -0.2104 H   0  0  0  0  0  0  0  0  0  0  0  0
   -0.5102   -0.3728    0.3086 C   0  0  1  0  0  0  0  0  0  0  0  0
    0.2354   -1.0844   -0.0490 H   0  0  0  0  0  0  0  0  0  0  0  0
   -0.5452    0.8158   -0.6698 C   0  0  0  0  0  0  0  0  0  0  0  0
   -1.2958    1.5333   -0.3337 H   0  0  0  0  0  0  0  0  0  0  0  0
    0.4254    1.3151   -0.6577 H   0  0  0  0  0  0  0  0  0  0  0  0
   -0.8616    0.4204   -2.0889 C   0  0  0  0  0  0  0  0  0  0  0  0
   -1.9342    0.8557   -2.8372 N   0  0  0  0  0  0  0  0  0  0  0  0
   -2.6916    1.4365   -2.5096 H   0  0  0  0  0  0  0  0  0  0  0  0
   -1.7989    0.3664   -4.0813 C   0  0  0  0  0  0  0  0  0  0  0  0
   -2.4912    0.5318   -4.8977 H   0  0  0  0  0  0  0  0  0  0  0  0
   -0.6752   -0.3593   -4.1752 N   0  0  0  0  0  0  0  0  0  0  0  0
   -0.0731   -0.3359   -2.9145 C   0  0  0  0  0  0  0  0  0  0  0  0
    0.8668   -0.8009   -2.6465 H   0  0  0  0  0  0  0  0  0  0  0  0
   -0.1073    0.0565    1.7296 C   0  0  0  0  0  0  0  0  0  0  0  0
    1.0285   -0.1699    2.1459 O   0  0  0  0  0  0  0  0  0  0  0  0
   -1.0395    0.6588    2.4785 N   0  0  0  0  0  0  0  0  0  0  0  0
   -1.9636    0.7597    2.0849 H   0  0  0  0  0  0  0  0  0  0  0  0
   -0.8222    1.1334    3.8425 C   0  0  0  0  0  0  0  0  0  0  0  0
   -0.0212    1.8761    3.8521 H   0  0  0  0  0  0  0  0  0  0  0  0
   -1.7349    1.5853    4.2320 H   0  0  0  0  0  0  0  0  0  0  0  0
   -0.5312    0.2997    4.4834 H   0  0  0  0  0  0  0  0  0  0  0  0
  5  6  2  0  0  0  0
  5  7  1  0  0  0  0
  2  3  1  0  0  0  0
  2  4  1  0  0  0  0
  2  5  1  0  0  0  0
  1  2  1  0  0  0  0
 22 23  2  0  0  0  0
 22 24  1  0  0  0  0
 20 21  1  0  0  0  0
 19 20  1  0  0  0  0
 17 18  1  0  0  0  0
 17 19  2  0  0  0  0
 15 16  1  0  0  0  0
 15 17  1  0  0  0  0
 14 15  1  0  0  0  0
 14 20  2  0  0  0  0
 11 12  1  0  0  0  0
 11 13  1  0  0  0  0
 11 14  1  0  0  0  0
  9 10  1  0  0  0  0
  9 11  1  0  0  0  0
  9 22  1  0  0  0  0
  7  8  1  0  0  0  0
  7  9  1  0  0  0  0
 26 27  1  0  0  0  0
 26 28  1  0  0  0  0
 26 29  1  0  0  0  0
 24 25  1  0  0  0  0
 24 26  1  0  0  0  0
M  END
$$$$
default_name
  -OEChem-02102213163D

 29 29  0     1  0  0  0  0  0999 V2000
   -3.6042   -3.5728    1.4576 H   0  0  0  0  0  0  0  0  0  0  0  0
   -3.5202   -2.6488    0.8866 C   0  0  0  0  0  0  0  0  0  0  0  0
   -4.2052   -1.9048    1.2896 H   0  0  0  0  0  0  0  0  0  0  0  0
   -3.7552   -2.8428   -0.1584 H   0  0  0  0  0  0  0  0  0  0  0  0
   -2.1052   -2.1358    0.9946 C   0  0  0  0  0  0  0  0  0  0  0  0
   -1.2852   -2.7288    1.6826 O   0  0  0  0  0  0  0  0  0  0  0  0
   -1.8202   -1.0288    0.3146 N   0  0  0  0  0  0  0  0  0  0  0  0
   -2.5542   -0.5788   -0.2104 H   0  0  0  0  0  0  0  0  0  0  0  0
   -0.5102   -0.3728    0.3086 C   0  0  1  0  0  0  0  0  0  0  0  0
    0.2354   -1.0844   -0.0490 H   0  0  0  0  0  0  0  0  0  0  0  0
   -0.5452    0.8158   -0.6698 C   0  0  0  0  0  0  0  0  0  0  0  0
   -1.2958    1.5333   -0.3337 H   0  0  0  0  0  0  0  0  0  0  0  0
    0.4254    1.3151   -0.6577 H   0  0  0  0  0  0  0  0  0  0  0  0
   -0.8616    0.4204   -2.0889 C   0  0  0  0  0  0  0  0  0  0  0  0
   -1.7466    1.0544   -2.9344 N   0  0  0  0  0  0  0  0  0  0  0  0
   -2.3566    1.8205   -2.6913 H   0  0  0  0  0  0  0  0  0  0  0  0
   -1.6597    0.4698   -4.1411 C   0  0  0  0  0  0  0  0  0  0  0  0
   -2.2389    0.7461   -5.0137 H   0  0  0  0  0  0  0  0  0  0  0  0
   -0.7451   -0.5106   -4.1174 N   0  0  0  0  0  0  0  0  0  0  0  0
   -0.2340   -0.5545   -2.8177 C   0  0  0  0  0  0  0  0  0  0  0  0
    0.5446   -1.2152   -2.4592 H   0  0  0  0  0  0  0  0  0  0  0  0
   -0.1073    0.0565    1.7296 C   0  0  0  0  0  0  0  0  0  0  0  0
    1.0285   -0.1699    2.1459 O   0  0  0  0  0  0  0  0  0  0  0  0
   -1.0395    0.6588    2.4785 N   0  0  0  0  0  0  0  0  0  0  0  0
   -1.9636    0.7597    2.0849 H   0  0  0  0  0  0  0  0  0  0  0  0
   -0.8222    1.1334    3.8425 C   0  0  0  0  0  0  0  0  0  0  0  0
   -0.0212    1.8761    3.8521 H   0  0  0  0  0  0  0  0  0  0  0  0
   -1.7349    1.5853    4.2320 H   0  0  0  0  0  0  0  0  0  0  0  0
   -0.5312    0.2997    4.4834 H   0  0  0  0  0  0  0  0  0  0  0  0
  5  6  2  0  0  0  0
  5  7  1  0  0  0  0
  2  3  1  0  0  0  0
  2  4  1  0  0  0  0
  2  5  1  0  0  0  0
  1  2  1  0  0  0  0
 22 23  2  0  0  0  0
 22 24  1  0  0  0  0
 20 21  1  0  0  0  0
 19 20  1  0  0  0  0
 17 18  1  0  0  0  0
 17 19  2  0  0  0  0
 15 16  1  0  0  0  0
 15 17  1  0  0  0  0
 14 15  1  0  0  0  0
 14 20  2  0  0  0  0
 11 12  1  0  0  0  0
 11 13  1  0  0  0  0
 11 14  1  0  0  0  0
  9 10  1  0  0  0  0
  9 11  1  0  0  0  0
  9 22  1  0  0  0  0
  7  8  1  0  0  0  0
  7  9  1  0  0  0  0
 26 27  1  0  0  0  0
 26 28  1  0  0  0  0
 26 29  1  0  0  0  0
 24 25  1  0  0  0  0
 24 26  1  0  0  0  0
M  END
$$$$
default_name
  -OEChem-02102213163D

 29 29  0     1  0  0  0  0  0999 V2000
   -3.6042   -3.5728    1.4576 H   0  0  0  0  0  0  0  0  0  0  0  0
   -3.5202   -2.6488    0.8866 C   0  0  0  0  0  0  0  0  0  0  0  0
   -4.2052   -1.9048    1.2896 H   0  0  0  0  0  0  0  0  0  0  0  0
   -3.7552   -2.8428   -0.1584 H   0  0  0  0  0  0  0  0  0  0  0  0
   -2.1052   -2.1358    0.9946 C   0  0  0  0  0  0  0  0  0  0  0  0
   -1.2852   -2.7288    1.6826 O   0  0  0  0  0  0  0  0  0  0  0  0
   -1.8202   -1.0288    0.3146 N   0  0  0  0  0  0  0  0  0  0  0  0
   -2.5542   -0.5788   -0.2104 H   0  0  0  0  0  0  0  0  0  0  0  0
   -0.5102   -0.3728    0.3086 C   0  0  1  0  0  0  0  0  0  0  0  0
    0.2354   -1.0844   -0.0490 H   0  0  0  0  0  0  0  0  0  0  0  0
   -0.5452    0.8158   -0.6698 C   0  0  0  0  0  0  0  0  0  0  0  0
   -1.2958    1.5333   -0.3337 H   0  0  0  0  0  0  0  0  0  0  0  0
    0.4254    1.3151   -0.6577 H   0  0  0  0  0  0  0  0  0  0  0  0
   -0.8616    0.4204   -2.0889 C   0  0  0  0  0  0  0  0  0  0  0  0
   -1.5103    1.1953   -3.0263 N   0  0  0  0  0  0  0  0  0  0  0  0
   -1.9272    2.0999   -2.8649 H   0  0  0  0  0  0  0  0  0  0  0  0
   -1.4960    0.5325   -4.1950 C   0  0  0  0  0  0  0  0  0  0  0  0
   -1.9351    0.8853   -5.1202 H   0  0  0  0  0  0  0  0  0  0  0  0
   -0.8535   -0.6366   -4.0582 N   0  0  0  0  0  0  0  0  0  0  0  0
   -0.4493   -0.7211   -2.7232 C   0  0  0  0  0  0  0  0  0  0  0  0
    0.1197   -1.5267   -2.2776 H   0  0  0  0  0  0  0  0  0  0  0  0
   -0.1073    0.0565    1.7296 C   0  0  0  0  0  0  0  0  0  0  0  0
    1.0285   -0.1699    2.1459 O   0  0  0  0  0  0  0  0  0  0  0  0
   -1.0395    0.6588    2.4785 N   0  0  0  0  0  0  0  0  0  0  0  0
   -1.9636    0.7597    2.0849 H   0  0  0  0  0  0  0  0  0  0  0  0
   -0.8222    1.1334    3.8425 C   0  0  0  0  0  0  0  0  0  0  0  0
   -0.0212    1.8761    3.8521 H   0  0  0  0  0  0  0  0  0  0  0  0
   -1.7349    1.5853    4.2320 H   0  0  0  0  0  0  0  0  0  0  0  0
   -0.5312    0.2997    4.4834 H   0  0  0  0  0  0  0  0  0  0  0  0
  5  6  2  0  0  0  0
  5  7  1  0  0  0  0
  2  3  1  0  0  0  0
  2  4  1  0  0  0  0
  2  5  1  0  0  0  0
  1  2  1  0  0  0  0
 22 23  2  0  0  0  0
 22 24  1  0  0  0  0
 20 21  1  0  0  0  0
 19 20  1  0  0  0  0
 17 18  1  0  0  0  0
 17 19  2  0  0  0  0
 15 16  1  0  0  0  0
 15 17  1  0  0  0  0
 14 15  1  0  0  0  0
 14 20  2  0  0  0  0
 11 12  1  0  0  0  0
 11 13  1  0  0  0  0
 11 14  1  0  0  0  0
  9 10  1  0  0  0  0
  9 11  1  0  0  0  0
  9 22  1  0  0  0  0
  7  8  1  0  0  0  0
  7  9  1  0  0  0  0
 26 27  1  0  0  0  0
 26 28  1  0  0  0  0
 26 29  1  0  0  0  0
 24 25  1  0  0  0  0
 24 26  1  0  0  0  0
M  END
$$$$
default_name
  -OEChem-02102213163D

 29 29  0     1  0  0  0  0  0999 V2000
   -3.6042   -3.5728    1.4576 H   0  0  0  0  0  0  0  0  0  0  0  0
   -3.5202   -2.6488    0.8866 C   0  0  0  0  0  0  0  0  0  0  0  0
   -4.2052   -1.9048    1.2896 H   0  0  0  0  0  0  0  0  0  0  0  0
   -3.7552   -2.8428   -0.1584 H   0  0  0  0  0  0  0  0  0  0  0  0
   -2.1052   -2.1358    0.9946 C   0  0  0  0  0  0  0  0  0  0  0  0
   -1.2852   -2.7288    1.6826 O   0  0  0  0  0  0  0  0  0  0  0  0
   -1.8202   -1.0288    0.3146 N   0  0  0  0  0  0  0  0  0  0  0  0
   -2.5542   -0.5788   -0.2104 H   0  0  0  0  0  0  0  0  0  0  0  0
   -0.5102   -0.3728    0.3086 C   0  0  1  0  0  0  0  0  0  0  0  0
    0.2354   -1.0844   -0.0490 H   0  0  0  0  0  0  0  0  0  0  0  0
   -0.5452    0.8158   -0.6698 C   0  0  0  0  0  0  0  0  0  0  0  0
   -1.2958    1.5333   -0.3337 H   0  0  0  0  0  0  0  0  0  0  0  0
    0.4254    1.3151   -0.6577 H   0  0  0  0  0  0  0  0  0  0  0  0
   -0.8616    0.4204   -2.0889 C   0  0  0  0  0  0  0  0  0  0  0  0
   -1.2415    1.2687   -3.1068 N   0  0  0  0  0  0  0  0  0  0  0  0
   -1.4324    2.2556   -3.0186 H   0  0  0  0  0  0  0  0  0  0  0  0
   -1.3190    0.5501   -4.2395 C   0  0  0  0  0  0  0  0  0  0  0  0
   -1.6005    0.9399   -5.2101 H   0  0  0  0  0  0  0  0  0  0  0  0
   -0.9929   -0.7287   -4.0014 N   0  0  0  0  0  0  0  0  0  0  0  0
   -0.7043   -0.8244   -2.6376 C   0  0  0  0  0  0  0  0  0  0  0  0
   -0.3790   -1.7141   -2.1142 H   0  0  0  0  0  0  0  0  0  0  0  0
   -0.1073    0.0565    1.7296 C   0  0  0  0  0  0  0  0  0  0  0  0
    1.0285   -0.1699    2.1459 O   0  0  0  0  0  0  0  0  0  0  0  0
   -1.0395    0.6588    2.4785 N   0  0  0  0  0  0  0  0  0  0  0  0
   -1.9636    0.7597    2.0849 H   0  0  0  0  0  0  0  0  0  0  0  0
   -0.8222    1.1334    3.8425 C   0  0  0  0  0  0  0  0  0  0  0  0
   -0.0212    1.8761    3.8521 H   0  0  0  0  0  0  0  0  0  0  0  0
   -1.7349    1.5853    4.2320 H   0  0  0  0  0  0  0  0  0  0  0  0
   -0.5312    0.2997    4.4834 H   0  0  0  0  0  0  0  0  0  0  0  0
  5  6  2  0  0  0  0
  5  7  1  0  0  0  0
  2  3  1  0  0  0  0
  2  4  1  0  0  0  0
  2  5  1  0  0  0  0
  1  2  1  0  0  0  0
 22 23  2  0  0  0  0
 22 24  1  0  0  0  0
 20 21  1  0  0  0  0
 19 20  1  0  0  0  0
 17 18  1  0  0  0  0
 17 19  2  0  0  0  0
 15 16  1  0  0  0  0
 15 17  1  0  0  0  0
 14 15  1  0  0  0  0
 14 20  2  0  0  0  0
 11 12  1  0  0  0  0
 11 13  1  0  0  0  0
 11 14  1  0  0  0  0
  9 10  1  0  0  0  0
  9 11  1  0  0  0  0
  9 22  1  0  0  0  0
  7  8  1  0  0  0  0
  7  9  1  0  0  0  0
 26 27  1  0  0  0  0
 26 28  1  0  0  0  0
 26 29  1  0  0  0  0
 24 25  1  0  0  0  0
 24 26  1  0  0  0  0
M  END
$$$$
default_name
  -OEChem-02102213163D

 29 29  0     1  0  0  0  0  0999 V2000
   -3.6042   -3.5728    1.4576 H   0  0  0  0  0  0  0  0  0  0  0  0
   -3.5202   -2.6488    0.8866 C   0  0  0  0  0  0  0  0  0  0  0  0
   -4.2052   -1.9048    1.2896 H   0  0  0  0  0  0  0  0  0  0  0  0
   -3.7552   -2.8428   -0.1584 H   0  0  0  0  0  0  0  0  0  0  0  0
   -2.1052   -2.1358    0.9946 C   0  0  0  0  0  0  0  0  0  0  0  0
   -1.2852   -2.7288    1.6826 O   0  0  0  0  0  0  0  0  0  0  0  0
   -1.8202   -1.0288    0.3146 N   0  0  0  0  0  0  0  0  0  0  0  0
   -2.5542   -0.5788   -0.2104 H   0  0  0  0  0  0  0  0  0  0  0  0
   -0.5102   -0.3728    0.3086 C   0  0  1  0  0  0  0  0  0  0  0  0
    0.2354   -1.0844   -0.0490 H   0  0  0  0  0  0  0  0  0  0  0  0
   -0.5452    0.8158   -0.6698 C   0  0  0  0  0  0  0  0  0  0  0  0
   -1.0854    1.6437   -0.2072 H   0  0  0  0  0  0  0  0  0  0  0  0
    0.4766    1.1480   -0.8627 H   0  0  0  0  0  0  0  0  0  0  0  0
   -1.1998    0.4934   -1.9881 C   0  0  0  0  0  0  0  0  0  0  0  0
   -1.3707    1.3588   -3.0473 N   0  0  0  0  0  0  0  0  0  0  0  0
   -1.1495    2.3433   -3.0528 H   0  0  0  0  0  0  0  0  0  0  0  0
   -1.8898    0.6630   -4.0728 C   0  0  0  0  0  0  0  0  0  0  0  0
   -2.1414    1.0725   -5.0435 H   0  0  0  0  0  0  0  0  0  0  0  0
   -2.0518   -0.6225   -3.7271 N   0  0  0  0  0  0  0  0  0  0  0  0
   -1.6208   -0.7418   -2.4032 C   0  0  0  0  0  0  0  0  0  0  0  0
   -1.5900   -1.6536   -1.8209 H   0  0  0  0  0  0  0  0  0  0  0  0
   -0.1073    0.0565    1.7296 C   0  0  0  0  0  0  0  0  0  0  0  0
    1.0285   -0.1699    2.1459 O   0  0  0  0  0  0  0  0  0  0  0  0
   -1.0395    0.6588    2.4785 N   0  0  0  0  0  0  0  0  0  0  0  0
   -1.9636    0.7597    2.0849 H   0  0  0  0  0  0  0  0  0  0  0  0
   -0.8222    1.1334    3.8425 C   0  0  0  0  0  0  0  0  0  0  0  0
   -0.0212    1.8761    3.8521 H   0  0  0  0  0  0  0  0  0  0  0  0
   -1.7349    1.5853    4.2320 H   0  0  0  0  0  0  0  0  0  0  0  0
   -0.5312    0.2997    4.4834 H   0  0  0  0  0  0  0  0  0  0  0  0
  5  6  2  0  0  0  0
  5  7  1  0  0  0  0
  2  3  1  0  0  0  0
  2  4  1  0  0  0  0
  2  5  1  0  0  0  0
  1  2  1  0  0  0  0
 22 23  2  0  0  0  0
 22 24  1  0  0  0  0
 20 21  1  0  0  0  0
 19 20  1  0  0  0  0
 17 18  1  0  0  0  0
 17 19  2  0  0  0  0
 15 16  1  0  0  0  0
 15 17  1  0  0  0  0
 14 15  1  0  0  0  0
 14 20  2  0  0  0  0
 11 12  1  0  0  0  0
 11 13  1  0  0  0  0
 11 14  1  0  0  0  0
  9 10  1  0  0  0  0
  9 11  1  0  0  0  0
  9 22  1  0  0  0  0
  7  8  1  0  0  0  0
  7  9  1  0  0  0  0
 26 27  1  0  0  0  0
 26 28  1  0  0  0  0
 26 29  1  0  0  0  0
 24 25  1  0  0  0  0
 24 26  1  0  0  0  0
M  END
$$$$
default_name
  -OEChem-02102213163D

 29 29  0     1  0  0  0  0  0999 V2000
   -3.6042   -3.5728    1.4576 H   0  0  0  0  0  0  0  0  0  0  0  0
   -3.5202   -2.6488    0.8866 C   0  0  0  0  0  0  0  0  0  0  0  0
   -4.2052   -1.9048    1.2896 H   0  0  0  0  0  0  0  0  0  0  0  0
   -3.7552   -2.8428   -0.1584 H   0  0  0  0  0  0  0  0  0  0  0  0
   -2.1052   -2.1358    0.9946 C   0  0  0  0  0  0  0  0  0  0  0  0
   -1.2852   -2.7288    1.6826 O   0  0  0  0  0  0  0  0  0  0  0  0
   -1.8202   -1.0288    0.3146 N   0  0  0  0  0  0  0  0  0  0  0  0
   -2.5542   -0.5788   -0.2104 H   0  0  0  0  0  0  0  0  0  0  0  0
   -0.5102   -0.3728    0.3086 C   0  0  1  0  0  0  0  0  0  0  0  0
    0.2354   -1.0844   -0.0490 H   0  0  0  0  0  0  0  0  0  0  0  0
   -0.5452    0.8158   -0.6698 C   0  0  0  0  0  0  0  0  0  0  0  0
   -1.0854    1.6437   -0.2072 H   0  0  0  0  0  0  0  0  0  0  0  0
    0.4766    1.1480   -0.8627 H   0  0  0  0  0  0  0  0  0  0  0  0
   -1.1998    0.4934   -1.9881 C   0  0  0  0  0  0  0  0  0  0  0  0
   -1.1223    1.2430   -3.1423 N   0  0  0  0  0  0  0  0  0  0  0  0
   -0.6810    2.1454   -3.2371 H   0  0  0  0  0  0  0  0  0  0  0  0
   -1.7433    0.5638   -4.1213 C   0  0  0  0  0  0  0  0  0  0  0  0
   -1.8528    0.9009   -5.1448 H   0  0  0  0  0  0  0  0  0  0  0  0
   -2.2107   -0.6026   -3.6530 N   0  0  0  0  0  0  0  0  0  0  0  0
   -1.8752   -0.6569   -2.2977 C   0  0  0  0  0  0  0  0  0  0  0  0
   -2.0793   -1.4768   -1.6212 H   0  0  0  0  0  0  0  0  0  0  0  0
   -0.1073    0.0565    1.7296 C   0  0  0  0  0  0  0  0  0  0  0  0
    1.0285   -0.1699    2.1459 O   0  0  0  0  0  0  0  0  0  0  0  0
   -1.0395    0.6588    2.4785 N   0  0  0  0  0  0  0  0  0  0  0  0
   -1.9636    0.7597    2.0849 H   0  0  0  0  0  0  0  0  0  0  0  0
   -0.8222    1.1334    3.8425 C   0  0  0  0  0  0  0  0  0  0  0  0
   -0.0212    1.8761    3.8521 H   0  0  0  0  0  0  0  0  0  0  0  0
   -1.7349    1.5853    4.2320 H   0  0  0  0  0  0  0  0  0  0  0  0
   -0.5312    0.2997    4.4834 H   0  0  0  0  0  0  0  0  0  0  0  0
  5  6  2  0  0  0  0
  5  7  1  0  0  0  0
  2  3  1  0  0  0  0
  2  4  1  0  0  0  0
  2  5  1  0  0  0  0
  1  2  1  0  0  0  0
 22 23  2  0  0  0  0
 22 24  1  0  0  0  0
 20 21  1  0  0  0  0
 19 20  1  0  0  0  0
 17 18  1  0  0  0  0
 17 19  2  0  0  0  0
 15 16  1  0  0  0  0
 15 17  1  0  0  0  0
 14 15  1  0  0  0  0
 14 20  2  0  0  0  0
 11 12  1  0  0  0  0
 11 13  1  0  0  0  0
 11 14  1  0  0  0  0
  9 10  1  0  0  0  0
  9 11  1  0  0  0  0
  9 22  1  0  0  0  0
  7  8  1  0  0  0  0
  7  9  1  0  0  0  0
 26 27  1  0  0  0  0
 26 28  1  0  0  0  0
 26 29  1  0  0  0  0
 24 25  1  0  0  0  0
 24 26  1  0  0  0  0
M  END
$$$$
default_name
  -OEChem-02102213163D

 29 29  0     1  0  0  0  0  0999 V2000
   -3.6042   -3.5728    1.4576 H   0  0  0  0  0  0  0  0  0  0  0  0
   -3.5202   -2.6488    0.8866 C   0  0  0  0  0  0  0  0  0  0  0  0
   -4.2052   -1.9048    1.2896 H   0  0  0  0  0  0  0  0  0  0  0  0
   -3.7552   -2.8428   -0.1584 H   0  0  0  0  0  0  0  0  0  0  0  0
   -2.1052   -2.1358    0.9946 C   0  0  0  0  0  0  0  0  0  0  0  0
   -1.2852   -2.7288    1.6826 O   0  0  0  0  0  0  0  0  0  0  0  0
   -1.8202   -1.0288    0.3146 N   0  0  0  0  0  0  0  0  0  0  0  0
   -2.5542   -0.5788   -0.2104 H   0  0  0  0  0  0  0  0  0  0  0  0
   -0.5102   -0.3728    0.3086 C   0  0  1  0  0  0  0  0  0  0  0  0
    0.2354   -1.0844   -0.0490 H   0  0  0  0  0  0  0  0  0  0  0  0
   -0.5452    0.8158   -0.6698 C   0  0  0  0  0  0  0  0  0  0  0  0
   -1.0854    1.6437   -0.2072 H   0  0  0  0  0  0  0  0  0  0  0  0
    0.4766    1.1480   -0.8627 H   0  0  0  0  0  0  0  0  0  0  0  0
   -1.1998    0.4934   -1.9881 C   0  0  0  0  0  0  0  0  0  0  0  0
   -0.9034    1.0642   -3.2073 N   0  0  0  0  0  0  0  0  0  0  0  0
   -0.2630    1.8275   -3.3669 H   0  0  0  0  0  0  0  0  0  0  0  0
   -1.6216    0.4294   -4.1488 C   0  0  0  0  0  0  0  0  0  0  0  0
   -1.6073    0.6583   -5.2074 H   0  0  0  0  0  0  0  0  0  0  0  0
   -2.3638   -0.5391   -3.5925 N   0  0  0  0  0  0  0  0  0  0  0  0
   -2.1075   -0.5055   -2.2193 C   0  0  0  0  0  0  0  0  0  0  0  0
   -2.5229   -1.1728   -1.4752 H   0  0  0  0  0  0  0  0  0  0  0  0
   -0.1073    0.0565    1.7296 C   0  0  0  0  0  0  0  0  0  0  0  0
    1.0285   -0.1699    2.1459 O   0  0  0  0  0  0  0  0  0  0  0  0
   -1.0395    0.6588    2.4785 N   0  0  0  0  0  0  0  0  0  0  0  0
   -1.9636    0.7597    2.0849 H   0  0  0  0  0  0  0  0  0  0  0  0
   -0.8222    1.1334    3.8425 C   0  0  0  0  0  0  0  0  0  0  0  0
   -0.0212    1.8761    3.8521 H   0  0  0  0  0  0  0  0  0  0  0  0
   -1.7349    1.5853    4.2320 H   0  0  0  0  0  0  0  0  0  0  0  0
   -0.5312    0.2997    4.4834 H   0  0  0  0  0  0  0  0  0  0  0  0
  5  6  2  0  0  0  0
  5  7  1  0  0  0  0
  2  3  1  0  0  0  0
  2  4  1  0  0  0  0
  2  5  1  0  0  0  0
  1  2  1  0  0  0  0
 22 23  2  0  0  0  0
 22 24  1  0  0  0  0
 20 21  1  0  0  0  0
 19 20  1  0  0  0  0
 17 18  1  0  0  0  0
 17 19  2  0  0  0  0
 15 16  1  0  0  0  0
 15 17  1  0  0  0  0
 14 15  1  0  0  0  0
 14 20  2  0  0  0  0
 11 12  1  0  0  0  0
 11 13  1  0  0  0  0
 11 14  1  0  0  0  0
  9 10  1  0  0  0  0
  9 11  1  0  0  0  0
  9 22  1  0  0  0  0
  7  8  1  0  0  0  0
  7  9  1  0  0  0  0
 26 27  1  0  0  0  0
 26 28  1  0  0  0  0
 26 29  1  0  0  0  0
 24 25  1  0  0  0  0
 24 26  1  0  0  0  0
M  END
$$$$
default_name
  -OEChem-02102213163D

 29 29  0     1  0  0  0  0  0999 V2000
   -3.6042   -3.5728    1.4576 H   0  0  0  0  0  0  0  0  0  0  0  0
   -3.5202   -2.6488    0.8866 C   0  0  0  0  0  0  0  0  0  0  0  0
   -4.2052   -1.9048    1.2896 H   0  0  0  0  0  0  0  0  0  0  0  0
   -3.7552   -2.8428   -0.1584 H   0  0  0  0  0  0  0  0  0  0  0  0
   -2.1052   -2.1358    0.9946 C   0  0  0  0  0  0  0  0  0  0  0  0
   -1.2852   -2.7288    1.6826 O   0  0  0  0  0  0  0  0  0  0  0  0
   -1.8202   -1.0288    0.3146 N   0  0  0  0  0  0  0  0  0  0  0  0
   -2.5542   -0.5788   -0.2104 H   0  0  0  0  0  0  0  0  0  0  0  0
   -0.5102   -0.3728    0.3086 C   0  0  1  0  0  0  0  0  0  0  0  0
    0.2354   -1.0844   -0.0490 H   0  0  0  0  0  0  0  0  0  0  0  0
   -0.5452    0.8158   -0.6698 C   0  0  0  0  0  0  0  0  0  0  0  0
   -1.0854    1.6437   -0.2072 H   0  0  0  0  0  0  0  0  0  0  0  0
    0.4766    1.1480   -0.8627 H   0  0  0  0  0  0  0  0  0  0  0  0
   -1.1998    0.4934   -1.9881 C   0  0  0  0  0  0  0  0  0  0  0  0
   -0.7288    0.8346   -3.2378 N   0  0  0  0  0  0  0  0  0  0  0  0
    0.0759    1.4111   -3.4334 H   0  0  0  0  0  0  0  0  0  0  0  0
   -1.5330    0.2689   -4.1536 C   0  0  0  0  0  0  0  0  0  0  0  0
   -1.4216    0.3614   -5.2270 H   0  0  0  0  0  0  0  0  0  0  0  0
   -2.5006   -0.4363   -3.5497 N   0  0  0  0  0  0  0  0  0  0  0  0
   -2.3020   -0.2979   -2.1735 C   0  0  0  0  0  0  0  0  0  0  0  0
   -2.8907   -0.7622   -1.3930 H   0  0  0  0  0  0  0  0  0  0  0  0
   -0.1073    0.0565    1.7296 C   0  0  0  0  0  0  0  0  0  0  0  0
    1.0285   -0.1699    2.1459 O   0  0  0  0  0  0  0  0  0  0  0  0
   -1.0395    0.6588    2.4785 N   0  0  0  0  0  0  0  0  0  0  0  0
   -1.9636    0.7597    2.0849 H   0  0  0  0  0  0  0  0  0  0  0  0
   -0.8222    1.1334    3.8425 C   0  0  0  0  0  0  0  0  0  0  0  0
   -0.0212    1.8761    3.8521 H   0  0  0  0  0  0  0  0  0  0  0  0
   -1.7349    1.5853    4.2320 H   0  0  0  0  0  0  0  0  0  0  0  0
   -0.5312    0.2997    4.4834 H   0  0  0  0  0  0  0  0  0  0  0  0
  5  6  2  0  0  0  0
  5  7  1  0  0  0  0
  2  3  1  0  0  0  0
  2  4  1  0  0  0  0
  2  5  1  0  0  0  0
  1  2  1  0  0  0  0
 22 23  2  0  0  0  0
 22 24  1  0  0  0  0
 20 21  1  0  0  0  0
 19 20  1  0  0  0  0
 17 18  1  0  0  0  0
 17 19  2  0  0  0  0
 15 16  1  0  0  0  0
 15 17  1  0  0  0  0
 14 15  1  0  0  0  0
 14 20  2  0  0  0  0
 11 12  1  0  0  0  0
 11 13  1  0  0  0  0
 11 14  1  0  0  0  0
  9 10  1  0  0  0  0
  9 11  1  0  0  0  0
  9 22  1  0  0  0  0
  7  8  1  0  0  0  0
  7  9  1  0  0  0  0
 26 27  1  0  0  0  0
 26 28  1  0  0  0  0
 26 29  1  0  0  0  0
 24 25  1  0  0  0  0
 24 26  1  0  0  0  0
M  END
$$$$
default_name
  -OEChem-02102213163D

 29 29  0     1  0  0  0  0  0999 V2000
   -3.6042   -3.5728    1.4576 H   0  0  0  0  0  0  0  0  0  0  0  0
   -3.5202   -2.6488    0.8866 C   0  0  0  0  0  0  0  0  0  0  0  0
   -4.2052   -1.9048    1.2896 H   0  0  0  0  0  0  0  0  0  0  0  0
   -3.7552   -2.8428   -0.1584 H   0  0  0  0  0  0  0  0  0  0  0  0
   -2.1052   -2.1358    0.9946 C   0  0  0  0  0  0  0  0  0  0  0  0
   -1.2852   -2.7288    1.6826 O   0  0  0  0  0  0  0  0  0  0  0  0
   -1.8202   -1.0288    0.3146 N   0  0  0  0  0  0  0  0  0  0  0  0
   -2.5542   -0.5788   -0.2104 H   0  0  0  0  0  0  0  0  0  0  0  0
   -0.5102   -0.3728    0.3086 C   0  0  1  0  0  0  0  0  0  0  0  0
    0.2354   -1.0844   -0.0490 H   0  0  0  0  0  0  0  0  0  0  0  0
   -0.5452    0.8158   -0.6698 C   0  0  0  0  0  0  0  0  0  0  0  0
   -1.0854    1.6437   -0.2072 H   0  0  0  0  0  0  0  0  0  0  0  0
    0.4766    1.1480   -0.8627 H   0  0  0  0  0  0  0  0  0  0  0  0
   -1.1998    0.4934   -1.9881 C   0  0  0  0  0  0  0  0  0  0  0  0
   -0.6105    0.5698   -3.2318 N   0  0  0  0  0  0  0  0  0  0  0  0
    0.3126    0.9247   -3.4320 H   0  0  0  0  0  0  0  0  0  0  0  0
   -1.4835    0.0933   -4.1352 C   0  0  0  0  0  0  0  0  0  0  0  0
   -1.3083    0.0303   -5.2023 H   0  0  0  0  0  0  0  0  0  0  0  0
   -2.6119   -0.3012   -3.5275 N   0  0  0  0  0  0  0  0  0  0  0  0
   -2.4453   -0.0481   -2.1634 C   0  0  0  0  0  0  0  0  0  0  0  0
   -3.1575   -0.2732   -1.3801 H   0  0  0  0  0  0  0  0  0  0  0  0
   -0.1073    0.0565    1.7296 C   0  0  0  0  0  0  0  0  0  0  0  0
    1.0285   -0.1699    2.1459 O   0  0  0  0  0  0  0  0  0  0  0  0
   -1.0395    0.6588    2.4785 N   0  0  0  0  0  0  0  0  0  0  0  0
   -1.9636    0.7597    2.0849 H   0  0  0  0  0  0  0  0  0  0  0  0
   -0.8222    1.1334    3.8425 C   0  0  0  0  0  0  0  0  0  0  0  0
   -0.0212    1.8761    3.8521 H   0  0  0  0  0  0  0  0  0  0  0  0
   -1.7349    1.5853    4.2320 H   0  0  0  0  0  0  0  0  0  0  0  0
   -0.5312    0.2997    4.4834 H   0  0  0  0  0  0  0  0  0  0  0  0
  5  6  2  0  0  0  0
  5  7  1  0  0  0  0
  2  3  1  0  0  0  0
  2  4  1  0  0  0  0
  2  5  1  0  0  0  0
  1  2  1  0  0  0  0
 22 23  2  0  0  0  0
 22 24  1  0  0  0  0
 20 21  1  0  0  0  0
 19 20  1  0  0  0  0
 17 18  1  0  0  0  0
 17 19  2  0  0  0  0
 15 16  1  0  0  0  0
 15 17  1  0  0  0  0
 14 15  1  0  0  0  0
 14 20  2  0  0  0  0
 11 12  1  0  0  0  0
 11 13  1  0  0  0  0
 11 14  1  0  0  0  0
  9 10  1  0  0  0  0
  9 11  1  0  0  0  0
  9 22  1  0  0  0  0
  7  8  1  0  0  0  0
  7  9  1  0  0  0  0
 26 27  1  0  0  0  0
 26 28  1  0  0  0  0
 26 29  1  0  0  0  0
 24 25  1  0  0  0  0
 24 26  1  0  0  0  0
M  END
$$$$
default_name
  -OEChem-02102213163D

 29 29  0     1  0  0  0  0  0999 V2000
   -3.6042   -3.5728    1.4576 H   0  0  0  0  0  0  0  0  0  0  0  0
   -3.5202   -2.6488    0.8866 C   0  0  0  0  0  0  0  0  0  0  0  0
   -4.2052   -1.9048    1.2896 H   0  0  0  0  0  0  0  0  0  0  0  0
   -3.7552   -2.8428   -0.1584 H   0  0  0  0  0  0  0  0  0  0  0  0
   -2.1052   -2.1358    0.9946 C   0  0  0  0  0  0  0  0  0  0  0  0
   -1.2852   -2.7288    1.6826 O   0  0  0  0  0  0  0  0  0  0  0  0
   -1.8202   -1.0288    0.3146 N   0  0  0  0  0  0  0  0  0  0  0  0
   -2.5542   -0.5788   -0.2104 H   0  0  0  0  0  0  0  0  0  0  0  0
   -0.5102   -0.3728    0.3086 C   0  0  1  0  0  0  0  0  0  0  0  0
    0.2354   -1.0844   -0.0490 H   0  0  0  0  0  0  0  0  0  0  0  0
   -0.5452    0.8158   -0.6698 C   0  0  0  0  0  0  0  0  0  0  0  0
   -1.0854    1.6437   -0.2072 H   0  0  0  0  0  0  0  0  0  0  0  0
    0.4766    1.1480   -0.8627 H   0  0  0  0  0  0  0  0  0  0  0  0
   -1.1998    0.4934   -1.9881 C   0  0  0  0  0  0  0  0  0  0  0  0
   -0.5565    0.2880   -3.1897 N   0  0  0  0  0  0  0  0  0  0  0  0
    0.4311    0.4014   -3.3628 H   0  0  0  0  0  0  0  0  0  0  0  0
   -1.4764   -0.0855   -4.0950 C   0  0  0  0  0  0  0  0  0  0  0  0
   -1.2753   -0.3124   -5.1349 H   0  0  0  0  0  0  0  0  0  0  0  0
   -2.6900   -0.1430   -3.5274 N   0  0  0  0  0  0  0  0  0  0  0  0
   -2.5278    0.2268   -2.1897 C   0  0  0  0  0  0  0  0  0  0  0  0
   -3.3052    0.2611   -1.4374 H   0  0  0  0  0  0  0  0  0  0  0  0
   -0.1073    0.0565    1.7296 C   0  0  0  0  0  0  0  0  0  0  0  0
    1.0285   -0.1699    2.1459 O   0  0  0  0  0  0  0  0  0  0  0  0
   -1.0395    0.6588    2.4785 N   0  0  0  0  0  0  0  0  0  0  0  0
   -1.9636    0.7597    2.0849 H   0  0  0  0  0  0  0  0  0  0  0  0
   -0.8222    1.1334    3.8425 C   0  0  0  0  0  0  0  0  0  0  0  0
   -0.0212    1.8761    3.8521 H   0  0  0  0  0  0  0  0  0  0  0  0
   -1.7349    1.5853    4.2320 H   0  0  0  0  0  0  0  0  0  0  0  0
   -0.5312    0.2997    4.4834 H   0  0  0  0  0  0  0  0  0  0  0  0
  5  6  2  0  0  0  0
  5  7  1  0  0  0  0
  2  3  1  0  0  0  0
  2  4  1  0  0  0  0
  2  5  1  0  0  0  0
  1  2  1  0  0  0  0
 22 23  2  0  0  0  0
 22 24  1  0  0  0  0
 20 21  1  0  0  0  0
 19 20  1  0  0  0  0
 17 18  1  0  0  0  0
 17 19  2  0  0  0  0
 15 16  1  0  0  0  0
 15 17  1  0  0  0  0
 14 15  1  0  0  0  0
 14 20  2  0  0  0  0
 11 12  1  0  0  0  0
 11 13  1  0  0  0  0
 11 14  1  0  0  0  0
  9 10  1  0  0  0  0
  9 11  1  0  0  0  0
  9 22  1  0  0  0  0
  7  8  1  0  0  0  0
  7  9  1  0  0  0  0
 26 27  1  0  0  0  0
 26 28  1  0  0  0  0
 26 29  1  0  0  0  0
 24 25  1  0  0  0  0
 24 26  1  0  0  0  0
M  END
$$$$
default_name
  -OEChem-02102213163D

 29 29  0     1  0  0  0  0  0999 V2000
   -3.6042   -3.5728    1.4576 H   0  0  0  0  0  0  0  0  0  0  0  0
   -3.5202   -2.6488    0.8866 C   0  0  0  0  0  0  0  0  0  0  0  0
   -4.2052   -1.9048    1.2896 H   0  0  0  0  0  0  0  0  0  0  0  0
   -3.7552   -2.8428   -0.1584 H   0  0  0  0  0  0  0  0  0  0  0  0
   -2.1052   -2.1358    0.9946 C   0  0  0  0  0  0  0  0  0  0  0  0
   -1.2852   -2.7288    1.6826 O   0  0  0  0  0  0  0  0  0  0  0  0
   -1.8202   -1.0288    0.3146 N   0  0  0  0  0  0  0  0  0  0  0  0
   -2.5542   -0.5788   -0.2104 H   0  0  0  0  0  0  0  0  0  0  0  0
   -0.5102   -0.3728    0.3086 C   0  0  1  0  0  0  0  0  0  0  0  0
    0.2354   -1.0844   -0.0490 H   0  0  0  0  0  0  0  0  0  0  0  0
   -0.5452    0.8158   -0.6698 C   0  0  0  0  0  0  0  0  0  0  0  0
   -1.0854    1.6437   -0.2072 H   0  0  0  0  0  0  0  0  0  0  0  0
    0.4766    1.1480   -0.8627 H   0  0  0  0  0  0  0  0  0  0  0  0
   -1.1998    0.4934   -1.9881 C   0  0  0  0  0  0  0  0  0  0  0  0
   -0.5705    0.0082   -3.1143 N   0  0  0  0  0  0  0  0  0  0  0  0
    0.4232   -0.1231   -3.2306 H   0  0  0  0  0  0  0  0  0  0  0  0
   -1.5123   -0.2553   -4.0357 C   0  0  0  0  0  0  0  0  0  0  0  0
   -1.3248   -0.6432   -5.0294 H   0  0  0  0  0  0  0  0  0  0  0  0
   -2.7297    0.0275   -3.5494 N   0  0  0  0  0  0  0  0  0  0  0  0
   -2.5438    0.5080   -2.2505 C   0  0  0  0  0  0  0  0  0  0  0  0
   -3.3237    0.8041   -1.5610 H   0  0  0  0  0  0  0  0  0  0  0  0
   -0.1073    0.0565    1.7296 C   0  0  0  0  0  0  0  0  0  0  0  0
    1.0285   -0.1699    2.1459 O   0  0  0  0  0  0  0  0  0  0  0  0
   -1.0395    0.6588    2.4785 N   0  0  0  0  0  0  0  0  0  0  0  0
   -1.9636    0.7597    2.0849 H   0  0  0  0  0  0  0  0  0  0  0  0
   -0.8222    1.1334    3.8425 C   0  0  0  0  0  0  0  0  0  0  0  0
   -0.0212    1.8761    3.8521 H   0  0  0  0  0  0  0  0  0  0  0  0
   -1.7349    1.5853    4.2320 H   0  0  0  0  0  0  0  0  0  0  0  0
   -0.5312    0.2997    4.4834 H   0  0  0  0  0  0  0  0  0  0  0  0
  5  6  2  0  0  0  0
  5  7  1  0  0  0  0
  2  3  1  0  0  0  0
  2  4  1  0  0  0  0
  2  5  1  0  0  0  0
  1  2  1  0  0  0  0
 22 23  2  0  0  0  0
 22 24  1  0  0  0  0
 20 21  1  0  0  0  0
 19 20  1  0  0  0  0
 17 18  1  0  0  0  0
 17 19  2  0  0  0  0
 15 16  1  0  0  0  0
 15 17  1  0  0  0  0
 14 15  1  0  0  0  0
 14 20  2  0  0  0  0
 11 12  1  0  0  0  0
 11 13  1  0  0  0  0
 11 14  1  0  0  0  0
  9 10  1  0  0  0  0
  9 11  1  0  0  0  0
  9 22  1  0  0  0  0
  7  8  1  0  0  0  0
  7  9  1  0  0  0  0
 26 27  1  0  0  0  0
 26 28  1  0  0  0  0
 26 29  1  0  0  0  0
 24 25  1  0  0  0  0
 24 26  1  0  0  0  0
M  END
$$$$
default_name
  -OEChem-02102213163D

 29 29  0     1  0  0  0  0  0999 V2000
   -3.6042   -3.5728    1.4576 H   0  0  0  0  0  0  0  0  0  0  0  0
   -3.5202   -2.6488    0.8866 C   0  0  0  0  0  0  0  0  0  0  0  0
   -4.2052   -1.9048    1.2896 H   0  0  0  0  0  0  0  0  0  0  0  0
   -3.7552   -2.8428   -0.1584 H   0  0  0  0  0  0  0  0  0  0  0  0
   -2.1052   -2.1358    0.9946 C   0  0  0  0  0  0  0  0  0  0  0  0
   -1.2852   -2.7288    1.6826 O   0  0  0  0  0  0  0  0  0  0  0  0
   -1.8202   -1.0288    0.3146 N   0  0  0  0  0  0  0  0  0  0  0  0
   -2.5542   -0.5788   -0.2104 H   0  0  0  0  0  0  0  0  0  0  0  0
   -0.5102   -0.3728    0.3086 C   0  0  1  0  0  0  0  0  0  0  0  0
    0.2354   -1.0844   -0.0490 H   0  0  0  0  0  0  0  0  0  0  0  0
   -0.5452    0.8158   -0.6698 C   0  0  0  0  0  0  0  0  0  0  0  0
   -1.0854    1.6437   -0.2072 H   0  0  0  0  0  0  0  0  0  0  0  0
    0.4766    1.1480   -0.8627 H   0  0  0  0  0  0  0  0  0  0  0  0
   -1.1998    0.4934   -1.9881 C   0  0  0  0  0  0  0  0  0  0  0  0
   -0.6515   -0.2504   -3.0109 N   0  0  0  0  0  0  0  0  0  0  0  0
    0.2895   -0.6131   -3.0444 H   0  0  0  0  0  0  0  0  0  0  0  0
   -1.5887   -0.4045   -3.9613 C   0  0  0  0  0  0  0  0  0  0  0  0
   -1.4533   -0.9398   -4.8931 H   0  0  0  0  0  0  0  0  0  0  0  0
   -2.7281    0.1987   -3.5920 N   0  0  0  0  0  0  0  0  0  0  0  0
   -2.4921    0.7764   -2.3418 C   0  0  0  0  0  0  0  0  0  0  0  0
   -3.2118    1.3190   -1.7425 H   0  0  0  0  0  0  0  0  0  0  0  0
   -0.1073    0.0565    1.7296 C   0  0  0  0  0  0  0  0  0  0  0  0
    1.0285   -0.1699    2.1459 O   0  0  0  0  0  0  0  0  0  0  0  0
   -1.0395    0.6588    2.4785 N   0  0  0  0  0  0  0  0  0  0  0  0
   -1.9636    0.7597    2.0849 H   0  0  0  0  0  0  0  0  0  0  0  0
   -0.8222    1.1334    3.8425 C   0  0  0  0  0  0  0  0  0  0  0  0
   -0.0212    1.8761    3.8521 H   0  0  0  0  0  0  0  0  0  0  0  0
   -1.7349    1.5853    4.2320 H   0  0  0  0  0  0  0  0  0  0  0  0
   -0.5312    0.2997    4.4834 H   0  0  0  0  0  0  0  0  0  0  0  0
  5  6  2  0  0  0  0
  5  7  1  0  0  0  0
  2  3  1  0  0  0  0
  2  4  1  0  0  0  0
  2  5  1  0  0  0  0
  1  2  1  0  0  0  0
 22 23  2  0  0  0  0
 22 24  1  0  0  0  0
 20 21  1  0  0  0  0
 19 20  1  0  0  0  0
 17 18  1  0  0  0  0
 17 19  2  0  0  0  0
 15 16  1  0  0  0  0
 15 17  1  0  0  0  0
 14 15  1  0  0  0  0
 14 20  2  0  0  0  0
 11 12  1  0  0  0  0
 11 13  1  0  0  0  0
 11 14  1  0  0  0  0
  9 10  1  0  0  0  0
  9 11  1  0  0  0  0
  9 22  1  0  0  0  0
  7  8  1  0  0  0  0
  7  9  1  0  0  0  0
 26 27  1  0  0  0  0
 26 28  1  0  0  0  0
 26 29  1  0  0  0  0
 24 25  1  0  0  0  0
 24 26  1  0  0  0  0
M  END
$$$$
default_name
  -OEChem-02102213163D

 29 29  0     1  0  0  0  0  0999 V2000
   -3.6042   -3.5728    1.4576 H   0  0  0  0  0  0  0  0  0  0  0  0
   -3.5202   -2.6488    0.8866 C   0  0  0  0  0  0  0  0  0  0  0  0
   -4.2052   -1.9048    1.2896 H   0  0  0  0  0  0  0  0  0  0  0  0
   -3.7552   -2.8428   -0.1584 H   0  0  0  0  0  0  0  0  0  0  0  0
   -2.1052   -2.1358    0.9946 C   0  0  0  0  0  0  0  0  0  0  0  0
   -1.2852   -2.7288    1.6826 O   0  0  0  0  0  0  0  0  0  0  0  0
   -1.8202   -1.0288    0.3146 N   0  0  0  0  0  0  0  0  0  0  0  0
   -2.5542   -0.5788   -0.2104 H   0  0  0  0  0  0  0  0  0  0  0  0
   -0.5102   -0.3728    0.3086 C   0  0  1  0  0  0  0  0  0  0  0  0
    0.2354   -1.0844   -0.0490 H   0  0  0  0  0  0  0  0  0  0  0  0
   -0.5452    0.8158   -0.6698 C   0  0  0  0  0  0  0  0  0  0  0  0
   -1.0854    1.6437   -0.2072 H   0  0  0  0  0  0  0  0  0  0  0  0
    0.4766    1.1480   -0.8627 H   0  0  0  0  0  0  0  0  0  0  0  0
   -1.1998    0.4934   -1.9881 C   0  0  0  0  0  0  0  0  0  0  0  0
   -0.7940   -0.4701   -2.8863 N   0  0  0  0  0  0  0  0  0  0  0  0
    0.0391   -1.0352   -2.8168 H   0  0  0  0  0  0  0  0  0  0  0  0
   -1.7004   -0.5229   -3.8768 C   0  0  0  0  0  0  0  0  0  0  0  0
   -1.6521   -1.1818   -4.7352 H   0  0  0  0  0  0  0  0  0  0  0  0
   -2.6855    0.3589   -3.6524 N   0  0  0  0  0  0  0  0  0  0  0  0
   -2.3764    1.0137   -2.4573 C   0  0  0  0  0  0  0  0  0  0  0  0
   -2.9770    1.7705   -1.9695 H   0  0  0  0  0  0  0  0  0  0  0  0
   -0.1073    0.0565    1.7296 C   0  0  0  0  0  0  0  0  0  0  0  0
    1.0285   -0.1699    2.1459 O   0  0  0  0  0  0  0  0  0  0  0  0
   -1.0395    0.6588    2.4785 N   0  0  0  0  0  0  0  0  0  0  0  0
   -1.9636    0.7597    2.0849 H   0  0  0  0  0  0  0  0  0  0  0  0
   -0.8222    1.1334    3.8425 C   0  0  0  0  0  0  0  0  0  0  0  0
   -0.0212    1.8761    3.8521 H   0  0  0  0  0  0  0  0  0  0  0  0
   -1.7349    1.5853    4.2320 H   0  0  0  0  0  0  0  0  0  0  0  0
   -0.5312    0.2997    4.4834 H   0  0  0  0  0  0  0  0  0  0  0  0
  5  6  2  0  0  0  0
  5  7  1  0  0  0  0
  2  3  1  0  0  0  0
  2  4  1  0  0  0  0
  2  5  1  0  0  0  0
  1  2  1  0  0  0  0
 22 23  2  0  0  0  0
 22 24  1  0  0  0  0
 20 21  1  0  0  0  0
 19 20  1  0  0  0  0
 17 18  1  0  0  0  0
 17 19  2  0  0  0  0
 15 16  1  0  0  0  0
 15 17  1  0  0  0  0
 14 15  1  0  0  0  0
 14 20  2  0  0  0  0
 11 12  1  0  0  0  0
 11 13  1  0  0  0  0
 11 14  1  0  0  0  0
  9 10  1  0  0  0  0
  9 11  1  0  0  0  0
  9 22  1  0  0  0  0
  7  8  1  0  0  0  0
  7  9  1  0  0  0  0
 26 27  1  0  0  0  0
 26 28  1  0  0  0  0
 26 29  1  0  0  0  0
 24 25  1  0  0  0  0
 24 26  1  0  0  0  0
M  END
$$$$
default_name
  -OEChem-02102213163D

 29 29  0     1  0  0  0  0  0999 V2000
   -3.6042   -3.5728    1.4576 H   0  0  0  0  0  0  0  0  0  0  0  0
   -3.5202   -2.6488    0.8866 C   0  0  0  0  0  0  0  0  0  0  0  0
   -4.2052   -1.9048    1.2896 H   0  0  0  0  0  0  0  0  0  0  0  0
   -3.7552   -2.8428   -0.1584 H   0  0  0  0  0  0  0  0  0  0  0  0
   -2.1052   -2.1358    0.9946 C   0  0  0  0  0  0  0  0  0  0  0  0
   -1.2852   -2.7288    1.6826 O   0  0  0  0  0  0  0  0  0  0  0  0
   -1.8202   -1.0288    0.3146 N   0  0  0  0  0  0  0  0  0  0  0  0
   -2.5542   -0.5788   -0.2104 H   0  0  0  0  0  0  0  0  0  0  0  0
   -0.5102   -0.3728    0.3086 C   0  0  1  0  0  0  0  0  0  0  0  0
    0.2354   -1.0844   -0.0490 H   0  0  0  0  0  0  0  0  0  0  0  0
   -0.5452    0.8158   -0.6698 C   0  0  0  0  0  0  0  0  0  0  0  0
   -1.0854    1.6437   -0.2072 H   0  0  0  0  0  0  0  0  0  0  0  0
    0.4766    1.1480   -0.8627 H   0  0  0  0  0  0  0  0  0  0  0  0
   -1.1998    0.4934   -1.9881 C   0  0  0  0  0  0  0  0  0  0  0  0
   -0.9884   -0.6361   -2.7492 N   0  0  0  0  0  0  0  0  0  0  0  0
   -0.3110   -1.3606   -2.5634 H   0  0  0  0  0  0  0  0  0  0  0  0
   -1.8398   -0.6025   -3.7881 C   0  0  0  0  0  0  0  0  0  0  0  0
   -1.9077   -1.3528   -4.5664 H   0  0  0  0  0  0  0  0  0  0  0  0
   -2.6047    0.4972   -3.7263 N   0  0  0  0  0  0  0  0  0  0  0  0
   -2.2045    1.2037   -2.5891 C   0  0  0  0  0  0  0  0  0  0  0  0
   -2.6354    2.1280   -2.2266 H   0  0  0  0  0  0  0  0  0  0  0  0
   -0.1073    0.0565    1.7296 C   0  0  0  0  0  0  0  0  0  0  0  0
    1.0285   -0.1699    2.1459 O   0  0  0  0  0  0  0  0  0  0  0  0
   -1.0395    0.6588    2.4785 N   0  0  0  0  0  0  0  0  0  0  0  0
   -1.9636    0.7597    2.0849 H   0  0  0  0  0  0  0  0  0  0  0  0
   -0.8222    1.1334    3.8425 C   0  0  0  0  0  0  0  0  0  0  0  0
   -0.0212    1.8761    3.8521 H   0  0  0  0  0  0  0  0  0  0  0  0
   -1.7349    1.5853    4.2320 H   0  0  0  0  0  0  0  0  0  0  0  0
   -0.5312    0.2997    4.4834 H   0  0  0  0  0  0  0  0  0  0  0  0
  5  6  2  0  0  0  0
  5  7  1  0  0  0  0
  2  3  1  0  0  0  0
  2  4  1  0  0  0  0
  2  5  1  0  0  0  0
  1  2  1  0  0  0  0
 22 23  2  0  0  0  0
 22 24  1  0  0  0  0
 20 21  1  0  0  0  0
 19 20  1  0  0  0  0
 17 18  1  0  0  0  0
 17 19  2  0  0  0  0
 15 16  1  0  0  0  0
 15 17  1  0  0  0  0
 14 15  1  0  0  0  0
 14 20  2  0  0  0  0
 11 12  1  0  0  0  0
 11 13  1  0  0  0  0
 11 14  1  0  0  0  0
  9 10  1  0  0  0  0
  9 11  1  0  0  0  0
  9 22  1  0  0  0  0
  7  8  1  0  0  0  0
  7  9  1  0  0  0  0
 26 27  1  0  0  0  0
 26 28  1  0  0  0  0
 26 29  1  0  0  0  0
 24 25  1  0  0  0  0
 24 26  1  0  0  0  0
M  END
$$$$
default_name
  -OEChem-02102213163D

 29 29  0     1  0  0  0  0  0999 V2000
   -3.6042   -3.5728    1.4576 H   0  0  0  0  0  0  0  0  0  0  0  0
   -3.5202   -2.6488    0.8866 C   0  0  0  0  0  0  0  0  0  0  0  0
   -4.2052   -1.9048    1.2896 H   0  0  0  0  0  0  0  0  0  0  0  0
   -3.7552   -2.8428   -0.1584 H   0  0  0  0  0  0  0  0  0  0  0  0
   -2.1052   -2.1358    0.9946 C   0  0  0  0  0  0  0  0  0  0  0  0
   -1.2852   -2.7288    1.6826 O   0  0  0  0  0  0  0  0  0  0  0  0
   -1.8202   -1.0288    0.3146 N   0  0  0  0  0  0  0  0  0  0  0  0
   -2.5542   -0.5788   -0.2104 H   0  0  0  0  0  0  0  0  0  0  0  0
   -0.5102   -0.3728    0.3086 C   0  0  1  0  0  0  0  0  0  0  0  0
    0.2354   -1.0844   -0.0490 H   0  0  0  0  0  0  0  0  0  0  0  0
   -0.5452    0.8158   -0.6698 C   0  0  0  0  0  0  0  0  0  0  0  0
   -1.0854    1.6437   -0.2072 H   0  0  0  0  0  0  0  0  0  0  0  0
    0.4766    1.1480   -0.8627 H   0  0  0  0  0  0  0  0  0  0  0  0
   -1.1998    0.4934   -1.9881 C   0  0  0  0  0  0  0  0  0  0  0  0
   -1.2213   -0.7371   -2.6089 N   0  0  0  0  0  0  0  0  0  0  0  0
   -0.7369   -1.5671   -2.3015 H   0  0  0  0  0  0  0  0  0  0  0  0
   -1.9974   -0.6379   -3.7012 C   0  0  0  0  0  0  0  0  0  0  0  0
   -2.2026   -1.4411   -4.3984 H   0  0  0  0  0  0  0  0  0  0  0  0
   -2.4913    0.6042   -3.8088 N   0  0  0  0  0  0  0  0  0  0  0  0
   -1.9882    1.3335   -2.7283 C   0  0  0  0  0  0  0  0  0  0  0  0
   -2.2103    2.3671   -2.4961 H   0  0  0  0  0  0  0  0  0  0  0  0
   -0.1073    0.0565    1.7296 C   0  0  0  0  0  0  0  0  0  0  0  0
    1.0285   -0.1699    2.1459 O   0  0  0  0  0  0  0  0  0  0  0  0
   -1.0395    0.6588    2.4785 N   0  0  0  0  0  0  0  0  0  0  0  0
   -1.9636    0.7597    2.0849 H   0  0  0  0  0  0  0  0  0  0  0  0
   -0.8222    1.1334    3.8425 C   0  0  0  0  0  0  0  0  0  0  0  0
   -0.0212    1.8761    3.8521 H   0  0  0  0  0  0  0  0  0  0  0  0
   -1.7349    1.5853    4.2320 H   0  0  0  0  0  0  0  0  0  0  0  0
   -0.5312    0.2997    4.4834 H   0  0  0  0  0  0  0  0  0  0  0  0
  5  6  2  0  0  0  0
  5  7  1  0  0  0  0
  2  3  1  0  0  0  0
  2  4  1  0  0  0  0
  2  5  1  0  0  0  0
  1  2  1  0  0  0  0
 22 23  2  0  0  0  0
 22 24  1  0  0  0  0
 20 21  1  0  0  0  0
 19 20  1  0  0  0  0
 17 18  1  0  0  0  0
 17 19  2  0  0  0  0
 15 16  1  0  0  0  0
 15 17  1  0  0  0  0
 14 15  1  0  0  0  0
 14 20  2  0  0  0  0
 11 12  1  0  0  0  0
 11 13  1  0  0  0  0
 11 14  1  0  0  0  0
  9 10  1  0  0  0  0
  9 11  1  0  0  0  0
  9 22  1  0  0  0  0
  7  8  1  0  0  0  0
  7  9  1  0  0  0  0
 26 27  1  0  0  0  0
 26 28  1  0  0  0  0
 26 29  1  0  0  0  0
 24 25  1  0  0  0  0
 24 26  1  0  0  0  0
M  END
$$$$
default_name
  -OEChem-02102213163D

 29 29  0     1  0  0  0  0  0999 V2000
   -3.6042   -3.5728    1.4576 H   0  0  0  0  0  0  0  0  0  0  0  0
   -3.5202   -2.6488    0.8866 C   0  0  0  0  0  0  0  0  0  0  0  0
   -4.2052   -1.9048    1.2896 H   0  0  0  0  0  0  0  0  0  0  0  0
   -3.7552   -2.8428   -0.1584 H   0  0  0  0  0  0  0  0  0  0  0  0
   -2.1052   -2.1358    0.9946 C   0  0  0  0  0  0  0  0  0  0  0  0
   -1.2852   -2.7288    1.6826 O   0  0  0  0  0  0  0  0  0  0  0  0
   -1.8202   -1.0288    0.3146 N   0  0  0  0  0  0  0  0  0  0  0  0
   -2.5542   -0.5788   -0.2104 H   0  0  0  0  0  0  0  0  0  0  0  0
   -0.5102   -0.3728    0.3086 C   0  0  1  0  0  0  0  0  0  0  0  0
    0.2354   -1.0844   -0.0490 H   0  0  0  0  0  0  0  0  0  0  0  0
   -0.5452    0.8158   -0.6698 C   0  0  0  0  0  0  0  0  0  0  0  0
   -1.0854    1.6437   -0.2072 H   0  0  0  0  0  0  0  0  0  0  0  0
    0.4766    1.1480   -0.8627 H   0  0  0  0  0  0  0  0  0  0  0  0
   -1.1998    0.4934   -1.9881 C   0  0  0  0  0  0  0  0  0  0  0  0
   -1.4769   -0.7660   -2.4749 N   0  0  0  0  0  0  0  0  0  0  0  0
   -1.2095   -1.6407   -2.0488 H   0  0  0  0  0  0  0  0  0  0  0  0
   -2.1625   -0.6266   -3.6220 C   0  0  0  0  0  0  0  0  0  0  0  0
   -2.5168   -1.4407   -4.2425 H   0  0  0  0  0  0  0  0  0  0  0  0
   -2.3529    0.6726   -3.8943 N   0  0  0  0  0  0  0  0  0  0  0  0
   -1.7421    1.3943   -2.8654 C   0  0  0  0  0  0  0  0  0  0  0  0
   -1.7306    2.4714   -2.7599 H   0  0  0  0  0  0  0  0  0  0  0  0
   -0.1073    0.0565    1.7296 C   0  0  0  0  0  0  0  0  0  0  0  0
    1.0285   -0.1699    2.1459 O   0  0  0  0  0  0  0  0  0  0  0  0
   -1.0395    0.6588    2.4785 N   0  0  0  0  0  0  0  0  0  0  0  0
   -1.9636    0.7597    2.0849 H   0  0  0  0  0  0  0  0  0  0  0  0
   -0.8222    1.1334    3.8425 C   0  0  0  0  0  0  0  0  0  0  0  0
   -0.0212    1.8761    3.8521 H   0  0  0  0  0  0  0  0  0  0  0  0
   -1.7349    1.5853    4.2320 H   0  0  0  0  0  0  0  0  0  0  0  0
   -0.5312    0.2997    4.4834 H   0  0  0  0  0  0  0  0  0  0  0  0
  5  6  2  0  0  0  0
  5  7  1  0  0  0  0
  2  3  1  0  0  0  0
  2  4  1  0  0  0  0
  2  5  1  0  0  0  0
  1  2  1  0  0  0  0
 22 23  2  0  0  0  0
 22 24  1  0  0  0  0
 20 21  1  0  0  0  0
 19 20  1  0  0  0  0
 17 18  1  0  0  0  0
 17 19  2  0  0  0  0
 15 16  1  0  0  0  0
 15 17  1  0  0  0  0
 14 15  1  0  0  0  0
 14 20  2  0  0  0  0
 11 12  1  0  0  0  0
 11 13  1  0  0  0  0
 11 14  1  0  0  0  0
  9 10  1  0  0  0  0
  9 11  1  0  0  0  0
  9 22  1  0  0  0  0
  7  8  1  0  0  0  0
  7  9  1  0  0  0  0
 26 27  1  0  0  0  0
 26 28  1  0  0  0  0
 26 29  1  0  0  0  0
 24 25  1  0  0  0  0
 24 26  1  0  0  0  0
M  END
$$$$
default_name
  -OEChem-02102213163D

 29 29  0     1  0  0  0  0  0999 V2000
   -3.6042   -3.5728    1.4576 H   0  0  0  0  0  0  0  0  0  0  0  0
   -3.5202   -2.6488    0.8866 C   0  0  0  0  0  0  0  0  0  0  0  0
   -4.2052   -1.9048    1.2896 H   0  0  0  0  0  0  0  0  0  0  0  0
   -3.7552   -2.8428   -0.1584 H   0  0  0  0  0  0  0  0  0  0  0  0
   -2.1052   -2.1358    0.9946 C   0  0  0  0  0  0  0  0  0  0  0  0
   -1.2852   -2.7288    1.6826 O   0  0  0  0  0  0  0  0  0  0  0  0
   -1.8202   -1.0288    0.3146 N   0  0  0  0  0  0  0  0  0  0  0  0
   -2.5542   -0.5788   -0.2104 H   0  0  0  0  0  0  0  0  0  0  0  0
   -0.5102   -0.3728    0.3086 C   0  0  1  0  0  0  0  0  0  0  0  0
    0.2354   -1.0844   -0.0490 H   0  0  0  0  0  0  0  0  0  0  0  0
   -0.5452    0.8158   -0.6698 C   0  0  0  0  0  0  0  0  0  0  0  0
   -1.0854    1.6437   -0.2072 H   0  0  0  0  0  0  0  0  0  0  0  0
    0.4766    1.1480   -0.8627 H   0  0  0  0  0  0  0  0  0  0  0  0
   -1.1998    0.4934   -1.9881 C   0  0  0  0  0  0  0  0  0  0  0  0
   -1.7378   -0.7211   -2.3563 N   0  0  0  0  0  0  0  0  0  0  0  0
   -1.6967   -1.5764   -1.8226 H   0  0  0  0  0  0  0  0  0  0  0  0
   -2.3237   -0.5694   -3.5560 C   0  0  0  0  0  0  0  0  0  0  0  0
   -2.8289   -1.3516   -4.1093 H   0  0  0  0  0  0  0  0  0  0  0  0
   -2.1990    0.6977   -3.9768 N   0  0  0  0  0  0  0  0  0  0  0  0
   -1.4830    1.3818   -2.9910 C   0  0  0  0  0  0  0  0  0  0  0  0
   -1.2290    2.4339   -2.9998 H   0  0  0  0  0  0  0  0  0  0  0  0
   -0.1073    0.0565    1.7296 C   0  0  0  0  0  0  0  0  0  0  0  0
    1.0285   -0.1699    2.1459 O   0  0  0  0  0  0  0  0  0  0  0  0
   -1.0395    0.6588    2.4785 N   0  0  0  0  0  0  0  0  0  0  0  0
   -1.9636    0.7597    2.0849 H   0  0  0  0  0  0  0  0  0  0  0  0
   -0.8222    1.1334    3.8425 C   0  0  0  0  0  0  0  0  0  0  0  0
   -0.0212    1.8761    3.8521 H   0  0  0  0  0  0  0  0  0  0  0  0
   -1.7349    1.5853    4.2320 H   0  0  0  0  0  0  0  0  0  0  0  0
   -0.5312    0.2997    4.4834 H   0  0  0  0  0  0  0  0  0  0  0  0
  5  6  2  0  0  0  0
  5  7  1  0  0  0  0
  2  3  1  0  0  0  0
  2  4  1  0  0  0  0
  2  5  1  0  0  0  0
  1  2  1  0  0  0  0
 22 23  2  0  0  0  0
 22 24  1  0  0  0  0
 20 21  1  0  0  0  0
 19 20  1  0  0  0  0
 17 18  1  0  0  0  0
 17 19  2  0  0  0  0
 15 16  1  0  0  0  0
 15 17  1  0  0  0  0
 14 15  1  0  0  0  0
 14 20  2  0  0  0  0
 11 12  1  0  0  0  0
 11 13  1  0  0  0  0
 11 14  1  0  0  0  0
  9 10  1  0  0  0  0
  9 11  1  0  0  0  0
  9 22  1  0  0  0  0
  7  8  1  0  0  0  0
  7  9  1  0  0  0  0
 26 27  1  0  0  0  0
 26 28  1  0  0  0  0
 26 29  1  0  0  0  0
 24 25  1  0  0  0  0
 24 26  1  0  0  0  0
M  END
$$$$
default_name
  -OEChem-02102213163D

 29 29  0     1  0  0  0  0  0999 V2000
   -3.6042   -3.5728    1.4576 H   0  0  0  0  0  0  0  0  0  0  0  0
   -3.5202   -2.6488    0.8866 C   0  0  0  0  0  0  0  0  0  0  0  0
   -4.2052   -1.9048    1.2896 H   0  0  0  0  0  0  0  0  0  0  0  0
   -3.7552   -2.8428   -0.1584 H   0  0  0  0  0  0  0  0  0  0  0  0
   -2.1052   -2.1358    0.9946 C   0  0  0  0  0  0  0  0  0  0  0  0
   -1.2852   -2.7288    1.6826 O   0  0  0  0  0  0  0  0  0  0  0  0
   -1.8202   -1.0288    0.3146 N   0  0  0  0  0  0  0  0  0  0  0  0
   -2.5542   -0.5788   -0.2104 H   0  0  0  0  0  0  0  0  0  0  0  0
   -0.5102   -0.3728    0.3086 C   0  0  1  0  0  0  0  0  0  0  0  0
    0.2354   -1.0844   -0.0490 H   0  0  0  0  0  0  0  0  0  0  0  0
   -0.5452    0.8158   -0.6698 C   0  0  0  0  0  0  0  0  0  0  0  0
   -1.0854    1.6437   -0.2072 H   0  0  0  0  0  0  0  0  0  0  0  0
    0.4766    1.1480   -0.8627 H   0  0  0  0  0  0  0  0  0  0  0  0
   -1.1998    0.4934   -1.9881 C   0  0  0  0  0  0  0  0  0  0  0  0
   -1.9862   -0.6052   -2.2613 N   0  0  0  0  0  0  0  0  0  0  0  0
   -2.1652   -1.3785   -1.6383 H   0  0  0  0  0  0  0  0  0  0  0  0
   -2.4701   -0.4702   -3.5075 C   0  0  0  0  0  0  0  0  0  0  0  0
   -3.1175   -1.1799   -4.0079 H   0  0  0  0  0  0  0  0  0  0  0  0
   -2.0401    0.6779   -4.0509 N   0  0  0  0  0  0  0  0  0  0  0  0
   -1.2287    1.2970   -3.0966 C   0  0  0  0  0  0  0  0  0  0  0  0
   -0.7398    2.2571   -3.1995 H   0  0  0  0  0  0  0  0  0  0  0  0
   -0.1073    0.0565    1.7296 C   0  0  0  0  0  0  0  0  0  0  0  0
    1.0285   -0.1699    2.1459 O   0  0  0  0  0  0  0  0  0  0  0  0
   -1.0395    0.6588    2.4785 N   0  0  0  0  0  0  0  0  0  0  0  0
   -1.9636    0.7597    2.0849 H   0  0  0  0  0  0  0  0  0  0  0  0
   -0.8222    1.1334    3.8425 C   0  0  0  0  0  0  0  0  0  0  0  0
   -0.0212    1.8761    3.8521 H   0  0  0  0  0  0  0  0  0  0  0  0
   -1.7349    1.5853    4.2320 H   0  0  0  0  0  0  0  0  0  0  0  0
   -0.5312    0.2997    4.4834 H   0  0  0  0  0  0  0  0  0  0  0  0
  5  6  2  0  0  0  0
  5  7  1  0  0  0  0
  2  3  1  0  0  0  0
  2  4  1  0  0  0  0
  2  5  1  0  0  0  0
  1  2  1  0  0  0  0
 22 23  2  0  0  0  0
 22 24  1  0  0  0  0
 20 21  1  0  0  0  0
 19 20  1  0  0  0  0
 17 18  1  0  0  0  0
 17 19  2  0  0  0  0
 15 16  1  0  0  0  0
 15 17  1  0  0  0  0
 14 15  1  0  0  0  0
 14 20  2  0  0  0  0
 11 12  1  0  0  0  0
 11 13  1  0  0  0  0
 11 14  1  0  0  0  0
  9 10  1  0  0  0  0
  9 11  1  0  0  0  0
  9 22  1  0  0  0  0
  7  8  1  0  0  0  0
  7  9  1  0  0  0  0
 26 27  1  0  0  0  0
 26 28  1  0  0  0  0
 26 29  1  0  0  0  0
 24 25  1  0  0  0  0
 24 26  1  0  0  0  0
M  END
$$$$
default_name
  -OEChem-02102213163D

 29 29  0     1  0  0  0  0  0999 V2000
   -3.6042   -3.5728    1.4576 H   0  0  0  0  0  0  0  0  0  0  0  0
   -3.5202   -2.6488    0.8866 C   0  0  0  0  0  0  0  0  0  0  0  0
   -4.2052   -1.9048    1.2896 H   0  0  0  0  0  0  0  0  0  0  0  0
   -3.7552   -2.8428   -0.1584 H   0  0  0  0  0  0  0  0  0  0  0  0
   -2.1052   -2.1358    0.9946 C   0  0  0  0  0  0  0  0  0  0  0  0
   -1.2852   -2.7288    1.6826 O   0  0  0  0  0  0  0  0  0  0  0  0
   -1.8202   -1.0288    0.3146 N   0  0  0  0  0  0  0  0  0  0  0  0
   -2.5542   -0.5788   -0.2104 H   0  0  0  0  0  0  0  0  0  0  0  0
   -0.5102   -0.3728    0.3086 C   0  0  1  0  0  0  0  0  0  0  0  0
    0.2354   -1.0844   -0.0490 H   0  0  0  0  0  0  0  0  0  0  0  0
   -0.5452    0.8158   -0.6698 C   0  0  0  0  0  0  0  0  0  0  0  0
   -1.0854    1.6437   -0.2072 H   0  0  0  0  0  0  0  0  0  0  0  0
    0.4766    1.1480   -0.8627 H   0  0  0  0  0  0  0  0  0  0  0  0
   -1.1998    0.4934   -1.9881 C   0  0  0  0  0  0  0  0  0  0  0  0
   -2.2051   -0.4264   -2.1963 N   0  0  0  0  0  0  0  0  0  0  0  0
   -2.5831   -1.0605   -1.5085 H   0  0  0  0  0  0  0  0  0  0  0  0
   -2.5918   -0.3358   -3.4799 C   0  0  0  0  0  0  0  0  0  0  0  0
   -3.3630   -0.9374   -3.9453 H   0  0  0  0  0  0  0  0  0  0  0  0
   -1.8870    0.6144   -4.1114 N   0  0  0  0  0  0  0  0  0  0  0  0
   -0.9963    1.1456   -3.1749 C   0  0  0  0  0  0  0  0  0  0  0  0
   -0.2961    1.9531   -3.3455 H   0  0  0  0  0  0  0  0  0  0  0  0
   -0.1073    0.0565    1.7296 C   0  0  0  0  0  0  0  0  0  0  0  0
    1.0285   -0.1699    2.1459 O   0  0  0  0  0  0  0  0  0  0  0  0
   -1.0395    0.6588    2.4785 N   0  0  0  0  0  0  0  0  0  0  0  0
   -1.9636    0.7597    2.0849 H   0  0  0  0  0  0  0  0  0  0  0  0
   -0.8222    1.1334    3.8425 C   0  0  0  0  0  0  0  0  0  0  0  0
   -0.0212    1.8761    3.8521 H   0  0  0  0  0  0  0  0  0  0  0  0
   -1.7349    1.5853    4.2320 H   0  0  0  0  0  0  0  0  0  0  0  0
   -0.5312    0.2997    4.4834 H   0  0  0  0  0  0  0  0  0  0  0  0
  5  6  2  0  0  0  0
  5  7  1  0  0  0  0
  2  3  1  0  0  0  0
  2  4  1  0  0  0  0
  2  5  1  0  0  0  0
  1  2  1  0  0  0  0
 22 23  2  0  0  0  0
 22 24  1  0  0  0  0
 20 21  1  0  0  0  0
 19 20  1  0  0  0  0
 17 18  1  0  0  0  0
 17 19  2  0  0  0  0
 15 16  1  0  0  0  0
 15 17  1  0  0  0  0
 14 15  1  0  0  0  0
 14 20  2  0  0  0  0
 11 12  1  0  0  0  0
 11 13  1  0  0  0  0
 11 14  1  0  0  0  0
  9 10  1  0  0  0  0
  9 11  1  0  0  0  0
  9 22  1  0  0  0  0
  7  8  1  0  0  0  0
  7  9  1  0  0  0  0
 26 27  1  0  0  0  0
 26 28  1  0  0  0  0
 26 29  1  0  0  0  0
 24 25  1  0  0  0  0
 24 26  1  0  0  0  0
M  END
$$$$
default_name
  -OEChem-02102213163D

 29 29  0     1  0  0  0  0  0999 V2000
   -3.6042   -3.5728    1.4576 H   0  0  0  0  0  0  0  0  0  0  0  0
   -3.5202   -2.6488    0.8866 C   0  0  0  0  0  0  0  0  0  0  0  0
   -4.2052   -1.9048    1.2896 H   0  0  0  0  0  0  0  0  0  0  0  0
   -3.7552   -2.8428   -0.1584 H   0  0  0  0  0  0  0  0  0  0  0  0
   -2.1052   -2.1358    0.9946 C   0  0  0  0  0  0  0  0  0  0  0  0
   -1.2852   -2.7288    1.6826 O   0  0  0  0  0  0  0  0  0  0  0  0
   -1.8202   -1.0288    0.3146 N   0  0  0  0  0  0  0  0  0  0  0  0
   -2.5542   -0.5788   -0.2104 H   0  0  0  0  0  0  0  0  0  0  0  0
   -0.5102   -0.3728    0.3086 C   0  0  1  0  0  0  0  0  0  0  0  0
    0.2354   -1.0844   -0.0490 H   0  0  0  0  0  0  0  0  0  0  0  0
   -0.5452    0.8158   -0.6698 C   0  0  0  0  0  0  0  0  0  0  0  0
   -1.0854    1.6437   -0.2072 H   0  0  0  0  0  0  0  0  0  0  0  0
    0.4766    1.1480   -0.8627 H   0  0  0  0  0  0  0  0  0  0  0  0
   -1.1998    0.4934   -1.9881 C   0  0  0  0  0  0  0  0  0  0  0  0
   -2.3797   -0.1968   -2.1658 N   0  0  0  0  0  0  0  0  0  0  0  0
   -2.9221   -0.6441   -1.4420 H   0  0  0  0  0  0  0  0  0  0  0  0
   -2.6805   -0.1753   -3.4752 C   0  0  0  0  0  0  0  0  0  0  0  0
   -3.5487   -0.6404   -3.9257 H   0  0  0  0  0  0  0  0  0  0  0  0
   -1.7502    0.5116   -4.1542 N   0  0  0  0  0  0  0  0  0  0  0  0
   -0.8019    0.9379   -3.2207 C   0  0  0  0  0  0  0  0  0  0  0  0
    0.0716    1.5426   -3.4277 H   0  0  0  0  0  0  0  0  0  0  0  0
   -0.1073    0.0565    1.7296 C   0  0  0  0  0  0  0  0  0  0  0  0
    1.0285   -0.1699    2.1459 O   0  0  0  0  0  0  0  0  0  0  0  0
   -1.0395    0.6588    2.4785 N   0  0  0  0  0  0  0  0  0  0  0  0
   -1.9636    0.7597    2.0849 H   0  0  0  0  0  0  0  0  0  0  0  0
   -0.8222    1.1334    3.8425 C   0  0  0  0  0  0  0  0  0  0  0  0
   -0.0212    1.8761    3.8521 H   0  0  0  0  0  0  0  0  0  0  0  0
   -1.7349    1.5853    4.2320 H   0  0  0  0  0  0  0  0  0  0  0  0
   -0.5312    0.2997    4.4834 H   0  0  0  0  0  0  0  0  0  0  0  0
  5  6  2  0  0  0  0
  5  7  1  0  0  0  0
  2  3  1  0  0  0  0
  2  4  1  0  0  0  0
  2  5  1  0  0  0  0
  1  2  1  0  0  0  0
 22 23  2  0  0  0  0
 22 24  1  0  0  0  0
 20 21  1  0  0  0  0
 19 20  1  0  0  0  0
 17 18  1  0  0  0  0
 17 19  2  0  0  0  0
 15 16  1  0  0  0  0
 15 17  1  0  0  0  0
 14 15  1  0  0  0  0
 14 20  2  0  0  0  0
 11 12  1  0  0  0  0
 11 13  1  0  0  0  0
 11 14  1  0  0  0  0
  9 10  1  0  0  0  0
  9 11  1  0  0  0  0
  9 22  1  0  0  0  0
  7  8  1  0  0  0  0
  7  9  1  0  0  0  0
 26 27  1  0  0  0  0
 26 28  1  0  0  0  0
 26 29  1  0  0  0  0
 24 25  1  0  0  0  0
 24 26  1  0  0  0  0
M  END
$$$$
default_name
  -OEChem-02102213163D

 29 29  0     1  0  0  0  0  0999 V2000
   -3.6042   -3.5728    1.4576 H   0  0  0  0  0  0  0  0  0  0  0  0
   -3.5202   -2.6488    0.8866 C   0  0  0  0  0  0  0  0  0  0  0  0
   -4.2052   -1.9048    1.2896 H   0  0  0  0  0  0  0  0  0  0  0  0
   -3.7552   -2.8428   -0.1584 H   0  0  0  0  0  0  0  0  0  0  0  0
   -2.1052   -2.1358    0.9946 C   0  0  0  0  0  0  0  0  0  0  0  0
   -1.2852   -2.7288    1.6826 O   0  0  0  0  0  0  0  0  0  0  0  0
   -1.8202   -1.0288    0.3146 N   0  0  0  0  0  0  0  0  0  0  0  0
   -2.5542   -0.5788   -0.2104 H   0  0  0  0  0  0  0  0  0  0  0  0
   -0.5102   -0.3728    0.3086 C   0  0  1  0  0  0  0  0  0  0  0  0
    0.2354   -1.0844   -0.0490 H   0  0  0  0  0  0  0  0  0  0  0  0
   -0.5452    0.8158   -0.6698 C   0  0  0  0  0  0  0  0  0  0  0  0
   -1.0854    1.6437   -0.2072 H   0  0  0  0  0  0  0  0  0  0  0  0
    0.4766    1.1480   -0.8627 H   0  0  0  0  0  0  0  0  0  0  0  0
   -1.1998    0.4934   -1.9881 C   0  0  0  0  0  0  0  0  0  0  0  0
   -2.4980    0.0680   -2.1718 N   0  0  0  0  0  0  0  0  0  0  0  0
   -3.1588   -0.1577   -1.4434 H   0  0  0  0  0  0  0  0  0  0  0  0
   -2.7300    0.0003   -3.4935 C   0  0  0  0  0  0  0  0  0  0  0  0
   -3.6619   -0.3094   -3.9505 H   0  0  0  0  0  0  0  0  0  0  0  0
   -1.6389    0.3765   -4.1764 N   0  0  0  0  0  0  0  0  0  0  0  0
   -0.6585    0.6882   -3.2308 C   0  0  0  0  0  0  0  0  0  0  0  0
    0.3385    1.0535   -3.4406 H   0  0  0  0  0  0  0  0  0  0  0  0
   -0.1073    0.0565    1.7296 C   0  0  0  0  0  0  0  0  0  0  0  0
    1.0285   -0.1699    2.1459 O   0  0  0  0  0  0  0  0  0  0  0  0
   -1.0395    0.6588    2.4785 N   0  0  0  0  0  0  0  0  0  0  0  0
   -1.9636    0.7597    2.0849 H   0  0  0  0  0  0  0  0  0  0  0  0
   -0.8222    1.1334    3.8425 C   0  0  0  0  0  0  0  0  0  0  0  0
   -0.0212    1.8761    3.8521 H   0  0  0  0  0  0  0  0  0  0  0  0
   -1.7349    1.5853    4.2320 H   0  0  0  0  0  0  0  0  0  0  0  0
   -0.5312    0.2997    4.4834 H   0  0  0  0  0  0  0  0  0  0  0  0
  5  6  2  0  0  0  0
  5  7  1  0  0  0  0
  2  3  1  0  0  0  0
  2  4  1  0  0  0  0
  2  5  1  0  0  0  0
  1  2  1  0  0  0  0
 22 23  2  0  0  0  0
 22 24  1  0  0  0  0
 20 21  1  0  0  0  0
 19 20  1  0  0  0  0
 17 18  1  0  0  0  0
 17 19  2  0  0  0  0
 15 16  1  0  0  0  0
 15 17  1  0  0  0  0
 14 15  1  0  0  0  0
 14 20  2  0  0  0  0
 11 12  1  0  0  0  0
 11 13  1  0  0  0  0
 11 14  1  0  0  0  0
  9 10  1  0  0  0  0
  9 11  1  0  0  0  0
  9 22  1  0  0  0  0
  7  8  1  0  0  0  0
  7  9  1  0  0  0  0
 26 27  1  0  0  0  0
 26 28  1  0  0  0  0
 26 29  1  0  0  0  0
 24 25  1  0  0  0  0
 24 26  1  0  0  0  0
M  END
$$$$
default_name
  -OEChem-02102213163D

 29 29  0     1  0  0  0  0  0999 V2000
   -3.6042   -3.5728    1.4576 H   0  0  0  0  0  0  0  0  0  0  0  0
   -3.5202   -2.6488    0.8866 C   0  0  0  0  0  0  0  0  0  0  0  0
   -4.2052   -1.9048    1.2896 H   0  0  0  0  0  0  0  0  0  0  0  0
   -3.7552   -2.8428   -0.1584 H   0  0  0  0  0  0  0  0  0  0  0  0
   -2.1052   -2.1358    0.9946 C   0  0  0  0  0  0  0  0  0  0  0  0
   -1.2852   -2.7288    1.6826 O   0  0  0  0  0  0  0  0  0  0  0  0
   -1.8202   -1.0288    0.3146 N   0  0  0  0  0  0  0  0  0  0  0  0
   -2.5542   -0.5788   -0.2104 H   0  0  0  0  0  0  0  0  0  0  0  0
   -0.5102   -0.3728    0.3086 C   0  0  1  0  0  0  0  0  0  0  0  0
    0.2354   -1.0844   -0.0490 H   0  0  0  0  0  0  0  0  0  0  0  0
   -0.5452    0.8158   -0.6698 C   0  0  0  0  0  0  0  0  0  0  0  0
   -1.0854    1.6437   -0.2072 H   0  0  0  0  0  0  0  0  0  0  0  0
    0.4766    1.1480   -0.8627 H   0  0  0  0  0  0  0  0  0  0  0  0
   -1.1998    0.4934   -1.9881 C   0  0  0  0  0  0  0  0  0  0  0  0
   -2.5520    0.3498   -2.2139 N   0  0  0  0  0  0  0  0  0  0  0  0
   -3.2773    0.3656   -1.5125 H   0  0  0  0  0  0  0  0  0  0  0  0
   -2.7371    0.1791   -3.5337 C   0  0  0  0  0  0  0  0  0  0  0  0
   -3.6950    0.0333   -4.0179 H   0  0  0  0  0  0  0  0  0  0  0  0
   -1.5608    0.2183   -4.1765 N   0  0  0  0  0  0  0  0  0  0  0  0
   -0.5760    0.4133   -3.2045 C   0  0  0  0  0  0  0  0  0  0  0  0
    0.4862    0.5193   -3.3833 H   0  0  0  0  0  0  0  0  0  0  0  0
   -0.1073    0.0565    1.7296 C   0  0  0  0  0  0  0  0  0  0  0  0
    1.0285   -0.1699    2.1459 O   0  0  0  0  0  0  0  0  0  0  0  0
   -1.0395    0.6588    2.4785 N   0  0  0  0  0  0  0  0  0  0  0  0
   -1.9636    0.7597    2.0849 H   0  0  0  0  0  0  0  0  0  0  0  0
   -0.8222    1.1334    3.8425 C   0  0  0  0  0  0  0  0  0  0  0  0
   -0.0212    1.8761    3.8521 H   0  0  0  0  0  0  0  0  0  0  0  0
   -1.7349    1.5853    4.2320 H   0  0  0  0  0  0  0  0  0  0  0  0
   -0.5312    0.2997    4.4834 H   0  0  0  0  0  0  0  0  0  0  0  0
  5  6  2  0  0  0  0
  5  7  1  0  0  0  0
  2  3  1  0  0  0  0
  2  4  1  0  0  0  0
  2  5  1  0  0  0  0
  1  2  1  0  0  0  0
 22 23  2  0  0  0  0
 22 24  1  0  0  0  0
 20 21  1  0  0  0  0
 19 20  1  0  0  0  0
 17 18  1  0  0  0  0
 17 19  2  0  0  0  0
 15 16  1  0  0  0  0
 15 17  1  0  0  0  0
 14 15  1  0  0  0  0
 14 20  2  0  0  0  0
 11 12  1  0  0  0  0
 11 13  1  0  0  0  0
 11 14  1  0  0  0  0
  9 10  1  0  0  0  0
  9 11  1  0  0  0  0
  9 22  1  0  0  0  0
  7  8  1  0  0  0  0
  7  9  1  0  0  0  0
 26 27  1  0  0  0  0
 26 28  1  0  0  0  0
 26 29  1  0  0  0  0
 24 25  1  0  0  0  0
 24 26  1  0  0  0  0
M  END
$$$$
default_name
  -OEChem-02102213163D

 29 29  0     1  0  0  0  0  0999 V2000
   -3.6042   -3.5728    1.4576 H   0  0  0  0  0  0  0  0  0  0  0  0
   -3.5202   -2.6488    0.8866 C   0  0  0  0  0  0  0  0  0  0  0  0
   -4.2052   -1.9048    1.2896 H   0  0  0  0  0  0  0  0  0  0  0  0
   -3.7552   -2.8428   -0.1584 H   0  0  0  0  0  0  0  0  0  0  0  0
   -2.1052   -2.1358    0.9946 C   0  0  0  0  0  0  0  0  0  0  0  0
   -1.2852   -2.7288    1.6826 O   0  0  0  0  0  0  0  0  0  0  0  0
   -1.8202   -1.0288    0.3146 N   0  0  0  0  0  0  0  0  0  0  0  0
   -2.5542   -0.5788   -0.2104 H   0  0  0  0  0  0  0  0  0  0  0  0
   -0.5102   -0.3728    0.3086 C   0  0  1  0  0  0  0  0  0  0  0  0
    0.2354   -1.0844   -0.0490 H   0  0  0  0  0  0  0  0  0  0  0  0
   -0.5452    0.8158   -0.6698 C   0  0  0  0  0  0  0  0  0  0  0  0
   -1.0854    1.6437   -0.2072 H   0  0  0  0  0  0  0  0  0  0  0  0
    0.4766    1.1480   -0.8627 H   0  0  0  0  0  0  0  0  0  0  0  0
   -1.1998    0.4934   -1.9881 C   0  0  0  0  0  0  0  0  0  0  0  0
   -2.5380    0.6296   -2.2892 N   0  0  0  0  0  0  0  0  0  0  0  0
   -3.2694    0.8901   -1.6447 H   0  0  0  0  0  0  0  0  0  0  0  0
   -2.7012    0.3489   -3.5931 C   0  0  0  0  0  0  0  0  0  0  0  0
   -3.6455    0.3641   -4.1233 H   0  0  0  0  0  0  0  0  0  0  0  0
   -1.5211    0.0478   -4.1545 N   0  0  0  0  0  0  0  0  0  0  0  0
   -0.5601    0.1321   -3.1437 C   0  0  0  0  0  0  0  0  0  0  0  0
    0.5047   -0.0238   -3.2597 H   0  0  0  0  0  0  0  0  0  0  0  0
   -0.1073    0.0565    1.7296 C   0  0  0  0  0  0  0  0  0  0  0  0
    1.0285   -0.1699    2.1459 O   0  0  0  0  0  0  0  0  0  0  0  0
   -1.0395    0.6588    2.4785 N   0  0  0  0  0  0  0  0  0  0  0  0
   -1.9636    0.7597    2.0849 H   0  0  0  0  0  0  0  0  0  0  0  0
   -0.8222    1.1334    3.8425 C   0  0  0  0  0  0  0  0  0  0  0  0
   -0.0212    1.8761    3.8521 H   0  0  0  0  0  0  0  0  0  0  0  0
   -1.7349    1.5853    4.2320 H   0  0  0  0  0  0  0  0  0  0  0  0
   -0.5312    0.2997    4.4834 H   0  0  0  0  0  0  0  0  0  0  0  0
  5  6  2  0  0  0  0
  5  7  1  0  0  0  0
  2  3  1  0  0  0  0
  2  4  1  0  0  0  0
  2  5  1  0  0  0  0
  1  2  1  0  0  0  0
 22 23  2  0  0  0  0
 22 24  1  0  0  0  0
 20 21  1  0  0  0  0
 19 20  1  0  0  0  0
 17 18  1  0  0  0  0
 17 19  2  0  0  0  0
 15 16  1  0  0  0  0
 15 17  1  0  0  0  0
 14 15  1  0  0  0  0
 14 20  2  0  0  0  0
 11 12  1  0  0  0  0
 11 13  1  0  0  0  0
 11 14  1  0  0  0  0
  9 10  1  0  0  0  0
  9 11  1  0  0  0  0
  9 22  1  0  0  0  0
  7  8  1  0  0  0  0
  7  9  1  0  0  0  0
 26 27  1  0  0  0  0
 26 28  1  0  0  0  0
 26 29  1  0  0  0  0
 24 25  1  0  0  0  0
 24 26  1  0  0  0  0
M  END
$$$$
default_name
  -OEChem-02102213163D

 29 29  0     1  0  0  0  0  0999 V2000
   -3.6042   -3.5728    1.4576 H   0  0  0  0  0  0  0  0  0  0  0  0
   -3.5202   -2.6488    0.8866 C   0  0  0  0  0  0  0  0  0  0  0  0
   -4.2052   -1.9048    1.2896 H   0  0  0  0  0  0  0  0  0  0  0  0
   -3.7552   -2.8428   -0.1584 H   0  0  0  0  0  0  0  0  0  0  0  0
   -2.1052   -2.1358    0.9946 C   0  0  0  0  0  0  0  0  0  0  0  0
   -1.2852   -2.7288    1.6826 O   0  0  0  0  0  0  0  0  0  0  0  0
   -1.8202   -1.0288    0.3146 N   0  0  0  0  0  0  0  0  0  0  0  0
   -2.5542   -0.5788   -0.2104 H   0  0  0  0  0  0  0  0  0  0  0  0
   -0.5102   -0.3728    0.3086 C   0  0  1  0  0  0  0  0  0  0  0  0
    0.2354   -1.0844   -0.0490 H   0  0  0  0  0  0  0  0  0  0  0  0
   -0.5452    0.8158   -0.6698 C   0  0  0  0  0  0  0  0  0  0  0  0
   -1.0854    1.6437   -0.2072 H   0  0  0  0  0  0  0  0  0  0  0  0
    0.4766    1.1480   -0.8627 H   0  0  0  0  0  0  0  0  0  0  0  0
   -1.1998    0.4934   -1.9881 C   0  0  0  0  0  0  0  0  0  0  0  0
   -2.4570    0.8881   -2.3927 N   0  0  0  0  0  0  0  0  0  0  0  0
   -3.1357    1.3801   -1.8310 H   0  0  0  0  0  0  0  0  0  0  0  0
   -2.6247    0.4981   -3.6675 C   0  0  0  0  0  0  0  0  0  0  0  0
   -3.5170    0.6607   -4.2597 H   0  0  0  0  0  0  0  0  0  0  0  0
   -1.5227   -0.1234   -4.1119 N   0  0  0  0  0  0  0  0  0  0  0  0
   -0.6117   -0.1363   -3.0524 C   0  0  0  0  0  0  0  0  0  0  0  0
    0.3927   -0.5387   -3.0782 H   0  0  0  0  0  0  0  0  0  0  0  0
   -0.1073    0.0565    1.7296 C   0  0  0  0  0  0  0  0  0  0  0  0
    1.0285   -0.1699    2.1459 O   0  0  0  0  0  0  0  0  0  0  0  0
   -1.0395    0.6588    2.4785 N   0  0  0  0  0  0  0  0  0  0  0  0
   -1.9636    0.7597    2.0849 H   0  0  0  0  0  0  0  0  0  0  0  0
   -0.8222    1.1334    3.8425 C   0  0  0  0  0  0  0  0  0  0  0  0
   -0.0212    1.8761    3.8521 H   0  0  0  0  0  0  0  0  0  0  0  0
   -1.7349    1.5853    4.2320 H   0  0  0  0  0  0  0  0  0  0  0  0
   -0.5312    0.2997    4.4834 H   0  0  0  0  0  0  0  0  0  0  0  0
  5  6  2  0  0  0  0
  5  7  1  0  0  0  0
  2  3  1  0  0  0  0
  2  4  1  0  0  0  0
  2  5  1  0  0  0  0
  1  2  1  0  0  0  0
 22 23  2  0  0  0  0
 22 24  1  0  0  0  0
 20 21  1  0  0  0  0
 19 20  1  0  0  0  0
 17 18  1  0  0  0  0
 17 19  2  0  0  0  0
 15 16  1  0  0  0  0
 15 17  1  0  0  0  0
 14 15  1  0  0  0  0
 14 20  2  0  0  0  0
 11 12  1  0  0  0  0
 11 13  1  0  0  0  0
 11 14  1  0  0  0  0
  9 10  1  0  0  0  0
  9 11  1  0  0  0  0
  9 22  1  0  0  0  0
  7  8  1  0  0  0  0
  7  9  1  0  0  0  0
 26 27  1  0  0  0  0
 26 28  1  0  0  0  0
 26 29  1  0  0  0  0
 24 25  1  0  0  0  0
 24 26  1  0  0  0  0
M  END
$$$$
default_name
  -OEChem-02102213163D

 29 29  0     1  0  0  0  0  0999 V2000
   -3.6042   -3.5728    1.4576 H   0  0  0  0  0  0  0  0  0  0  0  0
   -3.5202   -2.6488    0.8866 C   0  0  0  0  0  0  0  0  0  0  0  0
   -4.2052   -1.9048    1.2896 H   0  0  0  0  0  0  0  0  0  0  0  0
   -3.7552   -2.8428   -0.1584 H   0  0  0  0  0  0  0  0  0  0  0  0
   -2.1052   -2.1358    0.9946 C   0  0  0  0  0  0  0  0  0  0  0  0
   -1.2852   -2.7288    1.6826 O   0  0  0  0  0  0  0  0  0  0  0  0
   -1.8202   -1.0288    0.3146 N   0  0  0  0  0  0  0  0  0  0  0  0
   -2.5542   -0.5788   -0.2104 H   0  0  0  0  0  0  0  0  0  0  0  0
   -0.5102   -0.3728    0.3086 C   0  0  1  0  0  0  0  0  0  0  0  0
    0.2354   -1.0844   -0.0490 H   0  0  0  0  0  0  0  0  0  0  0  0
   -0.5452    0.8158   -0.6698 C   0  0  0  0  0  0  0  0  0  0  0  0
   -1.0854    1.6437   -0.2072 H   0  0  0  0  0  0  0  0  0  0  0  0
    0.4766    1.1480   -0.8627 H   0  0  0  0  0  0  0  0  0  0  0  0
   -1.1998    0.4934   -1.9881 C   0  0  0  0  0  0  0  0  0  0  0  0
   -2.3144    1.1079   -2.5172 N   0  0  0  0  0  0  0  0  0  0  0  0
   -2.8852    1.8021   -2.0585 H   0  0  0  0  0  0  0  0  0  0  0  0
   -2.5130    0.6165   -3.7519 C   0  0  0  0  0  0  0  0  0  0  0  0
   -3.3182    0.9027   -4.4176 H   0  0  0  0  0  0  0  0  0  0  0  0
   -1.5653   -0.2837   -4.0515 N   0  0  0  0  0  0  0  0  0  0  0  0
   -0.7274   -0.3736   -2.9369 C   0  0  0  0  0  0  0  0  0  0  0  0
    0.1580   -0.9902   -2.8512 H   0  0  0  0  0  0  0  0  0  0  0  0
   -0.1073    0.0565    1.7296 C   0  0  0  0  0  0  0  0  0  0  0  0
    1.0285   -0.1699    2.1459 O   0  0  0  0  0  0  0  0  0  0  0  0
   -1.0395    0.6588    2.4785 N   0  0  0  0  0  0  0  0  0  0  0  0
   -1.9636    0.7597    2.0849 H   0  0  0  0  0  0  0  0  0  0  0  0
   -0.8222    1.1334    3.8425 C   0  0  0  0  0  0  0  0  0  0  0  0
   -0.0212    1.8761    3.8521 H   0  0  0  0  0  0  0  0  0  0  0  0
   -1.7349    1.5853    4.2320 H   0  0  0  0  0  0  0  0  0  0  0  0
   -0.5312    0.2997    4.4834 H   0  0  0  0  0  0  0  0  0  0  0  0
  5  6  2  0  0  0  0
  5  7  1  0  0  0  0
  2  3  1  0  0  0  0
  2  4  1  0  0  0  0
  2  5  1  0  0  0  0
  1  2  1  0  0  0  0
 22 23  2  0  0  0  0
 22 24  1  0  0  0  0
 20 21  1  0  0  0  0
 19 20  1  0  0  0  0
 17 18  1  0  0  0  0
 17 19  2  0  0  0  0
 15 16  1  0  0  0  0
 15 17  1  0  0  0  0
 14 15  1  0  0  0  0
 14 20  2  0  0  0  0
 11 12  1  0  0  0  0
 11 13  1  0  0  0  0
 11 14  1  0  0  0  0
  9 10  1  0  0  0  0
  9 11  1  0  0  0  0
  9 22  1  0  0  0  0
  7  8  1  0  0  0  0
  7  9  1  0  0  0  0
 26 27  1  0  0  0  0
 26 28  1  0  0  0  0
 26 29  1  0  0  0  0
 24 25  1  0  0  0  0
 24 26  1  0  0  0  0
M  END
$$$$
default_name
  -OEChem-02102213163D

 29 29  0     1  0  0  0  0  0999 V2000
   -3.6042   -3.5728    1.4576 H   0  0  0  0  0  0  0  0  0  0  0  0
   -3.5202   -2.6488    0.8866 C   0  0  0  0  0  0  0  0  0  0  0  0
   -4.2052   -1.9048    1.2896 H   0  0  0  0  0  0  0  0  0  0  0  0
   -3.7552   -2.8428   -0.1584 H   0  0  0  0  0  0  0  0  0  0  0  0
   -2.1052   -2.1358    0.9946 C   0  0  0  0  0  0  0  0  0  0  0  0
   -1.2852   -2.7288    1.6826 O   0  0  0  0  0  0  0  0  0  0  0  0
   -1.8202   -1.0288    0.3146 N   0  0  0  0  0  0  0  0  0  0  0  0
   -2.5542   -0.5788   -0.2104 H   0  0  0  0  0  0  0  0  0  0  0  0
   -0.5102   -0.3728    0.3086 C   0  0  1  0  0  0  0  0  0  0  0  0
    0.2354   -1.0844   -0.0490 H   0  0  0  0  0  0  0  0  0  0  0  0
   -0.5452    0.8158   -0.6698 C   0  0  0  0  0  0  0  0  0  0  0  0
   -1.0854    1.6437   -0.2072 H   0  0  0  0  0  0  0  0  0  0  0  0
    0.4766    1.1480   -0.8627 H   0  0  0  0  0  0  0  0  0  0  0  0
   -1.1998    0.4934   -1.9881 C   0  0  0  0  0  0  0  0  0  0  0  0
   -2.1201    1.2739   -2.6544 N   0  0  0  0  0  0  0  0  0  0  0  0
   -2.5352    2.1275   -2.3119 H   0  0  0  0  0  0  0  0  0  0  0  0
   -2.3736    0.6961   -3.8406 C   0  0  0  0  0  0  0  0  0  0  0  0
   -3.0626    1.0737   -4.5863 H   0  0  0  0  0  0  0  0  0  0  0  0
   -1.6461   -0.4220   -3.9776 N   0  0  0  0  0  0  0  0  0  0  0  0
   -0.8993   -0.5637   -2.8051 C   0  0  0  0  0  0  0  0  0  0  0  0
   -0.1836   -1.3477   -2.5941 H   0  0  0  0  0  0  0  0  0  0  0  0
   -0.1073    0.0565    1.7296 C   0  0  0  0  0  0  0  0  0  0  0  0
    1.0285   -0.1699    2.1459 O   0  0  0  0  0  0  0  0  0  0  0  0
   -1.0395    0.6588    2.4785 N   0  0  0  0  0  0  0  0  0  0  0  0
   -1.9636    0.7597    2.0849 H   0  0  0  0  0  0  0  0  0  0  0  0
   -0.8222    1.1334    3.8425 C   0  0  0  0  0  0  0  0  0  0  0  0
   -0.0212    1.8761    3.8521 H   0  0  0  0  0  0  0  0  0  0  0  0
   -1.7349    1.5853    4.2320 H   0  0  0  0  0  0  0  0  0  0  0  0
   -0.5312    0.2997    4.4834 H   0  0  0  0  0  0  0  0  0  0  0  0
  5  6  2  0  0  0  0
  5  7  1  0  0  0  0
  2  3  1  0  0  0  0
  2  4  1  0  0  0  0
  2  5  1  0  0  0  0
  1  2  1  0  0  0  0
 22 23  2  0  0  0  0
 22 24  1  0  0  0  0
 20 21  1  0  0  0  0
 19 20  1  0  0  0  0
 17 18  1  0  0  0  0
 17 19  2  0  0  0  0
 15 16  1  0  0  0  0
 15 17  1  0  0  0  0
 14 15  1  0  0  0  0
 14 20  2  0  0  0  0
 11 12  1  0  0  0  0
 11 13  1  0  0  0  0
 11 14  1  0  0  0  0
  9 10  1  0  0  0  0
  9 11  1  0  0  0  0
  9 22  1  0  0  0  0
  7  8  1  0  0  0  0
  7  9  1  0  0  0  0
 26 27  1  0  0  0  0
 26 28  1  0  0  0  0
 26 29  1  0  0  0  0
 24 25  1  0  0  0  0
 24 26  1  0  0  0  0
M  END
$$$$
default_name
  -OEChem-02102213163D

 29 29  0     1  0  0  0  0  0999 V2000
   -3.6042   -3.5728    1.4576 H   0  0  0  0  0  0  0  0  0  0  0  0
   -3.5202   -2.6488    0.8866 C   0  0  0  0  0  0  0  0  0  0  0  0
   -4.2052   -1.9048    1.2896 H   0  0  0  0  0  0  0  0  0  0  0  0
   -3.7552   -2.8428   -0.1584 H   0  0  0  0  0  0  0  0  0  0  0  0
   -2.1052   -2.1358    0.9946 C   0  0  0  0  0  0  0  0  0  0  0  0
   -1.2852   -2.7288    1.6826 O   0  0  0  0  0  0  0  0  0  0  0  0
   -1.8202   -1.0288    0.3146 N   0  0  0  0  0  0  0  0  0  0  0  0
   -2.5542   -0.5788   -0.2104 H   0  0  0  0  0  0  0  0  0  0  0  0
   -0.5102   -0.3728    0.3086 C   0  0  1  0  0  0  0  0  0  0  0  0
    0.2354   -1.0844   -0.0490 H   0  0  0  0  0  0  0  0  0  0  0  0
   -0.5452    0.8158   -0.6698 C   0  0  0  0  0  0  0  0  0  0  0  0
   -1.0854    1.6437   -0.2072 H   0  0  0  0  0  0  0  0  0  0  0  0
    0.4766    1.1480   -0.8627 H   0  0  0  0  0  0  0  0  0  0  0  0
   -1.1998    0.4934   -1.9881 C   0  0  0  0  0  0  0  0  0  0  0  0
   -1.8872    1.3749   -2.7947 N   0  0  0  0  0  0  0  0  0  0  0  0
   -2.1093    2.3341   -2.5739 H   0  0  0  0  0  0  0  0  0  0  0  0
   -2.2161    0.7315   -3.9275 C   0  0  0  0  0  0  0  0  0  0  0  0
   -2.7676    1.1620   -4.7544 H   0  0  0  0  0  0  0  0  0  0  0  0
   -1.7595   -0.5290   -3.8951 N   0  0  0  0  0  0  0  0  0  0  0  0
   -1.1157   -0.6935   -2.6659 C   0  0  0  0  0  0  0  0  0  0  0  0
   -0.6087   -1.5867   -2.3246 H   0  0  0  0  0  0  0  0  0  0  0  0
   -0.1073    0.0565    1.7296 C   0  0  0  0  0  0  0  0  0  0  0  0
    1.0285   -0.1699    2.1459 O   0  0  0  0  0  0  0  0  0  0  0  0
   -1.0395    0.6588    2.4785 N   0  0  0  0  0  0  0  0  0  0  0  0
   -1.9636    0.7597    2.0849 H   0  0  0  0  0  0  0  0  0  0  0  0
   -0.8222    1.1334    3.8425 C   0  0  0  0  0  0  0  0  0  0  0  0
   -0.0212    1.8761    3.8521 H   0  0  0  0  0  0  0  0  0  0  0  0
   -1.7349    1.5853    4.2320 H   0  0  0  0  0  0  0  0  0  0  0  0
   -0.5312    0.2997    4.4834 H   0  0  0  0  0  0  0  0  0  0  0  0
  5  6  2  0  0  0  0
  5  7  1  0  0  0  0
  2  3  1  0  0  0  0
  2  4  1  0  0  0  0
  2  5  1  0  0  0  0
  1  2  1  0  0  0  0
 22 23  2  0  0  0  0
 22 24  1  0  0  0  0
 20 21  1  0  0  0  0
 19 20  1  0  0  0  0
 17 18  1  0  0  0  0
 17 19  2  0  0  0  0
 15 16  1  0  0  0  0
 15 17  1  0  0  0  0
 14 15  1  0  0  0  0
 14 20  2  0  0  0  0
 11 12  1  0  0  0  0
 11 13  1  0  0  0  0
 11 14  1  0  0  0  0
  9 10  1  0  0  0  0
  9 11  1  0  0  0  0
  9 22  1  0  0  0  0
  7  8  1  0  0  0  0
  7  9  1  0  0  0  0
 26 27  1  0  0  0  0
 26 28  1  0  0  0  0
 26 29  1  0  0  0  0
 24 25  1  0  0  0  0
 24 26  1  0  0  0  0
M  END
$$$$
default_name
  -OEChem-02102213163D

 29 29  0     1  0  0  0  0  0999 V2000
   -3.6042   -3.5728    1.4576 H   0  0  0  0  0  0  0  0  0  0  0  0
   -3.5202   -2.6488    0.8866 C   0  0  0  0  0  0  0  0  0  0  0  0
   -4.2052   -1.9048    1.2896 H   0  0  0  0  0  0  0  0  0  0  0  0
   -3.7552   -2.8428   -0.1584 H   0  0  0  0  0  0  0  0  0  0  0  0
   -2.1052   -2.1358    0.9946 C   0  0  0  0  0  0  0  0  0  0  0  0
   -1.2852   -2.7288    1.6826 O   0  0  0  0  0  0  0  0  0  0  0  0
   -1.8202   -1.0288    0.3146 N   0  0  0  0  0  0  0  0  0  0  0  0
   -2.5542   -0.5788   -0.2104 H   0  0  0  0  0  0  0  0  0  0  0  0
   -0.5102   -0.3728    0.3086 C   0  0  1  0  0  0  0  0  0  0  0  0
    0.2354   -1.0844   -0.0490 H   0  0  0  0  0  0  0  0  0  0  0  0
   -0.5452    0.8158   -0.6698 C   0  0  0  0  0  0  0  0  0  0  0  0
   -1.0854    1.6437   -0.2072 H   0  0  0  0  0  0  0  0  0  0  0  0
    0.4766    1.1480   -0.8627 H   0  0  0  0  0  0  0  0  0  0  0  0
   -1.1998    0.4934   -1.9881 C   0  0  0  0  0  0  0  0  0  0  0  0
   -1.6316    1.4038   -2.9287 N   0  0  0  0  0  0  0  0  0  0  0  0
   -1.6367    2.4077   -2.8266 H   0  0  0  0  0  0  0  0  0  0  0  0
   -2.0510    0.7202   -4.0067 C   0  0  0  0  0  0  0  0  0  0  0  0
   -2.4534    1.1616   -4.9103 H   0  0  0  0  0  0  0  0  0  0  0  0
   -1.8979   -0.5974   -3.8096 N   0  0  0  0  0  0  0  0  0  0  0  0
   -1.3618   -0.7542   -2.5288 C   0  0  0  0  0  0  0  0  0  0  0  0
   -1.0884   -1.6911   -2.0608 H   0  0  0  0  0  0  0  0  0  0  0  0
   -0.1073    0.0565    1.7296 C   0  0  0  0  0  0  0  0  0  0  0  0
    1.0285   -0.1699    2.1459 O   0  0  0  0  0  0  0  0  0  0  0  0
   -1.0395    0.6588    2.4785 N   0  0  0  0  0  0  0  0  0  0  0  0
   -1.9636    0.7597    2.0849 H   0  0  0  0  0  0  0  0  0  0  0  0
   -0.8222    1.1334    3.8425 C   0  0  0  0  0  0  0  0  0  0  0  0
   -0.0212    1.8761    3.8521 H   0  0  0  0  0  0  0  0  0  0  0  0
   -1.7349    1.5853    4.2320 H   0  0  0  0  0  0  0  0  0  0  0  0
   -0.5312    0.2997    4.4834 H   0  0  0  0  0  0  0  0  0  0  0  0
  5  6  2  0  0  0  0
  5  7  1  0  0  0  0
  2  3  1  0  0  0  0
  2  4  1  0  0  0  0
  2  5  1  0  0  0  0
  1  2  1  0  0  0  0
 22 23  2  0  0  0  0
 22 24  1  0  0  0  0
 20 21  1  0  0  0  0
 19 20  1  0  0  0  0
 17 18  1  0  0  0  0
 17 19  2  0  0  0  0
 15 16  1  0  0  0  0
 15 17  1  0  0  0  0
 14 15  1  0  0  0  0
 14 20  2  0  0  0  0
 11 12  1  0  0  0  0
 11 13  1  0  0  0  0
 11 14  1  0  0  0  0
  9 10  1  0  0  0  0
  9 11  1  0  0  0  0
  9 22  1  0  0  0  0
  7  8  1  0  0  0  0
  7  9  1  0  0  0  0
 26 27  1  0  0  0  0
 26 28  1  0  0  0  0
 26 29  1  0  0  0  0
 24 25  1  0  0  0  0
 24 26  1  0  0  0  0
M  END
$$$$
default_name
  -OEChem-02102213163D

 29 29  0     1  0  0  0  0  0999 V2000
   -3.6042   -3.5728    1.4576 H   0  0  0  0  0  0  0  0  0  0  0  0
   -3.5202   -2.6488    0.8866 C   0  0  0  0  0  0  0  0  0  0  0  0
   -4.2052   -1.9048    1.2896 H   0  0  0  0  0  0  0  0  0  0  0  0
   -3.7552   -2.8428   -0.1584 H   0  0  0  0  0  0  0  0  0  0  0  0
   -2.1052   -2.1358    0.9946 C   0  0  0  0  0  0  0  0  0  0  0  0
   -1.2852   -2.7288    1.6826 O   0  0  0  0  0  0  0  0  0  0  0  0
   -1.8202   -1.0288    0.3146 N   0  0  0  0  0  0  0  0  0  0  0  0
   -2.5542   -0.5788   -0.2104 H   0  0  0  0  0  0  0  0  0  0  0  0
   -0.5102   -0.3728    0.3086 C   0  0  1  0  0  0  0  0  0  0  0  0
    0.2354   -1.0844   -0.0490 H   0  0  0  0  0  0  0  0  0  0  0  0
   -0.5452    0.8158   -0.6698 C   0  0  0  0  0  0  0  0  0  0  0  0
   -0.8387    1.7164   -0.1276 H   0  0  0  0  0  0  0  0  0  0  0  0
    0.4576    0.9768   -1.0699 H   0  0  0  0  0  0  0  0  0  0  0  0
   -1.4943    0.6202   -1.8235 C   0  0  0  0  0  0  0  0  0  0  0  0
   -1.7297    1.5134   -2.8467 N   0  0  0  0  0  0  0  0  0  0  0  0
   -1.3559    2.4479   -2.9185 H   0  0  0  0  0  0  0  0  0  0  0  0
   -2.5505    0.9239   -3.7323 C   0  0  0  0  0  0  0  0  0  0  0  0
   -2.9209    1.3798   -4.6423 H   0  0  0  0  0  0  0  0  0  0  0  0
   -2.8484   -0.3209   -3.3322 N   0  0  0  0  0  0  0  0  0  0  0  0
   -2.1865   -0.5240   -2.1185 C   0  0  0  0  0  0  0  0  0  0  0  0
   -2.1895   -1.4346   -1.5336 H   0  0  0  0  0  0  0  0  0  0  0  0
   -0.1073    0.0565    1.7296 C   0  0  0  0  0  0  0  0  0  0  0  0
    1.0285   -0.1699    2.1459 O   0  0  0  0  0  0  0  0  0  0  0  0
   -1.0395    0.6588    2.4785 N   0  0  0  0  0  0  0  0  0  0  0  0
   -1.9636    0.7597    2.0849 H   0  0  0  0  0  0  0  0  0  0  0  0
   -0.8222    1.1334    3.8425 C   0  0  0  0  0  0  0  0  0  0  0  0
   -0.0212    1.8761    3.8521 H   0  0  0  0  0  0  0  0  0  0  0  0
   -1.7349    1.5853    4.2320 H   0  0  0  0  0  0  0  0  0  0  0  0
   -0.5312    0.2997    4.4834 H   0  0  0  0  0  0  0  0  0  0  0  0
  5  6  2  0  0  0  0
  5  7  1  0  0  0  0
  2  3  1  0  0  0  0
  2  4  1  0  0  0  0
  2  5  1  0  0  0  0
  1  2  1  0  0  0  0
 22 23  2  0  0  0  0
 22 24  1  0  0  0  0
 20 21  1  0  0  0  0
 19 20  1  0  0  0  0
 17 18  1  0  0  0  0
 17 19  2  0  0  0  0
 15 16  1  0  0  0  0
 15 17  1  0  0  0  0
 14 15  1  0  0  0  0
 14 20  2  0  0  0  0
 11 12  1  0  0  0  0
 11 13  1  0  0  0  0
 11 14  1  0  0  0  0
  9 10  1  0  0  0  0
  9 11  1  0  0  0  0
  9 22  1  0  0  0  0
  7  8  1  0  0  0  0
  7  9  1  0  0  0  0
 26 27  1  0  0  0  0
 26 28  1  0  0  0  0
 26 29  1  0  0  0  0
 24 25  1  0  0  0  0
 24 26  1  0  0  0  0
M  END
$$$$
default_name
  -OEChem-02102213163D

 29 29  0     1  0  0  0  0  0999 V2000
   -3.6042   -3.5728    1.4576 H   0  0  0  0  0  0  0  0  0  0  0  0
   -3.5202   -2.6488    0.8866 C   0  0  0  0  0  0  0  0  0  0  0  0
   -4.2052   -1.9048    1.2896 H   0  0  0  0  0  0  0  0  0  0  0  0
   -3.7552   -2.8428   -0.1584 H   0  0  0  0  0  0  0  0  0  0  0  0
   -2.1052   -2.1358    0.9946 C   0  0  0  0  0  0  0  0  0  0  0  0
   -1.2852   -2.7288    1.6826 O   0  0  0  0  0  0  0  0  0  0  0  0
   -1.8202   -1.0288    0.3146 N   0  0  0  0  0  0  0  0  0  0  0  0
   -2.5542   -0.5788   -0.2104 H   0  0  0  0  0  0  0  0  0  0  0  0
   -0.5102   -0.3728    0.3086 C   0  0  1  0  0  0  0  0  0  0  0  0
    0.2354   -1.0844   -0.0490 H   0  0  0  0  0  0  0  0  0  0  0  0
   -0.5452    0.8158   -0.6698 C   0  0  0  0  0  0  0  0  0  0  0  0
   -0.8387    1.7164   -0.1276 H   0  0  0  0  0  0  0  0  0  0  0  0
    0.4576    0.9768   -1.0699 H   0  0  0  0  0  0  0  0  0  0  0  0
   -1.4943    0.6202   -1.8235 C   0  0  0  0  0  0  0  0  0  0  0  0
   -1.5278    1.3592   -2.9867 N   0  0  0  0  0  0  0  0  0  0  0  0
   -0.9727    2.1774   -3.1879 H   0  0  0  0  0  0  0  0  0  0  0  0
   -2.4350    0.8025   -3.8067 C   0  0  0  0  0  0  0  0  0  0  0  0
   -2.6905    1.1640   -4.7952 H   0  0  0  0  0  0  0  0  0  0  0  0
   -2.9838   -0.2759   -3.2285 N   0  0  0  0  0  0  0  0  0  0  0  0
   -2.3972   -0.3995   -1.9663 C   0  0  0  0  0  0  0  0  0  0  0  0
   -2.5932   -1.1817   -1.2444 H   0  0  0  0  0  0  0  0  0  0  0  0
   -0.1073    0.0565    1.7296 C   0  0  0  0  0  0  0  0  0  0  0  0
    1.0285   -0.1699    2.1459 O   0  0  0  0  0  0  0  0  0  0  0  0
   -1.0395    0.6588    2.4785 N   0  0  0  0  0  0  0  0  0  0  0  0
   -1.9636    0.7597    2.0849 H   0  0  0  0  0  0  0  0  0  0  0  0
   -0.8222    1.1334    3.8425 C   0  0  0  0  0  0  0  0  0  0  0  0
   -0.0212    1.8761    3.8521 H   0  0  0  0  0  0  0  0  0  0  0  0
   -1.7349    1.5853    4.2320 H   0  0  0  0  0  0  0  0  0  0  0  0
   -0.5312    0.2997    4.4834 H   0  0  0  0  0  0  0  0  0  0  0  0
  5  6  2  0  0  0  0
  5  7  1  0  0  0  0
  2  3  1  0  0  0  0
  2  4  1  0  0  0  0
  2  5  1  0  0  0  0
  1  2  1  0  0  0  0
 22 23  2  0  0  0  0
 22 24  1  0  0  0  0
 20 21  1  0  0  0  0
 19 20  1  0  0  0  0
 17 18  1  0  0  0  0
 17 19  2  0  0  0  0
 15 16  1  0  0  0  0
 15 17  1  0  0  0  0
 14 15  1  0  0  0  0
 14 20  2  0  0  0  0
 11 12  1  0  0  0  0
 11 13  1  0  0  0  0
 11 14  1  0  0  0  0
  9 10  1  0  0  0  0
  9 11  1  0  0  0  0
  9 22  1  0  0  0  0
  7  8  1  0  0  0  0
  7  9  1  0  0  0  0
 26 27  1  0  0  0  0
 26 28  1  0  0  0  0
 26 29  1  0  0  0  0
 24 25  1  0  0  0  0
 24 26  1  0  0  0  0
M  END
$$$$
default_name
  -OEChem-02102213163D

 29 29  0     1  0  0  0  0  0999 V2000
   -3.6042   -3.5728    1.4576 H   0  0  0  0  0  0  0  0  0  0  0  0
   -3.5202   -2.6488    0.8866 C   0  0  0  0  0  0  0  0  0  0  0  0
   -4.2052   -1.9048    1.2896 H   0  0  0  0  0  0  0  0  0  0  0  0
   -3.7552   -2.8428   -0.1584 H   0  0  0  0  0  0  0  0  0  0  0  0
   -2.1052   -2.1358    0.9946 C   0  0  0  0  0  0  0  0  0  0  0  0
   -1.2852   -2.7288    1.6826 O   0  0  0  0  0  0  0  0  0  0  0  0
   -1.8202   -1.0288    0.3146 N   0  0  0  0  0  0  0  0  0  0  0  0
   -2.5542   -0.5788   -0.2104 H   0  0  0  0  0  0  0  0  0  0  0  0
   -0.5102   -0.3728    0.3086 C   0  0  1  0  0  0  0  0  0  0  0  0
    0.2354   -1.0844   -0.0490 H   0  0  0  0  0  0  0  0  0  0  0  0
   -0.5452    0.8158   -0.6698 C   0  0  0  0  0  0  0  0  0  0  0  0
   -0.8387    1.7164   -0.1276 H   0  0  0  0  0  0  0  0  0  0  0  0
    0.4576    0.9768   -1.0699 H   0  0  0  0  0  0  0  0  0  0  0  0
   -1.4943    0.6202   -1.8235 C   0  0  0  0  0  0  0  0  0  0  0  0
   -1.3587    1.1474   -3.0899 N   0  0  0  0  0  0  0  0  0  0  0  0
   -0.6470    1.7962   -3.3912 H   0  0  0  0  0  0  0  0  0  0  0  0
   -2.3450    0.6501   -3.8549 C   0  0  0  0  0  0  0  0  0  0  0  0
   -2.5056    0.8849   -4.9000 H   0  0  0  0  0  0  0  0  0  0  0  0
   -3.1092   -0.1886   -3.1401 N   0  0  0  0  0  0  0  0  0  0  0  0
   -2.5811   -0.2127   -1.8467 C   0  0  0  0  0  0  0  0  0  0  0  0
   -2.9427   -0.8102   -1.0198 H   0  0  0  0  0  0  0  0  0  0  0  0
   -0.1073    0.0565    1.7296 C   0  0  0  0  0  0  0  0  0  0  0  0
    1.0285   -0.1699    2.1459 O   0  0  0  0  0  0  0  0  0  0  0  0
   -1.0395    0.6588    2.4785 N   0  0  0  0  0  0  0  0  0  0  0  0
   -1.9636    0.7597    2.0849 H   0  0  0  0  0  0  0  0  0  0  0  0
   -0.8222    1.1334    3.8425 C   0  0  0  0  0  0  0  0  0  0  0  0
   -0.0212    1.8761    3.8521 H   0  0  0  0  0  0  0  0  0  0  0  0
   -1.7349    1.5853    4.2320 H   0  0  0  0  0  0  0  0  0  0  0  0
   -0.5312    0.2997    4.4834 H   0  0  0  0  0  0  0  0  0  0  0  0
  5  6  2  0  0  0  0
  5  7  1  0  0  0  0
  2  3  1  0  0  0  0
  2  4  1  0  0  0  0
  2  5  1  0  0  0  0
  1  2  1  0  0  0  0
 22 23  2  0  0  0  0
 22 24  1  0  0  0  0
 20 21  1  0  0  0  0
 19 20  1  0  0  0  0
 17 18  1  0  0  0  0
 17 19  2  0  0  0  0
 15 16  1  0  0  0  0
 15 17  1  0  0  0  0
 14 15  1  0  0  0  0
 14 20  2  0  0  0  0
 11 12  1  0  0  0  0
 11 13  1  0  0  0  0
 11 14  1  0  0  0  0
  9 10  1  0  0  0  0
  9 11  1  0  0  0  0
  9 22  1  0  0  0  0
  7  8  1  0  0  0  0
  7  9  1  0  0  0  0
 26 27  1  0  0  0  0
 26 28  1  0  0  0  0
 26 29  1  0  0  0  0
 24 25  1  0  0  0  0
 24 26  1  0  0  0  0
M  END
$$$$
default_name
  -OEChem-02102213163D

 29 29  0     1  0  0  0  0  0999 V2000
   -3.6042   -3.5728    1.4576 H   0  0  0  0  0  0  0  0  0  0  0  0
   -3.5202   -2.6488    0.8866 C   0  0  0  0  0  0  0  0  0  0  0  0
   -4.2052   -1.9048    1.2896 H   0  0  0  0  0  0  0  0  0  0  0  0
   -3.7552   -2.8428   -0.1584 H   0  0  0  0  0  0  0  0  0  0  0  0
   -2.1052   -2.1358    0.9946 C   0  0  0  0  0  0  0  0  0  0  0  0
   -1.2852   -2.7288    1.6826 O   0  0  0  0  0  0  0  0  0  0  0  0
   -1.8202   -1.0288    0.3146 N   0  0  0  0  0  0  0  0  0  0  0  0
   -2.5542   -0.5788   -0.2104 H   0  0  0  0  0  0  0  0  0  0  0  0
   -0.5102   -0.3728    0.3086 C   0  0  1  0  0  0  0  0  0  0  0  0
    0.2354   -1.0844   -0.0490 H   0  0  0  0  0  0  0  0  0  0  0  0
   -0.5452    0.8158   -0.6698 C   0  0  0  0  0  0  0  0  0  0  0  0
   -0.8387    1.7164   -0.1276 H   0  0  0  0  0  0  0  0  0  0  0  0
    0.4576    0.9768   -1.0699 H   0  0  0  0  0  0  0  0  0  0  0  0
   -1.4943    0.6202   -1.8235 C   0  0  0  0  0  0  0  0  0  0  0  0
   -1.2338    0.8924   -3.1494 N   0  0  0  0  0  0  0  0  0  0  0  0
   -0.4012    1.3303   -3.5144 H   0  0  0  0  0  0  0  0  0  0  0  0
   -2.2867    0.4772   -3.8736 C   0  0  0  0  0  0  0  0  0  0  0  0
   -2.3788    0.5617   -4.9495 H   0  0  0  0  0  0  0  0  0  0  0  0
   -3.2159   -0.0651   -3.0732 N   0  0  0  0  0  0  0  0  0  0  0  0
   -2.7258    0.0237   -1.7677 C   0  0  0  0  0  0  0  0  0  0  0  0
   -3.2142   -0.3456   -0.8753 H   0  0  0  0  0  0  0  0  0  0  0  0
   -0.1073    0.0565    1.7296 C   0  0  0  0  0  0  0  0  0  0  0  0
    1.0285   -0.1699    2.1459 O   0  0  0  0  0  0  0  0  0  0  0  0
   -1.0395    0.6588    2.4785 N   0  0  0  0  0  0  0  0  0  0  0  0
   -1.9636    0.7597    2.0849 H   0  0  0  0  0  0  0  0  0  0  0  0
   -0.8222    1.1334    3.8425 C   0  0  0  0  0  0  0  0  0  0  0  0
   -0.0212    1.8761    3.8521 H   0  0  0  0  0  0  0  0  0  0  0  0
   -1.7349    1.5853    4.2320 H   0  0  0  0  0  0  0  0  0  0  0  0
   -0.5312    0.2997    4.4834 H   0  0  0  0  0  0  0  0  0  0  0  0
  5  6  2  0  0  0  0
  5  7  1  0  0  0  0
  2  3  1  0  0  0  0
  2  4  1  0  0  0  0
  2  5  1  0  0  0  0
  1  2  1  0  0  0  0
 22 23  2  0  0  0  0
 22 24  1  0  0  0  0
 20 21  1  0  0  0  0
 19 20  1  0  0  0  0
 17 18  1  0  0  0  0
 17 19  2  0  0  0  0
 15 16  1  0  0  0  0
 15 17  1  0  0  0  0
 14 15  1  0  0  0  0
 14 20  2  0  0  0  0
 11 12  1  0  0  0  0
 11 13  1  0  0  0  0
 11 14  1  0  0  0  0
  9 10  1  0  0  0  0
  9 11  1  0  0  0  0
  9 22  1  0  0  0  0
  7  8  1  0  0  0  0
  7  9  1  0  0  0  0
 26 27  1  0  0  0  0
 26 28  1  0  0  0  0
 26 29  1  0  0  0  0
 24 25  1  0  0  0  0
 24 26  1  0  0  0  0
M  END
$$$$
default_name
  -OEChem-02102213163D

 29 29  0     1  0  0  0  0  0999 V2000
   -3.6042   -3.5728    1.4576 H   0  0  0  0  0  0  0  0  0  0  0  0
   -3.5202   -2.6488    0.8866 C   0  0  0  0  0  0  0  0  0  0  0  0
   -4.2052   -1.9048    1.2896 H   0  0  0  0  0  0  0  0  0  0  0  0
   -3.7552   -2.8428   -0.1584 H   0  0  0  0  0  0  0  0  0  0  0  0
   -2.1052   -2.1358    0.9946 C   0  0  0  0  0  0  0  0  0  0  0  0
   -1.2852   -2.7288    1.6826 O   0  0  0  0  0  0  0  0  0  0  0  0
   -1.8202   -1.0288    0.3146 N   0  0  0  0  0  0  0  0  0  0  0  0
   -2.5542   -0.5788   -0.2104 H   0  0  0  0  0  0  0  0  0  0  0  0
   -0.5102   -0.3728    0.3086 C   0  0  1  0  0  0  0  0  0  0  0  0
    0.2354   -1.0844   -0.0490 H   0  0  0  0  0  0  0  0  0  0  0  0
   -0.5452    0.8158   -0.6698 C   0  0  0  0  0  0  0  0  0  0  0  0
   -0.8387    1.7164   -0.1276 H   0  0  0  0  0  0  0  0  0  0  0  0
    0.4576    0.9768   -1.0699 H   0  0  0  0  0  0  0  0  0  0  0  0
   -1.4943    0.6202   -1.8235 C   0  0  0  0  0  0  0  0  0  0  0  0
   -1.1617    0.6117   -3.1612 N   0  0  0  0  0  0  0  0  0  0  0  0
   -0.2519    0.8115   -3.5493 H   0  0  0  0  0  0  0  0  0  0  0  0
   -2.2639    0.2957   -3.8615 C   0  0  0  0  0  0  0  0  0  0  0  0
   -2.3188    0.2162   -4.9404 H   0  0  0  0  0  0  0  0  0  0  0  0
   -3.2968    0.0862   -3.0324 N   0  0  0  0  0  0  0  0  0  0  0  0
   -2.8213    0.2936   -1.7349 C   0  0  0  0  0  0  0  0  0  0  0  0
   -3.3892    0.1807   -0.8205 H   0  0  0  0  0  0  0  0  0  0  0  0
   -0.1073    0.0565    1.7296 C   0  0  0  0  0  0  0  0  0  0  0  0
    1.0285   -0.1699    2.1459 O   0  0  0  0  0  0  0  0  0  0  0  0
   -1.0395    0.6588    2.4785 N   0  0  0  0  0  0  0  0  0  0  0  0
   -1.9636    0.7597    2.0849 H   0  0  0  0  0  0  0  0  0  0  0  0
   -0.8222    1.1334    3.8425 C   0  0  0  0  0  0  0  0  0  0  0  0
   -0.0212    1.8761    3.8521 H   0  0  0  0  0  0  0  0  0  0  0  0
   -1.7349    1.5853    4.2320 H   0  0  0  0  0  0  0  0  0  0  0  0
   -0.5312    0.2997    4.4834 H   0  0  0  0  0  0  0  0  0  0  0  0
  5  6  2  0  0  0  0
  5  7  1  0  0  0  0
  2  3  1  0  0  0  0
  2  4  1  0  0  0  0
  2  5  1  0  0  0  0
  1  2  1  0  0  0  0
 22 23  2  0  0  0  0
 22 24  1  0  0  0  0
 20 21  1  0  0  0  0
 19 20  1  0  0  0  0
 17 18  1  0  0  0  0
 17 19  2  0  0  0  0
 15 16  1  0  0  0  0
 15 17  1  0  0  0  0
 14 15  1  0  0  0  0
 14 20  2  0  0  0  0
 11 12  1  0  0  0  0
 11 13  1  0  0  0  0
 11 14  1  0  0  0  0
  9 10  1  0  0  0  0
  9 11  1  0  0  0  0
  9 22  1  0  0  0  0
  7  8  1  0  0  0  0
  7  9  1  0  0  0  0
 26 27  1  0  0  0  0
 26 28  1  0  0  0  0
 26 29  1  0  0  0  0
 24 25  1  0  0  0  0
 24 26  1  0  0  0  0
M  END
$$$$
default_name
  -OEChem-02102213163D

 29 29  0     1  0  0  0  0  0999 V2000
   -3.6042   -3.5728    1.4576 H   0  0  0  0  0  0  0  0  0  0  0  0
   -3.5202   -2.6488    0.8866 C   0  0  0  0  0  0  0  0  0  0  0  0
   -4.2052   -1.9048    1.2896 H   0  0  0  0  0  0  0  0  0  0  0  0
   -3.7552   -2.8428   -0.1584 H   0  0  0  0  0  0  0  0  0  0  0  0
   -2.1052   -2.1358    0.9946 C   0  0  0  0  0  0  0  0  0  0  0  0
   -1.2852   -2.7288    1.6826 O   0  0  0  0  0  0  0  0  0  0  0  0
   -1.8202   -1.0288    0.3146 N   0  0  0  0  0  0  0  0  0  0  0  0
   -2.5542   -0.5788   -0.2104 H   0  0  0  0  0  0  0  0  0  0  0  0
   -0.5102   -0.3728    0.3086 C   0  0  1  0  0  0  0  0  0  0  0  0
    0.2354   -1.0844   -0.0490 H   0  0  0  0  0  0  0  0  0  0  0  0
   -0.5452    0.8158   -0.6698 C   0  0  0  0  0  0  0  0  0  0  0  0
   -0.8387    1.7164   -0.1276 H   0  0  0  0  0  0  0  0  0  0  0  0
    0.4576    0.9768   -1.0699 H   0  0  0  0  0  0  0  0  0  0  0  0
   -1.4943    0.6202   -1.8235 C   0  0  0  0  0  0  0  0  0  0  0  0
   -1.1472    0.3244   -3.1243 N   0  0  0  0  0  0  0  0  0  0  0  0
   -0.2094    0.2752   -3.4933 H   0  0  0  0  0  0  0  0  0  0  0  0
   -2.2783    0.1177   -3.8195 C   0  0  0  0  0  0  0  0  0  0  0  0
   -2.3295   -0.1279   -4.8732 H   0  0  0  0  0  0  0  0  0  0  0  0
   -3.3464    0.2551   -3.0203 N   0  0  0  0  0  0  0  0  0  0  0  0
   -2.8612    0.5786   -1.7504 C   0  0  0  0  0  0  0  0  0  0  0  0
   -3.4558    0.7326   -0.8593 H   0  0  0  0  0  0  0  0  0  0  0  0
   -0.1073    0.0565    1.7296 C   0  0  0  0  0  0  0  0  0  0  0  0
    1.0285   -0.1699    2.1459 O   0  0  0  0  0  0  0  0  0  0  0  0
   -1.0395    0.6588    2.4785 N   0  0  0  0  0  0  0  0  0  0  0  0
   -1.9636    0.7597    2.0849 H   0  0  0  0  0  0  0  0  0  0  0  0
   -0.8222    1.1334    3.8425 C   0  0  0  0  0  0  0  0  0  0  0  0
   -0.0212    1.8761    3.8521 H   0  0  0  0  0  0  0  0  0  0  0  0
   -1.7349    1.5853    4.2320 H   0  0  0  0  0  0  0  0  0  0  0  0
   -0.5312    0.2997    4.4834 H   0  0  0  0  0  0  0  0  0  0  0  0
  5  6  2  0  0  0  0
  5  7  1  0  0  0  0
  2  3  1  0  0  0  0
  2  4  1  0  0  0  0
  2  5  1  0  0  0  0
  1  2  1  0  0  0  0
 22 23  2  0  0  0  0
 22 24  1  0  0  0  0
 20 21  1  0  0  0  0
 19 20  1  0  0  0  0
 17 18  1  0  0  0  0
 17 19  2  0  0  0  0
 15 16  1  0  0  0  0
 15 17  1  0  0  0  0
 14 15  1  0  0  0  0
 14 20  2  0  0  0  0
 11 12  1  0  0  0  0
 11 13  1  0  0  0  0
 11 14  1  0  0  0  0
  9 10  1  0  0  0  0
  9 11  1  0  0  0  0
  9 22  1  0  0  0  0
  7  8  1  0  0  0  0
  7  9  1  0  0  0  0
 26 27  1  0  0  0  0
 26 28  1  0  0  0  0
 26 29  1  0  0  0  0
 24 25  1  0  0  0  0
 24 26  1  0  0  0  0
M  END
$$$$
default_name
  -OEChem-02102213163D

 29 29  0     1  0  0  0  0  0999 V2000
   -3.6042   -3.5728    1.4576 H   0  0  0  0  0  0  0  0  0  0  0  0
   -3.5202   -2.6488    0.8866 C   0  0  0  0  0  0  0  0  0  0  0  0
   -4.2052   -1.9048    1.2896 H   0  0  0  0  0  0  0  0  0  0  0  0
   -3.7552   -2.8428   -0.1584 H   0  0  0  0  0  0  0  0  0  0  0  0
   -2.1052   -2.1358    0.9946 C   0  0  0  0  0  0  0  0  0  0  0  0
   -1.2852   -2.7288    1.6826 O   0  0  0  0  0  0  0  0  0  0  0  0
   -1.8202   -1.0288    0.3146 N   0  0  0  0  0  0  0  0  0  0  0  0
   -2.5542   -0.5788   -0.2104 H   0  0  0  0  0  0  0  0  0  0  0  0
   -0.5102   -0.3728    0.3086 C   0  0  1  0  0  0  0  0  0  0  0  0
    0.2354   -1.0844   -0.0490 H   0  0  0  0  0  0  0  0  0  0  0  0
   -0.5452    0.8158   -0.6698 C   0  0  0  0  0  0  0  0  0  0  0  0
   -0.8387    1.7164   -0.1276 H   0  0  0  0  0  0  0  0  0  0  0  0
    0.4576    0.9768   -1.0699 H   0  0  0  0  0  0  0  0  0  0  0  0
   -1.4943    0.6202   -1.8235 C   0  0  0  0  0  0  0  0  0  0  0  0
   -1.1915    0.0500   -3.0414 N   0  0  0  0  0  0  0  0  0  0  0  0
   -0.2765   -0.2423   -3.3504 H   0  0  0  0  0  0  0  0  0  0  0  0
   -2.3290   -0.0444   -3.7504 C   0  0  0  0  0  0  0  0  0  0  0  0
   -2.4104   -0.4472   -4.7526 H   0  0  0  0  0  0  0  0  0  0  0  0
   -3.3611    0.4301   -3.0378 N   0  0  0  0  0  0  0  0  0  0  0  0
   -2.8427    0.8592   -1.8132 C   0  0  0  0  0  0  0  0  0  0  0  0
   -3.4095    1.2725   -0.9889 H   0  0  0  0  0  0  0  0  0  0  0  0
   -0.1073    0.0565    1.7296 C   0  0  0  0  0  0  0  0  0  0  0  0
    1.0285   -0.1699    2.1459 O   0  0  0  0  0  0  0  0  0  0  0  0
   -1.0395    0.6588    2.4785 N   0  0  0  0  0  0  0  0  0  0  0  0
   -1.9636    0.7597    2.0849 H   0  0  0  0  0  0  0  0  0  0  0  0
   -0.8222    1.1334    3.8425 C   0  0  0  0  0  0  0  0  0  0  0  0
   -0.0212    1.8761    3.8521 H   0  0  0  0  0  0  0  0  0  0  0  0
   -1.7349    1.5853    4.2320 H   0  0  0  0  0  0  0  0  0  0  0  0
   -0.5312    0.2997    4.4834 H   0  0  0  0  0  0  0  0  0  0  0  0
  5  6  2  0  0  0  0
  5  7  1  0  0  0  0
  2  3  1  0  0  0  0
  2  4  1  0  0  0  0
  2  5  1  0  0  0  0
  1  2  1  0  0  0  0
 22 23  2  0  0  0  0
 22 24  1  0  0  0  0
 20 21  1  0  0  0  0
 19 20  1  0  0  0  0
 17 18  1  0  0  0  0
 17 19  2  0  0  0  0
 15 16  1  0  0  0  0
 15 17  1  0  0  0  0
 14 15  1  0  0  0  0
 14 20  2  0  0  0  0
 11 12  1  0  0  0  0
 11 13  1  0  0  0  0
 11 14  1  0  0  0  0
  9 10  1  0  0  0  0
  9 11  1  0  0  0  0
  9 22  1  0  0  0  0
  7  8  1  0  0  0  0
  7  9  1  0  0  0  0
 26 27  1  0  0  0  0
 26 28  1  0  0  0  0
 26 29  1  0  0  0  0
 24 25  1  0  0  0  0
 24 26  1  0  0  0  0
M  END
$$$$
default_name
  -OEChem-02102213163D

 29 29  0     1  0  0  0  0  0999 V2000
   -3.6042   -3.5728    1.4576 H   0  0  0  0  0  0  0  0  0  0  0  0
   -3.5202   -2.6488    0.8866 C   0  0  0  0  0  0  0  0  0  0  0  0
   -4.2052   -1.9048    1.2896 H   0  0  0  0  0  0  0  0  0  0  0  0
   -3.7552   -2.8428   -0.1584 H   0  0  0  0  0  0  0  0  0  0  0  0
   -2.1052   -2.1358    0.9946 C   0  0  0  0  0  0  0  0  0  0  0  0
   -1.2852   -2.7288    1.6826 O   0  0  0  0  0  0  0  0  0  0  0  0
   -1.8202   -1.0288    0.3146 N   0  0  0  0  0  0  0  0  0  0  0  0
   -2.5542   -0.5788   -0.2104 H   0  0  0  0  0  0  0  0  0  0  0  0
   -0.5102   -0.3728    0.3086 C   0  0  1  0  0  0  0  0  0  0  0  0
    0.2354   -1.0844   -0.0490 H   0  0  0  0  0  0  0  0  0  0  0  0
   -0.5452    0.8158   -0.6698 C   0  0  0  0  0  0  0  0  0  0  0  0
   -0.8387    1.7164   -0.1276 H   0  0  0  0  0  0  0  0  0  0  0  0
    0.4576    0.9768   -1.0699 H   0  0  0  0  0  0  0  0  0  0  0  0
   -1.4943    0.6202   -1.8235 C   0  0  0  0  0  0  0  0  0  0  0  0
   -1.2914   -0.1928   -2.9180 N   0  0  0  0  0  0  0  0  0  0  0  0
   -0.4486   -0.7054   -3.1302 H   0  0  0  0  0  0  0  0  0  0  0  0
   -2.4123   -0.1798   -3.6589 C   0  0  0  0  0  0  0  0  0  0  0  0
   -2.5558   -0.7199   -4.5867 H   0  0  0  0  0  0  0  0  0  0  0  0
   -3.3401    0.5991   -3.0837 N   0  0  0  0  0  0  0  0  0  0  0  0
   -2.7671    1.1164   -1.9190 C   0  0  0  0  0  0  0  0  0  0  0  0
   -3.2533    1.7638   -1.2007 H   0  0  0  0  0  0  0  0  0  0  0  0
   -0.1073    0.0565    1.7296 C   0  0  0  0  0  0  0  0  0  0  0  0
    1.0285   -0.1699    2.1459 O   0  0  0  0  0  0  0  0  0  0  0  0
   -1.0395    0.6588    2.4785 N   0  0  0  0  0  0  0  0  0  0  0  0
   -1.9636    0.7597    2.0849 H   0  0  0  0  0  0  0  0  0  0  0  0
   -0.8222    1.1334    3.8425 C   0  0  0  0  0  0  0  0  0  0  0  0
   -0.0212    1.8761    3.8521 H   0  0  0  0  0  0  0  0  0  0  0  0
   -1.7349    1.5853    4.2320 H   0  0  0  0  0  0  0  0  0  0  0  0
   -0.5312    0.2997    4.4834 H   0  0  0  0  0  0  0  0  0  0  0  0
  5  6  2  0  0  0  0
  5  7  1  0  0  0  0
  2  3  1  0  0  0  0
  2  4  1  0  0  0  0
  2  5  1  0  0  0  0
  1  2  1  0  0  0  0
 22 23  2  0  0  0  0
 22 24  1  0  0  0  0
 20 21  1  0  0  0  0
 19 20  1  0  0  0  0
 17 18  1  0  0  0  0
 17 19  2  0  0  0  0
 15 16  1  0  0  0  0
 15 17  1  0  0  0  0
 14 15  1  0  0  0  0
 14 20  2  0  0  0  0
 11 12  1  0  0  0  0
 11 13  1  0  0  0  0
 11 14  1  0  0  0  0
  9 10  1  0  0  0  0
  9 11  1  0  0  0  0
  9 22  1  0  0  0  0
  7  8  1  0  0  0  0
  7  9  1  0  0  0  0
 26 27  1  0  0  0  0
 26 28  1  0  0  0  0
 26 29  1  0  0  0  0
 24 25  1  0  0  0  0
 24 26  1  0  0  0  0
M  END
$$$$
default_name
  -OEChem-02102213163D

 29 29  0     1  0  0  0  0  0999 V2000
   -3.6042   -3.5728    1.4576 H   0  0  0  0  0  0  0  0  0  0  0  0
   -3.5202   -2.6488    0.8866 C   0  0  0  0  0  0  0  0  0  0  0  0
   -4.2052   -1.9048    1.2896 H   0  0  0  0  0  0  0  0  0  0  0  0
   -3.7552   -2.8428   -0.1584 H   0  0  0  0  0  0  0  0  0  0  0  0
   -2.1052   -2.1358    0.9946 C   0  0  0  0  0  0  0  0  0  0  0  0
   -1.2852   -2.7288    1.6826 O   0  0  0  0  0  0  0  0  0  0  0  0
   -1.8202   -1.0288    0.3146 N   0  0  0  0  0  0  0  0  0  0  0  0
   -2.5542   -0.5788   -0.2104 H   0  0  0  0  0  0  0  0  0  0  0  0
   -0.5102   -0.3728    0.3086 C   0  0  1  0  0  0  0  0  0  0  0  0
    0.2354   -1.0844   -0.0490 H   0  0  0  0  0  0  0  0  0  0  0  0
   -0.5452    0.8158   -0.6698 C   0  0  0  0  0  0  0  0  0  0  0  0
   -0.8387    1.7164   -0.1276 H   0  0  0  0  0  0  0  0  0  0  0  0
    0.4576    0.9768   -1.0699 H   0  0  0  0  0  0  0  0  0  0  0  0
   -1.4943    0.6202   -1.8235 C   0  0  0  0  0  0  0  0  0  0  0  0
   -1.4402   -0.3873   -2.7627 N   0  0  0  0  0  0  0  0  0  0  0  0
   -0.7141   -1.0828   -2.8479 H   0  0  0  0  0  0  0  0  0  0  0  0
   -2.5227   -0.2790   -3.5512 C   0  0  0  0  0  0  0  0  0  0  0  0
   -2.7558   -0.9275   -4.3869 H   0  0  0  0  0  0  0  0  0  0  0  0
   -3.2848    0.7508   -3.1549 N   0  0  0  0  0  0  0  0  0  0  0  0
   -2.6396    1.3326   -2.0605 C   0  0  0  0  0  0  0  0  0  0  0  0
   -2.9980    2.1728   -1.4801 H   0  0  0  0  0  0  0  0  0  0  0  0
   -0.1073    0.0565    1.7296 C   0  0  0  0  0  0  0  0  0  0  0  0
    1.0285   -0.1699    2.1459 O   0  0  0  0  0  0  0  0  0  0  0  0
   -1.0395    0.6588    2.4785 N   0  0  0  0  0  0  0  0  0  0  0  0
   -1.9636    0.7597    2.0849 H   0  0  0  0  0  0  0  0  0  0  0  0
   -0.8222    1.1334    3.8425 C   0  0  0  0  0  0  0  0  0  0  0  0
   -0.0212    1.8761    3.8521 H   0  0  0  0  0  0  0  0  0  0  0  0
   -1.7349    1.5853    4.2320 H   0  0  0  0  0  0  0  0  0  0  0  0
   -0.5312    0.2997    4.4834 H   0  0  0  0  0  0  0  0  0  0  0  0
  5  6  2  0  0  0  0
  5  7  1  0  0  0  0
  2  3  1  0  0  0  0
  2  4  1  0  0  0  0
  2  5  1  0  0  0  0
  1  2  1  0  0  0  0
 22 23  2  0  0  0  0
 22 24  1  0  0  0  0
 20 21  1  0  0  0  0
 19 20  1  0  0  0  0
 17 18  1  0  0  0  0
 17 19  2  0  0  0  0
 15 16  1  0  0  0  0
 15 17  1  0  0  0  0
 14 15  1  0  0  0  0
 14 20  2  0  0  0  0
 11 12  1  0  0  0  0
 11 13  1  0  0  0  0
 11 14  1  0  0  0  0
  9 10  1  0  0  0  0
  9 11  1  0  0  0  0
  9 22  1  0  0  0  0
  7  8  1  0  0  0  0
  7  9  1  0  0  0  0
 26 27  1  0  0  0  0
 26 28  1  0  0  0  0
 26 29  1  0  0  0  0
 24 25  1  0  0  0  0
 24 26  1  0  0  0  0
M  END
$$$$
default_name
  -OEChem-02102213163D

 29 29  0     1  0  0  0  0  0999 V2000
   -3.6042   -3.5728    1.4576 H   0  0  0  0  0  0  0  0  0  0  0  0
   -3.5202   -2.6488    0.8866 C   0  0  0  0  0  0  0  0  0  0  0  0
   -4.2052   -1.9048    1.2896 H   0  0  0  0  0  0  0  0  0  0  0  0
   -3.7552   -2.8428   -0.1584 H   0  0  0  0  0  0  0  0  0  0  0  0
   -2.1052   -2.1358    0.9946 C   0  0  0  0  0  0  0  0  0  0  0  0
   -1.2852   -2.7288    1.6826 O   0  0  0  0  0  0  0  0  0  0  0  0
   -1.8202   -1.0288    0.3146 N   0  0  0  0  0  0  0  0  0  0  0  0
   -2.5542   -0.5788   -0.2104 H   0  0  0  0  0  0  0  0  0  0  0  0
   -0.5102   -0.3728    0.3086 C   0  0  1  0  0  0  0  0  0  0  0  0
    0.2354   -1.0844   -0.0490 H   0  0  0  0  0  0  0  0  0  0  0  0
   -0.5452    0.8158   -0.6698 C   0  0  0  0  0  0  0  0  0  0  0  0
   -0.8387    1.7164   -0.1276 H   0  0  0  0  0  0  0  0  0  0  0  0
    0.4576    0.9768   -1.0699 H   0  0  0  0  0  0  0  0  0  0  0  0
   -1.4943    0.6202   -1.8235 C   0  0  0  0  0  0  0  0  0  0  0  0
   -1.6276   -0.5205   -2.5859 N   0  0  0  0  0  0  0  0  0  0  0  0
   -1.0548   -1.3487   -2.5225 H   0  0  0  0  0  0  0  0  0  0  0  0
   -2.6526   -0.3355   -3.4347 C   0  0  0  0  0  0  0  0  0  0  0  0
   -2.9970   -1.0558   -4.1668 H   0  0  0  0  0  0  0  0  0  0  0  0
   -3.1989    0.8747   -3.2466 N   0  0  0  0  0  0  0  0  0  0  0  0
   -2.4689    1.4931   -2.2282 C   0  0  0  0  0  0  0  0  0  0  0  0
   -2.6610    2.4718   -1.8080 H   0  0  0  0  0  0  0  0  0  0  0  0
   -0.1073    0.0565    1.7296 C   0  0  0  0  0  0  0  0  0  0  0  0
    1.0285   -0.1699    2.1459 O   0  0  0  0  0  0  0  0  0  0  0  0
   -1.0395    0.6588    2.4785 N   0  0  0  0  0  0  0  0  0  0  0  0
   -1.9636    0.7597    2.0849 H   0  0  0  0  0  0  0  0  0  0  0  0
   -0.8222    1.1334    3.8425 C   0  0  0  0  0  0  0  0  0  0  0  0
   -0.0212    1.8761    3.8521 H   0  0  0  0  0  0  0  0  0  0  0  0
   -1.7349    1.5853    4.2320 H   0  0  0  0  0  0  0  0  0  0  0  0
   -0.5312    0.2997    4.4834 H   0  0  0  0  0  0  0  0  0  0  0  0
  5  6  2  0  0  0  0
  5  7  1  0  0  0  0
  2  3  1  0  0  0  0
  2  4  1  0  0  0  0
  2  5  1  0  0  0  0
  1  2  1  0  0  0  0
 22 23  2  0  0  0  0
 22 24  1  0  0  0  0
 20 21  1  0  0  0  0
 19 20  1  0  0  0  0
 17 18  1  0  0  0  0
 17 19  2  0  0  0  0
 15 16  1  0  0  0  0
 15 17  1  0  0  0  0
 14 15  1  0  0  0  0
 14 20  2  0  0  0  0
 11 12  1  0  0  0  0
 11 13  1  0  0  0  0
 11 14  1  0  0  0  0
  9 10  1  0  0  0  0
  9 11  1  0  0  0  0
  9 22  1  0  0  0  0
  7  8  1  0  0  0  0
  7  9  1  0  0  0  0
 26 27  1  0  0  0  0
 26 28  1  0  0  0  0
 26 29  1  0  0  0  0
 24 25  1  0  0  0  0
 24 26  1  0  0  0  0
M  END
$$$$
default_name
  -OEChem-02102213163D

 29 29  0     1  0  0  0  0  0999 V2000
   -3.6042   -3.5728    1.4576 H   0  0  0  0  0  0  0  0  0  0  0  0
   -3.5202   -2.6488    0.8866 C   0  0  0  0  0  0  0  0  0  0  0  0
   -4.2052   -1.9048    1.2896 H   0  0  0  0  0  0  0  0  0  0  0  0
   -3.7552   -2.8428   -0.1584 H   0  0  0  0  0  0  0  0  0  0  0  0
   -2.1052   -2.1358    0.9946 C   0  0  0  0  0  0  0  0  0  0  0  0
   -1.2852   -2.7288    1.6826 O   0  0  0  0  0  0  0  0  0  0  0  0
   -1.8202   -1.0288    0.3146 N   0  0  0  0  0  0  0  0  0  0  0  0
   -2.5542   -0.5788   -0.2104 H   0  0  0  0  0  0  0  0  0  0  0  0
   -0.5102   -0.3728    0.3086 C   0  0  1  0  0  0  0  0  0  0  0  0
    0.2354   -1.0844   -0.0490 H   0  0  0  0  0  0  0  0  0  0  0  0
   -0.5452    0.8158   -0.6698 C   0  0  0  0  0  0  0  0  0  0  0  0
   -0.8387    1.7164   -0.1276 H   0  0  0  0  0  0  0  0  0  0  0  0
    0.4576    0.9768   -1.0699 H   0  0  0  0  0  0  0  0  0  0  0  0
   -1.4943    0.6202   -1.8235 C   0  0  0  0  0  0  0  0  0  0  0  0
   -1.8411   -0.5831   -2.3997 N   0  0  0  0  0  0  0  0  0  0  0  0
   -1.4475   -1.4850   -2.1763 H   0  0  0  0  0  0  0  0  0  0  0  0
   -2.7932   -0.3453   -3.3174 C   0  0  0  0  0  0  0  0  0  0  0  0
   -3.2627   -1.0960   -3.9414 H   0  0  0  0  0  0  0  0  0  0  0  0
   -3.0883    0.9624   -3.3524 N   0  0  0  0  0  0  0  0  0  0  0  0
   -2.2665    1.5869   -2.4106 C   0  0  0  0  0  0  0  0  0  0  0  0
   -2.2652    2.6403   -2.1622 H   0  0  0  0  0  0  0  0  0  0  0  0
   -0.1073    0.0565    1.7296 C   0  0  0  0  0  0  0  0  0  0  0  0
    1.0285   -0.1699    2.1459 O   0  0  0  0  0  0  0  0  0  0  0  0
   -1.0395    0.6588    2.4785 N   0  0  0  0  0  0  0  0  0  0  0  0
   -1.9636    0.7597    2.0849 H   0  0  0  0  0  0  0  0  0  0  0  0
   -0.8222    1.1334    3.8425 C   0  0  0  0  0  0  0  0  0  0  0  0
   -0.0212    1.8761    3.8521 H   0  0  0  0  0  0  0  0  0  0  0  0
   -1.7349    1.5853    4.2320 H   0  0  0  0  0  0  0  0  0  0  0  0
   -0.5312    0.2997    4.4834 H   0  0  0  0  0  0  0  0  0  0  0  0
  5  6  2  0  0  0  0
  5  7  1  0  0  0  0
  2  3  1  0  0  0  0
  2  4  1  0  0  0  0
  2  5  1  0  0  0  0
  1  2  1  0  0  0  0
 22 23  2  0  0  0  0
 22 24  1  0  0  0  0
 20 21  1  0  0  0  0
 19 20  1  0  0  0  0
 17 18  1  0  0  0  0
 17 19  2  0  0  0  0
 15 16  1  0  0  0  0
 15 17  1  0  0  0  0
 14 15  1  0  0  0  0
 14 20  2  0  0  0  0
 11 12  1  0  0  0  0
 11 13  1  0  0  0  0
 11 14  1  0  0  0  0
  9 10  1  0  0  0  0
  9 11  1  0  0  0  0
  9 22  1  0  0  0  0
  7  8  1  0  0  0  0
  7  9  1  0  0  0  0
 26 27  1  0  0  0  0
 26 28  1  0  0  0  0
 26 29  1  0  0  0  0
 24 25  1  0  0  0  0
 24 26  1  0  0  0  0
M  END
$$$$
default_name
  -OEChem-02102213163D

 29 29  0     1  0  0  0  0  0999 V2000
   -3.6042   -3.5728    1.4576 H   0  0  0  0  0  0  0  0  0  0  0  0
   -3.5202   -2.6488    0.8866 C   0  0  0  0  0  0  0  0  0  0  0  0
   -4.2052   -1.9048    1.2896 H   0  0  0  0  0  0  0  0  0  0  0  0
   -3.7552   -2.8428   -0.1584 H   0  0  0  0  0  0  0  0  0  0  0  0
   -2.1052   -2.1358    0.9946 C   0  0  0  0  0  0  0  0  0  0  0  0
   -1.2852   -2.7288    1.6826 O   0  0  0  0  0  0  0  0  0  0  0  0
   -1.8202   -1.0288    0.3146 N   0  0  0  0  0  0  0  0  0  0  0  0
   -2.5542   -0.5788   -0.2104 H   0  0  0  0  0  0  0  0  0  0  0  0
   -0.5102   -0.3728    0.3086 C   0  0  1  0  0  0  0  0  0  0  0  0
    0.2354   -1.0844   -0.0490 H   0  0  0  0  0  0  0  0  0  0  0  0
   -0.5452    0.8158   -0.6698 C   0  0  0  0  0  0  0  0  0  0  0  0
   -0.8387    1.7164   -0.1276 H   0  0  0  0  0  0  0  0  0  0  0  0
    0.4576    0.9768   -1.0699 H   0  0  0  0  0  0  0  0  0  0  0  0
   -1.4943    0.6202   -1.8235 C   0  0  0  0  0  0  0  0  0  0  0  0
   -2.0659   -0.5709   -2.2168 N   0  0  0  0  0  0  0  0  0  0  0  0
   -1.8655   -1.4823   -1.8329 H   0  0  0  0  0  0  0  0  0  0  0  0
   -2.9349   -0.3078   -3.2072 C   0  0  0  0  0  0  0  0  0  0  0  0
   -3.5349   -1.0455   -3.7260 H   0  0  0  0  0  0  0  0  0  0  0  0
   -2.9605    1.0079   -3.4653 N   0  0  0  0  0  0  0  0  0  0  0  0
   -2.0462    1.6077   -2.5953 C   0  0  0  0  0  0  0  0  0  0  0  0
   -1.8375    2.6669   -2.5185 H   0  0  0  0  0  0  0  0  0  0  0  0
   -0.1073    0.0565    1.7296 C   0  0  0  0  0  0  0  0  0  0  0  0
    1.0285   -0.1699    2.1459 O   0  0  0  0  0  0  0  0  0  0  0  0
   -1.0395    0.6588    2.4785 N   0  0  0  0  0  0  0  0  0  0  0  0
   -1.9636    0.7597    2.0849 H   0  0  0  0  0  0  0  0  0  0  0  0
   -0.8222    1.1334    3.8425 C   0  0  0  0  0  0  0  0  0  0  0  0
   -0.0212    1.8761    3.8521 H   0  0  0  0  0  0  0  0  0  0  0  0
   -1.7349    1.5853    4.2320 H   0  0  0  0  0  0  0  0  0  0  0  0
   -0.5312    0.2997    4.4834 H   0  0  0  0  0  0  0  0  0  0  0  0
  5  6  2  0  0  0  0
  5  7  1  0  0  0  0
  2  3  1  0  0  0  0
  2  4  1  0  0  0  0
  2  5  1  0  0  0  0
  1  2  1  0  0  0  0
 22 23  2  0  0  0  0
 22 24  1  0  0  0  0
 20 21  1  0  0  0  0
 19 20  1  0  0  0  0
 17 18  1  0  0  0  0
 17 19  2  0  0  0  0
 15 16  1  0  0  0  0
 15 17  1  0  0  0  0
 14 15  1  0  0  0  0
 14 20  2  0  0  0  0
 11 12  1  0  0  0  0
 11 13  1  0  0  0  0
 11 14  1  0  0  0  0
  9 10  1  0  0  0  0
  9 11  1  0  0  0  0
  9 22  1  0  0  0  0
  7  8  1  0  0  0  0
  7  9  1  0  0  0  0
 26 27  1  0  0  0  0
 26 28  1  0  0  0  0
 26 29  1  0  0  0  0
 24 25  1  0  0  0  0
 24 26  1  0  0  0  0
M  END
$$$$
default_name
  -OEChem-02102213163D

 29 29  0     1  0  0  0  0  0999 V2000
   -3.6042   -3.5728    1.4576 H   0  0  0  0  0  0  0  0  0  0  0  0
   -3.5202   -2.6488    0.8866 C   0  0  0  0  0  0  0  0  0  0  0  0
   -4.2052   -1.9048    1.2896 H   0  0  0  0  0  0  0  0  0  0  0  0
   -3.7552   -2.8428   -0.1584 H   0  0  0  0  0  0  0  0  0  0  0  0
   -2.1052   -2.1358    0.9946 C   0  0  0  0  0  0  0  0  0  0  0  0
   -1.2852   -2.7288    1.6826 O   0  0  0  0  0  0  0  0  0  0  0  0
   -1.8202   -1.0288    0.3146 N   0  0  0  0  0  0  0  0  0  0  0  0
   -2.5542   -0.5788   -0.2104 H   0  0  0  0  0  0  0  0  0  0  0  0
   -0.5102   -0.3728    0.3086 C   0  0  1  0  0  0  0  0  0  0  0  0
    0.2354   -1.0844   -0.0490 H   0  0  0  0  0  0  0  0  0  0  0  0
   -0.5452    0.8158   -0.6698 C   0  0  0  0  0  0  0  0  0  0  0  0
   -0.8387    1.7164   -0.1276 H   0  0  0  0  0  0  0  0  0  0  0  0
    0.4576    0.9768   -1.0699 H   0  0  0  0  0  0  0  0  0  0  0  0
   -1.4943    0.6202   -1.8235 C   0  0  0  0  0  0  0  0  0  0  0  0
   -2.2867   -0.4848   -2.0497 N   0  0  0  0  0  0  0  0  0  0  0  0
   -2.2803   -1.3409   -1.5156 H   0  0  0  0  0  0  0  0  0  0  0  0
   -3.0681   -0.2255   -3.1116 C   0  0  0  0  0  0  0  0  0  0  0  0
   -3.7950   -0.9076   -3.5353 H   0  0  0  0  0  0  0  0  0  0  0  0
   -2.8243    1.0082   -3.5774 N   0  0  0  0  0  0  0  0  0  0  0  0
   -1.8232    1.5540   -2.7697 C   0  0  0  0  0  0  0  0  0  0  0  0
   -1.4072    2.5497   -2.8527 H   0  0  0  0  0  0  0  0  0  0  0  0
   -0.1073    0.0565    1.7296 C   0  0  0  0  0  0  0  0  0  0  0  0
    1.0285   -0.1699    2.1459 O   0  0  0  0  0  0  0  0  0  0  0  0
   -1.0395    0.6588    2.4785 N   0  0  0  0  0  0  0  0  0  0  0  0
   -1.9636    0.7597    2.0849 H   0  0  0  0  0  0  0  0  0  0  0  0
   -0.8222    1.1334    3.8425 C   0  0  0  0  0  0  0  0  0  0  0  0
   -0.0212    1.8761    3.8521 H   0  0  0  0  0  0  0  0  0  0  0  0
   -1.7349    1.5853    4.2320 H   0  0  0  0  0  0  0  0  0  0  0  0
   -0.5312    0.2997    4.4834 H   0  0  0  0  0  0  0  0  0  0  0  0
  5  6  2  0  0  0  0
  5  7  1  0  0  0  0
  2  3  1  0  0  0  0
  2  4  1  0  0  0  0
  2  5  1  0  0  0  0
  1  2  1  0  0  0  0
 22 23  2  0  0  0  0
 22 24  1  0  0  0  0
 20 21  1  0  0  0  0
 19 20  1  0  0  0  0
 17 18  1  0  0  0  0
 17 19  2  0  0  0  0
 15 16  1  0  0  0  0
 15 17  1  0  0  0  0
 14 15  1  0  0  0  0
 14 20  2  0  0  0  0
 11 12  1  0  0  0  0
 11 13  1  0  0  0  0
 11 14  1  0  0  0  0
  9 10  1  0  0  0  0
  9 11  1  0  0  0  0
  9 22  1  0  0  0  0
  7  8  1  0  0  0  0
  7  9  1  0  0  0  0
 26 27  1  0  0  0  0
 26 28  1  0  0  0  0
 26 29  1  0  0  0  0
 24 25  1  0  0  0  0
 24 26  1  0  0  0  0
M  END
$$$$
default_name
  -OEChem-02102213163D

 29 29  0     1  0  0  0  0  0999 V2000
   -3.6042   -3.5728    1.4576 H   0  0  0  0  0  0  0  0  0  0  0  0
   -3.5202   -2.6488    0.8866 C   0  0  0  0  0  0  0  0  0  0  0  0
   -4.2052   -1.9048    1.2896 H   0  0  0  0  0  0  0  0  0  0  0  0
   -3.7552   -2.8428   -0.1584 H   0  0  0  0  0  0  0  0  0  0  0  0
   -2.1052   -2.1358    0.9946 C   0  0  0  0  0  0  0  0  0  0  0  0
   -1.2852   -2.7288    1.6826 O   0  0  0  0  0  0  0  0  0  0  0  0
   -1.8202   -1.0288    0.3146 N   0  0  0  0  0  0  0  0  0  0  0  0
   -2.5542   -0.5788   -0.2104 H   0  0  0  0  0  0  0  0  0  0  0  0
   -0.5102   -0.3728    0.3086 C   0  0  1  0  0  0  0  0  0  0  0  0
    0.2354   -1.0844   -0.0490 H   0  0  0  0  0  0  0  0  0  0  0  0
   -0.5452    0.8158   -0.6698 C   0  0  0  0  0  0  0  0  0  0  0  0
   -0.8387    1.7164   -0.1276 H   0  0  0  0  0  0  0  0  0  0  0  0
    0.4576    0.9768   -1.0699 H   0  0  0  0  0  0  0  0  0  0  0  0
   -1.4943    0.6202   -1.8235 C   0  0  0  0  0  0  0  0  0  0  0  0
   -2.4886   -0.3306   -1.9097 N   0  0  0  0  0  0  0  0  0  0  0  0
   -2.6635   -1.0704   -1.2462 H   0  0  0  0  0  0  0  0  0  0  0  0
   -3.1836   -0.1040   -3.0372 C   0  0  0  0  0  0  0  0  0  0  0  0
   -4.0254   -0.6917   -3.3824 H   0  0  0  0  0  0  0  0  0  0  0  0
   -2.6889    0.9631   -3.6812 N   0  0  0  0  0  0  0  0  0  0  0  0
   -1.6125    1.4295   -2.9219 C   0  0  0  0  0  0  0  0  0  0  0  0
   -1.0036    2.2968   -3.1419 H   0  0  0  0  0  0  0  0  0  0  0  0
   -0.1073    0.0565    1.7296 C   0  0  0  0  0  0  0  0  0  0  0  0
    1.0285   -0.1699    2.1459 O   0  0  0  0  0  0  0  0  0  0  0  0
   -1.0395    0.6588    2.4785 N   0  0  0  0  0  0  0  0  0  0  0  0
   -1.9636    0.7597    2.0849 H   0  0  0  0  0  0  0  0  0  0  0  0
   -0.8222    1.1334    3.8425 C   0  0  0  0  0  0  0  0  0  0  0  0
   -0.0212    1.8761    3.8521 H   0  0  0  0  0  0  0  0  0  0  0  0
   -1.7349    1.5853    4.2320 H   0  0  0  0  0  0  0  0  0  0  0  0
   -0.5312    0.2997    4.4834 H   0  0  0  0  0  0  0  0  0  0  0  0
  5  6  2  0  0  0  0
  5  7  1  0  0  0  0
  2  3  1  0  0  0  0
  2  4  1  0  0  0  0
  2  5  1  0  0  0  0
  1  2  1  0  0  0  0
 22 23  2  0  0  0  0
 22 24  1  0  0  0  0
 20 21  1  0  0  0  0
 19 20  1  0  0  0  0
 17 18  1  0  0  0  0
 17 19  2  0  0  0  0
 15 16  1  0  0  0  0
 15 17  1  0  0  0  0
 14 15  1  0  0  0  0
 14 20  2  0  0  0  0
 11 12  1  0  0  0  0
 11 13  1  0  0  0  0
 11 14  1  0  0  0  0
  9 10  1  0  0  0  0
  9 11  1  0  0  0  0
  9 22  1  0  0  0  0
  7  8  1  0  0  0  0
  7  9  1  0  0  0  0
 26 27  1  0  0  0  0
 26 28  1  0  0  0  0
 26 29  1  0  0  0  0
 24 25  1  0  0  0  0
 24 26  1  0  0  0  0
M  END
$$$$
default_name
  -OEChem-02102213163D

 29 29  0     1  0  0  0  0  0999 V2000
   -3.6042   -3.5728    1.4576 H   0  0  0  0  0  0  0  0  0  0  0  0
   -3.5202   -2.6488    0.8866 C   0  0  0  0  0  0  0  0  0  0  0  0
   -4.2052   -1.9048    1.2896 H   0  0  0  0  0  0  0  0  0  0  0  0
   -3.7552   -2.8428   -0.1584 H   0  0  0  0  0  0  0  0  0  0  0  0
   -2.1052   -2.1358    0.9946 C   0  0  0  0  0  0  0  0  0  0  0  0
   -1.2852   -2.7288    1.6826 O   0  0  0  0  0  0  0  0  0  0  0  0
   -1.8202   -1.0288    0.3146 N   0  0  0  0  0  0  0  0  0  0  0  0
   -2.5542   -0.5788   -0.2104 H   0  0  0  0  0  0  0  0  0  0  0  0
   -0.5102   -0.3728    0.3086 C   0  0  1  0  0  0  0  0  0  0  0  0
    0.2354   -1.0844   -0.0490 H   0  0  0  0  0  0  0  0  0  0  0  0
   -0.5452    0.8158   -0.6698 C   0  0  0  0  0  0  0  0  0  0  0  0
   -0.8387    1.7164   -0.1276 H   0  0  0  0  0  0  0  0  0  0  0  0
    0.4576    0.9768   -1.0699 H   0  0  0  0  0  0  0  0  0  0  0  0
   -1.4943    0.6202   -1.8235 C   0  0  0  0  0  0  0  0  0  0  0  0
   -2.6578   -0.1188   -1.8065 N   0  0  0  0  0  0  0  0  0  0  0  0
   -2.9891   -0.6892   -1.0429 H   0  0  0  0  0  0  0  0  0  0  0  0
   -3.2736    0.0483   -2.9890 C   0  0  0  0  0  0  0  0  0  0  0  0
   -4.2103   -0.4127   -3.2776 H   0  0  0  0  0  0  0  0  0  0  0  0
   -2.5636    0.8759   -3.7695 N   0  0  0  0  0  0  0  0  0  0  0  0
   -1.4286    1.2427   -3.0415 C   0  0  0  0  0  0  0  0  0  0  0  0
   -0.6541    1.9253   -3.3664 H   0  0  0  0  0  0  0  0  0  0  0  0
   -0.1073    0.0565    1.7296 C   0  0  0  0  0  0  0  0  0  0  0  0
    1.0285   -0.1699    2.1459 O   0  0  0  0  0  0  0  0  0  0  0  0
   -1.0395    0.6588    2.4785 N   0  0  0  0  0  0  0  0  0  0  0  0
   -1.9636    0.7597    2.0849 H   0  0  0  0  0  0  0  0  0  0  0  0
   -0.8222    1.1334    3.8425 C   0  0  0  0  0  0  0  0  0  0  0  0
   -0.0212    1.8761    3.8521 H   0  0  0  0  0  0  0  0  0  0  0  0
   -1.7349    1.5853    4.2320 H   0  0  0  0  0  0  0  0  0  0  0  0
   -0.5312    0.2997    4.4834 H   0  0  0  0  0  0  0  0  0  0  0  0
  5  6  2  0  0  0  0
  5  7  1  0  0  0  0
  2  3  1  0  0  0  0
  2  4  1  0  0  0  0
  2  5  1  0  0  0  0
  1  2  1  0  0  0  0
 22 23  2  0  0  0  0
 22 24  1  0  0  0  0
 20 21  1  0  0  0  0
 19 20  1  0  0  0  0
 17 18  1  0  0  0  0
 17 19  2  0  0  0  0
 15 16  1  0  0  0  0
 15 17  1  0  0  0  0
 14 15  1  0  0  0  0
 14 20  2  0  0  0  0
 11 12  1  0  0  0  0
 11 13  1  0  0  0  0
 11 14  1  0  0  0  0
  9 10  1  0  0  0  0
  9 11  1  0  0  0  0
  9 22  1  0  0  0  0
  7  8  1  0  0  0  0
  7  9  1  0  0  0  0
 26 27  1  0  0  0  0
 26 28  1  0  0  0  0
 26 29  1  0  0  0  0
 24 25  1  0  0  0  0
 24 26  1  0  0  0  0
M  END
$$$$
default_name
  -OEChem-02102213163D

 29 29  0     1  0  0  0  0  0999 V2000
   -3.6042   -3.5728    1.4576 H   0  0  0  0  0  0  0  0  0  0  0  0
   -3.5202   -2.6488    0.8866 C   0  0  0  0  0  0  0  0  0  0  0  0
   -4.2052   -1.9048    1.2896 H   0  0  0  0  0  0  0  0  0  0  0  0
   -3.7552   -2.8428   -0.1584 H   0  0  0  0  0  0  0  0  0  0  0  0
   -2.1052   -2.1358    0.9946 C   0  0  0  0  0  0  0  0  0  0  0  0
   -1.2852   -2.7288    1.6826 O   0  0  0  0  0  0  0  0  0  0  0  0
   -1.8202   -1.0288    0.3146 N   0  0  0  0  0  0  0  0  0  0  0  0
   -2.5542   -0.5788   -0.2104 H   0  0  0  0  0  0  0  0  0  0  0  0
   -0.5102   -0.3728    0.3086 C   0  0  1  0  0  0  0  0  0  0  0  0
    0.2354   -1.0844   -0.0490 H   0  0  0  0  0  0  0  0  0  0  0  0
   -0.5452    0.8158   -0.6698 C   0  0  0  0  0  0  0  0  0  0  0  0
   -0.8387    1.7164   -0.1276 H   0  0  0  0  0  0  0  0  0  0  0  0
    0.4576    0.9768   -1.0699 H   0  0  0  0  0  0  0  0  0  0  0  0
   -1.4943    0.6202   -1.8235 C   0  0  0  0  0  0  0  0  0  0  0  0
   -2.7827    0.1361   -1.7469 N   0  0  0  0  0  0  0  0  0  0  0  0
   -3.2350   -0.2234   -0.9197 H   0  0  0  0  0  0  0  0  0  0  0  0
   -3.3320    0.2212   -2.9703 C   0  0  0  0  0  0  0  0  0  0  0  0
   -4.3371   -0.0894   -3.2281 H   0  0  0  0  0  0  0  0  0  0  0  0
   -2.4568    0.7524   -3.8364 N   0  0  0  0  0  0  0  0  0  0  0  0
   -1.2840    1.0063   -3.1205 C   0  0  0  0  0  0  0  0  0  0  0  0
   -0.3826    1.4607   -3.5110 H   0  0  0  0  0  0  0  0  0  0  0  0
   -0.1073    0.0565    1.7296 C   0  0  0  0  0  0  0  0  0  0  0  0
    1.0285   -0.1699    2.1459 O   0  0  0  0  0  0  0  0  0  0  0  0
   -1.0395    0.6588    2.4785 N   0  0  0  0  0  0  0  0  0  0  0  0
   -1.9636    0.7597    2.0849 H   0  0  0  0  0  0  0  0  0  0  0  0
   -0.8222    1.1334    3.8425 C   0  0  0  0  0  0  0  0  0  0  0  0
   -0.0212    1.8761    3.8521 H   0  0  0  0  0  0  0  0  0  0  0  0
   -1.7349    1.5853    4.2320 H   0  0  0  0  0  0  0  0  0  0  0  0
   -0.5312    0.2997    4.4834 H   0  0  0  0  0  0  0  0  0  0  0  0
  5  6  2  0  0  0  0
  5  7  1  0  0  0  0
  2  3  1  0  0  0  0
  2  4  1  0  0  0  0
  2  5  1  0  0  0  0
  1  2  1  0  0  0  0
 22 23  2  0  0  0  0
 22 24  1  0  0  0  0
 20 21  1  0  0  0  0
 19 20  1  0  0  0  0
 17 18  1  0  0  0  0
 17 19  2  0  0  0  0
 15 16  1  0  0  0  0
 15 17  1  0  0  0  0
 14 15  1  0  0  0  0
 14 20  2  0  0  0  0
 11 12  1  0  0  0  0
 11 13  1  0  0  0  0
 11 14  1  0  0  0  0
  9 10  1  0  0  0  0
  9 11  1  0  0  0  0
  9 22  1  0  0  0  0
  7  8  1  0  0  0  0
  7  9  1  0  0  0  0
 26 27  1  0  0  0  0
 26 28  1  0  0  0  0
 26 29  1  0  0  0  0
 24 25  1  0  0  0  0
 24 26  1  0  0  0  0
M  END
$$$$
default_name
  -OEChem-02102213163D

 29 29  0     1  0  0  0  0  0999 V2000
   -3.6042   -3.5728    1.4576 H   0  0  0  0  0  0  0  0  0  0  0  0
   -3.5202   -2.6488    0.8866 C   0  0  0  0  0  0  0  0  0  0  0  0
   -4.2052   -1.9048    1.2896 H   0  0  0  0  0  0  0  0  0  0  0  0
   -3.7552   -2.8428   -0.1584 H   0  0  0  0  0  0  0  0  0  0  0  0
   -2.1052   -2.1358    0.9946 C   0  0  0  0  0  0  0  0  0  0  0  0
   -1.2852   -2.7288    1.6826 O   0  0  0  0  0  0  0  0  0  0  0  0
   -1.8202   -1.0288    0.3146 N   0  0  0  0  0  0  0  0  0  0  0  0
   -2.5542   -0.5788   -0.2104 H   0  0  0  0  0  0  0  0  0  0  0  0
   -0.5102   -0.3728    0.3086 C   0  0  1  0  0  0  0  0  0  0  0  0
    0.2354   -1.0844   -0.0490 H   0  0  0  0  0  0  0  0  0  0  0  0
   -0.5452    0.8158   -0.6698 C   0  0  0  0  0  0  0  0  0  0  0  0
   -0.8387    1.7164   -0.1276 H   0  0  0  0  0  0  0  0  0  0  0  0
    0.4576    0.9768   -1.0699 H   0  0  0  0  0  0  0  0  0  0  0  0
   -1.4943    0.6202   -1.8235 C   0  0  0  0  0  0  0  0  0  0  0  0
   -2.8548    0.4169   -1.7352 N   0  0  0  0  0  0  0  0  0  0  0  0
   -3.3842    0.2954   -0.8848 H   0  0  0  0  0  0  0  0  0  0  0  0
   -3.3547    0.4028   -2.9823 C   0  0  0  0  0  0  0  0  0  0  0  0
   -4.3972    0.2561   -3.2373 H   0  0  0  0  0  0  0  0  0  0  0  0
   -2.3759    0.6010   -3.8773 N   0  0  0  0  0  0  0  0  0  0  0  0
   -1.1885    0.7364   -3.1533 C   0  0  0  0  0  0  0  0  0  0  0  0
   -0.2076    0.9344   -3.5657 H   0  0  0  0  0  0  0  0  0  0  0  0
   -0.1073    0.0565    1.7296 C   0  0  0  0  0  0  0  0  0  0  0  0
    1.0285   -0.1699    2.1459 O   0  0  0  0  0  0  0  0  0  0  0  0
   -1.0395    0.6588    2.4785 N   0  0  0  0  0  0  0  0  0  0  0  0
   -1.9636    0.7597    2.0849 H   0  0  0  0  0  0  0  0  0  0  0  0
   -0.8222    1.1334    3.8425 C   0  0  0  0  0  0  0  0  0  0  0  0
   -0.0212    1.8761    3.8521 H   0  0  0  0  0  0  0  0  0  0  0  0
   -1.7349    1.5853    4.2320 H   0  0  0  0  0  0  0  0  0  0  0  0
   -0.5312    0.2997    4.4834 H   0  0  0  0  0  0  0  0  0  0  0  0
  5  6  2  0  0  0  0
  5  7  1  0  0  0  0
  2  3  1  0  0  0  0
  2  4  1  0  0  0  0
  2  5  1  0  0  0  0
  1  2  1  0  0  0  0
 22 23  2  0  0  0  0
 22 24  1  0  0  0  0
 20 21  1  0  0  0  0
 19 20  1  0  0  0  0
 17 18  1  0  0  0  0
 17 19  2  0  0  0  0
 15 16  1  0  0  0  0
 15 17  1  0  0  0  0
 14 15  1  0  0  0  0
 14 20  2  0  0  0  0
 11 12  1  0  0  0  0
 11 13  1  0  0  0  0
 11 14  1  0  0  0  0
  9 10  1  0  0  0  0
  9 11  1  0  0  0  0
  9 22  1  0  0  0  0
  7  8  1  0  0  0  0
  7  9  1  0  0  0  0
 26 27  1  0  0  0  0
 26 28  1  0  0  0  0
 26 29  1  0  0  0  0
 24 25  1  0  0  0  0
 24 26  1  0  0  0  0
M  END
$$$$
default_name
  -OEChem-02102213163D

 29 29  0     1  0  0  0  0  0999 V2000
   -3.6042   -3.5728    1.4576 H   0  0  0  0  0  0  0  0  0  0  0  0
   -3.5202   -2.6488    0.8866 C   0  0  0  0  0  0  0  0  0  0  0  0
   -4.2052   -1.9048    1.2896 H   0  0  0  0  0  0  0  0  0  0  0  0
   -3.7552   -2.8428   -0.1584 H   0  0  0  0  0  0  0  0  0  0  0  0
   -2.1052   -2.1358    0.9946 C   0  0  0  0  0  0  0  0  0  0  0  0
   -1.2852   -2.7288    1.6826 O   0  0  0  0  0  0  0  0  0  0  0  0
   -1.8202   -1.0288    0.3146 N   0  0  0  0  0  0  0  0  0  0  0  0
   -2.5542   -0.5788   -0.2104 H   0  0  0  0  0  0  0  0  0  0  0  0
   -0.5102   -0.3728    0.3086 C   0  0  1  0  0  0  0  0  0  0  0  0
    0.2354   -1.0844   -0.0490 H   0  0  0  0  0  0  0  0  0  0  0  0
   -0.5452    0.8158   -0.6698 C   0  0  0  0  0  0  0  0  0  0  0  0
   -0.8387    1.7164   -0.1276 H   0  0  0  0  0  0  0  0  0  0  0  0
    0.4576    0.9768   -1.0699 H   0  0  0  0  0  0  0  0  0  0  0  0
   -1.4943    0.6202   -1.8235 C   0  0  0  0  0  0  0  0  0  0  0  0
   -2.8692    0.7042   -1.7721 N   0  0  0  0  0  0  0  0  0  0  0  0
   -3.4268    0.8318   -0.9408 H   0  0  0  0  0  0  0  0  0  0  0  0
   -3.3403    0.5807   -3.0244 C   0  0  0  0  0  0  0  0  0  0  0  0
   -4.3864    0.6002   -3.3045 H   0  0  0  0  0  0  0  0  0  0  0  0
   -2.3264    0.4321   -3.8894 N   0  0  0  0  0  0  0  0  0  0  0  0
   -1.1486    0.4514   -3.1378 C   0  0  0  0  0  0  0  0  0  0  0  0
   -0.1410    0.3825   -3.5270 H   0  0  0  0  0  0  0  0  0  0  0  0
   -0.1073    0.0565    1.7296 C   0  0  0  0  0  0  0  0  0  0  0  0
    1.0285   -0.1699    2.1459 O   0  0  0  0  0  0  0  0  0  0  0  0
   -1.0395    0.6588    2.4785 N   0  0  0  0  0  0  0  0  0  0  0  0
   -1.9636    0.7597    2.0849 H   0  0  0  0  0  0  0  0  0  0  0  0
   -0.8222    1.1334    3.8425 C   0  0  0  0  0  0  0  0  0  0  0  0
   -0.0212    1.8761    3.8521 H   0  0  0  0  0  0  0  0  0  0  0  0
   -1.7349    1.5853    4.2320 H   0  0  0  0  0  0  0  0  0  0  0  0
   -0.5312    0.2997    4.4834 H   0  0  0  0  0  0  0  0  0  0  0  0
  5  6  2  0  0  0  0
  5  7  1  0  0  0  0
  2  3  1  0  0  0  0
  2  4  1  0  0  0  0
  2  5  1  0  0  0  0
  1  2  1  0  0  0  0
 22 23  2  0  0  0  0
 22 24  1  0  0  0  0
 20 21  1  0  0  0  0
 19 20  1  0  0  0  0
 17 18  1  0  0  0  0
 17 19  2  0  0  0  0
 15 16  1  0  0  0  0
 15 17  1  0  0  0  0
 14 15  1  0  0  0  0
 14 20  2  0  0  0  0
 11 12  1  0  0  0  0
 11 13  1  0  0  0  0
 11 14  1  0  0  0  0
  9 10  1  0  0  0  0
  9 11  1  0  0  0  0
  9 22  1  0  0  0  0
  7  8  1  0  0  0  0
  7  9  1  0  0  0  0
 26 27  1  0  0  0  0
 26 28  1  0  0  0  0
 26 29  1  0  0  0  0
 24 25  1  0  0  0  0
 24 26  1  0  0  0  0
M  END
$$$$
default_name
  -OEChem-02102213163D

 29 29  0     1  0  0  0  0  0999 V2000
   -3.6042   -3.5728    1.4576 H   0  0  0  0  0  0  0  0  0  0  0  0
   -3.5202   -2.6488    0.8866 C   0  0  0  0  0  0  0  0  0  0  0  0
   -4.2052   -1.9048    1.2896 H   0  0  0  0  0  0  0  0  0  0  0  0
   -3.7552   -2.8428   -0.1584 H   0  0  0  0  0  0  0  0  0  0  0  0
   -2.1052   -2.1358    0.9946 C   0  0  0  0  0  0  0  0  0  0  0  0
   -1.2852   -2.7288    1.6826 O   0  0  0  0  0  0  0  0  0  0  0  0
   -1.8202   -1.0288    0.3146 N   0  0  0  0  0  0  0  0  0  0  0  0
   -2.5542   -0.5788   -0.2104 H   0  0  0  0  0  0  0  0  0  0  0  0
   -0.5102   -0.3728    0.3086 C   0  0  1  0  0  0  0  0  0  0  0  0
    0.2354   -1.0844   -0.0490 H   0  0  0  0  0  0  0  0  0  0  0  0
   -0.5452    0.8158   -0.6698 C   0  0  0  0  0  0  0  0  0  0  0  0
   -0.8387    1.7164   -0.1276 H   0  0  0  0  0  0  0  0  0  0  0  0
    0.4576    0.9768   -1.0699 H   0  0  0  0  0  0  0  0  0  0  0  0
   -1.4943    0.6202   -1.8235 C   0  0  0  0  0  0  0  0  0  0  0  0
   -2.8250    0.9786   -1.8550 N   0  0  0  0  0  0  0  0  0  0  0  0
   -3.3597    1.3492   -1.0837 H   0  0  0  0  0  0  0  0  0  0  0  0
   -3.2897    0.7428   -3.0935 C   0  0  0  0  0  0  0  0  0  0  0  0
   -4.3056    0.9195   -3.4251 H   0  0  0  0  0  0  0  0  0  0  0  0
   -2.3116    0.2572   -3.8719 N   0  0  0  0  0  0  0  0  0  0  0  0
   -1.1670    0.1708   -3.0750 C   0  0  0  0  0  0  0  0  0  0  0  0
   -0.1873   -0.1574   -3.3973 H   0  0  0  0  0  0  0  0  0  0  0  0
   -0.1073    0.0565    1.7296 C   0  0  0  0  0  0  0  0  0  0  0  0
    1.0285   -0.1699    2.1459 O   0  0  0  0  0  0  0  0  0  0  0  0
   -1.0395    0.6588    2.4785 N   0  0  0  0  0  0  0  0  0  0  0  0
   -1.9636    0.7597    2.0849 H   0  0  0  0  0  0  0  0  0  0  0  0
   -0.8222    1.1334    3.8425 C   0  0  0  0  0  0  0  0  0  0  0  0
   -0.0212    1.8761    3.8521 H   0  0  0  0  0  0  0  0  0  0  0  0
   -1.7349    1.5853    4.2320 H   0  0  0  0  0  0  0  0  0  0  0  0
   -0.5312    0.2997    4.4834 H   0  0  0  0  0  0  0  0  0  0  0  0
  5  6  2  0  0  0  0
  5  7  1  0  0  0  0
  2  3  1  0  0  0  0
  2  4  1  0  0  0  0
  2  5  1  0  0  0  0
  1  2  1  0  0  0  0
 22 23  2  0  0  0  0
 22 24  1  0  0  0  0
 20 21  1  0  0  0  0
 19 20  1  0  0  0  0
 17 18  1  0  0  0  0
 17 19  2  0  0  0  0
 15 16  1  0  0  0  0
 15 17  1  0  0  0  0
 14 15  1  0  0  0  0
 14 20  2  0  0  0  0
 11 12  1  0  0  0  0
 11 13  1  0  0  0  0
 11 14  1  0  0  0  0
  9 10  1  0  0  0  0
  9 11  1  0  0  0  0
  9 22  1  0  0  0  0
  7  8  1  0  0  0  0
  7  9  1  0  0  0  0
 26 27  1  0  0  0  0
 26 28  1  0  0  0  0
 26 29  1  0  0  0  0
 24 25  1  0  0  0  0
 24 26  1  0  0  0  0
M  END
$$$$
default_name
  -OEChem-02102213163D

 29 29  0     1  0  0  0  0  0999 V2000
   -3.6042   -3.5728    1.4576 H   0  0  0  0  0  0  0  0  0  0  0  0
   -3.5202   -2.6488    0.8866 C   0  0  0  0  0  0  0  0  0  0  0  0
   -4.2052   -1.9048    1.2896 H   0  0  0  0  0  0  0  0  0  0  0  0
   -3.7552   -2.8428   -0.1584 H   0  0  0  0  0  0  0  0  0  0  0  0
   -2.1052   -2.1358    0.9946 C   0  0  0  0  0  0  0  0  0  0  0  0
   -1.2852   -2.7288    1.6826 O   0  0  0  0  0  0  0  0  0  0  0  0
   -1.8202   -1.0288    0.3146 N   0  0  0  0  0  0  0  0  0  0  0  0
   -2.5542   -0.5788   -0.2104 H   0  0  0  0  0  0  0  0  0  0  0  0
   -0.5102   -0.3728    0.3086 C   0  0  1  0  0  0  0  0  0  0  0  0
    0.2354   -1.0844   -0.0490 H   0  0  0  0  0  0  0  0  0  0  0  0
   -0.5452    0.8158   -0.6698 C   0  0  0  0  0  0  0  0  0  0  0  0
   -0.8387    1.7164   -0.1276 H   0  0  0  0  0  0  0  0  0  0  0  0
    0.4576    0.9768   -1.0699 H   0  0  0  0  0  0  0  0  0  0  0  0
   -1.4943    0.6202   -1.8235 C   0  0  0  0  0  0  0  0  0  0  0  0
   -2.7251    1.2214   -1.9783 N   0  0  0  0  0  0  0  0  0  0  0  0
   -3.1875    1.8124   -1.3039 H   0  0  0  0  0  0  0  0  0  0  0  0
   -3.2063    0.8782   -3.1850 C   0  0  0  0  0  0  0  0  0  0  0  0
   -4.1602    1.1922   -3.5910 H   0  0  0  0  0  0  0  0  0  0  0  0
   -2.3326    0.0881   -3.8259 N   0  0  0  0  0  0  0  0  0  0  0  0
   -1.2426   -0.0864   -2.9692 C   0  0  0  0  0  0  0  0  0  0  0  0
   -0.3435   -0.6487   -3.1856 H   0  0  0  0  0  0  0  0  0  0  0  0
   -0.1073    0.0565    1.7296 C   0  0  0  0  0  0  0  0  0  0  0  0
    1.0285   -0.1699    2.1459 O   0  0  0  0  0  0  0  0  0  0  0  0
   -1.0395    0.6588    2.4785 N   0  0  0  0  0  0  0  0  0  0  0  0
   -1.9636    0.7597    2.0849 H   0  0  0  0  0  0  0  0  0  0  0  0
   -0.8222    1.1334    3.8425 C   0  0  0  0  0  0  0  0  0  0  0  0
   -0.0212    1.8761    3.8521 H   0  0  0  0  0  0  0  0  0  0  0  0
   -1.7349    1.5853    4.2320 H   0  0  0  0  0  0  0  0  0  0  0  0
   -0.5312    0.2997    4.4834 H   0  0  0  0  0  0  0  0  0  0  0  0
  5  6  2  0  0  0  0
  5  7  1  0  0  0  0
  2  3  1  0  0  0  0
  2  4  1  0  0  0  0
  2  5  1  0  0  0  0
  1  2  1  0  0  0  0
 22 23  2  0  0  0  0
 22 24  1  0  0  0  0
 20 21  1  0  0  0  0
 19 20  1  0  0  0  0
 17 18  1  0  0  0  0
 17 19  2  0  0  0  0
 15 16  1  0  0  0  0
 15 17  1  0  0  0  0
 14 15  1  0  0  0  0
 14 20  2  0  0  0  0
 11 12  1  0  0  0  0
 11 13  1  0  0  0  0
 11 14  1  0  0  0  0
  9 10  1  0  0  0  0
  9 11  1  0  0  0  0
  9 22  1  0  0  0  0
  7  8  1  0  0  0  0
  7  9  1  0  0  0  0
 26 27  1  0  0  0  0
 26 28  1  0  0  0  0
 26 29  1  0  0  0  0
 24 25  1  0  0  0  0
 24 26  1  0  0  0  0
M  END
$$$$
default_name
  -OEChem-02102213163D

 29 29  0     1  0  0  0  0  0999 V2000
   -3.6042   -3.5728    1.4576 H   0  0  0  0  0  0  0  0  0  0  0  0
   -3.5202   -2.6488    0.8866 C   0  0  0  0  0  0  0  0  0  0  0  0
   -4.2052   -1.9048    1.2896 H   0  0  0  0  0  0  0  0  0  0  0  0
   -3.7552   -2.8428   -0.1584 H   0  0  0  0  0  0  0  0  0  0  0  0
   -2.1052   -2.1358    0.9946 C   0  0  0  0  0  0  0  0  0  0  0  0
   -1.2852   -2.7288    1.6826 O   0  0  0  0  0  0  0  0  0  0  0  0
   -1.8202   -1.0288    0.3146 N   0  0  0  0  0  0  0  0  0  0  0  0
   -2.5542   -0.5788   -0.2104 H   0  0  0  0  0  0  0  0  0  0  0  0
   -0.5102   -0.3728    0.3086 C   0  0  1  0  0  0  0  0  0  0  0  0
    0.2354   -1.0844   -0.0490 H   0  0  0  0  0  0  0  0  0  0  0  0
   -0.5452    0.8158   -0.6698 C   0  0  0  0  0  0  0  0  0  0  0  0
   -0.8387    1.7164   -0.1276 H   0  0  0  0  0  0  0  0  0  0  0  0
    0.4576    0.9768   -1.0699 H   0  0  0  0  0  0  0  0  0  0  0  0
   -1.4943    0.6202   -1.8235 C   0  0  0  0  0  0  0  0  0  0  0  0
   -2.5763    1.4159   -2.1337 N   0  0  0  0  0  0  0  0  0  0  0  0
   -2.9221    2.1898   -1.5863 H   0  0  0  0  0  0  0  0  0  0  0  0
   -3.0959    0.9775   -3.2927 C   0  0  0  0  0  0  0  0  0  0  0  0
   -3.9601    1.3998   -3.7908 H   0  0  0  0  0  0  0  0  0  0  0  0
   -2.3879   -0.0635   -3.7547 N   0  0  0  0  0  0  0  0  0  0  0  0
   -1.3701   -0.3026   -2.8277 C   0  0  0  0  0  0  0  0  0  0  0  0
   -0.5987   -1.0577   -2.9062 H   0  0  0  0  0  0  0  0  0  0  0  0
   -0.1073    0.0565    1.7296 C   0  0  0  0  0  0  0  0  0  0  0  0
    1.0285   -0.1699    2.1459 O   0  0  0  0  0  0  0  0  0  0  0  0
   -1.0395    0.6588    2.4785 N   0  0  0  0  0  0  0  0  0  0  0  0
   -1.9636    0.7597    2.0849 H   0  0  0  0  0  0  0  0  0  0  0  0
   -0.8222    1.1334    3.8425 C   0  0  0  0  0  0  0  0  0  0  0  0
   -0.0212    1.8761    3.8521 H   0  0  0  0  0  0  0  0  0  0  0  0
   -1.7349    1.5853    4.2320 H   0  0  0  0  0  0  0  0  0  0  0  0
   -0.5312    0.2997    4.4834 H   0  0  0  0  0  0  0  0  0  0  0  0
  5  6  2  0  0  0  0
  5  7  1  0  0  0  0
  2  3  1  0  0  0  0
  2  4  1  0  0  0  0
  2  5  1  0  0  0  0
  1  2  1  0  0  0  0
 22 23  2  0  0  0  0
 22 24  1  0  0  0  0
 20 21  1  0  0  0  0
 19 20  1  0  0  0  0
 17 18  1  0  0  0  0
 17 19  2  0  0  0  0
 15 16  1  0  0  0  0
 15 17  1  0  0  0  0
 14 15  1  0  0  0  0
 14 20  2  0  0  0  0
 11 12  1  0  0  0  0
 11 13  1  0  0  0  0
 11 14  1  0  0  0  0
  9 10  1  0  0  0  0
  9 11  1  0  0  0  0
  9 22  1  0  0  0  0
  7  8  1  0  0  0  0
  7  9  1  0  0  0  0
 26 27  1  0  0  0  0
 26 28  1  0  0  0  0
 26 29  1  0  0  0  0
 24 25  1  0  0  0  0
 24 26  1  0  0  0  0
M  END
$$$$
default_name
  -OEChem-02102213163D

 29 29  0     1  0  0  0  0  0999 V2000
   -3.6042   -3.5728    1.4576 H   0  0  0  0  0  0  0  0  0  0  0  0
   -3.5202   -2.6488    0.8866 C   0  0  0  0  0  0  0  0  0  0  0  0
   -4.2052   -1.9048    1.2896 H   0  0  0  0  0  0  0  0  0  0  0  0
   -3.7552   -2.8428   -0.1584 H   0  0  0  0  0  0  0  0  0  0  0  0
   -2.1052   -2.1358    0.9946 C   0  0  0  0  0  0  0  0  0  0  0  0
   -1.2852   -2.7288    1.6826 O   0  0  0  0  0  0  0  0  0  0  0  0
   -1.8202   -1.0288    0.3146 N   0  0  0  0  0  0  0  0  0  0  0  0
   -2.5542   -0.5788   -0.2104 H   0  0  0  0  0  0  0  0  0  0  0  0
   -0.5102   -0.3728    0.3086 C   0  0  1  0  0  0  0  0  0  0  0  0
    0.2354   -1.0844   -0.0490 H   0  0  0  0  0  0  0  0  0  0  0  0
   -0.5452    0.8158   -0.6698 C   0  0  0  0  0  0  0  0  0  0  0  0
   -0.8387    1.7164   -0.1276 H   0  0  0  0  0  0  0  0  0  0  0  0
    0.4576    0.9768   -1.0699 H   0  0  0  0  0  0  0  0  0  0  0  0
   -1.4943    0.6202   -1.8235 C   0  0  0  0  0  0  0  0  0  0  0  0
   -2.3888    1.5491   -2.3105 N   0  0  0  0  0  0  0  0  0  0  0  0
   -2.5813    2.4557   -1.9116 H   0  0  0  0  0  0  0  0  0  0  0  0
   -2.9660    1.0339   -3.4091 C   0  0  0  0  0  0  0  0  0  0  0  0
   -3.7190    1.5281   -4.0109 H   0  0  0  0  0  0  0  0  0  0  0  0
   -2.4738   -0.1874   -3.6630 N   0  0  0  0  0  0  0  0  0  0  0  0
   -1.5409   -0.4631   -2.6600 C   0  0  0  0  0  0  0  0  0  0  0  0
   -0.9358   -1.3567   -2.5782 H   0  0  0  0  0  0  0  0  0  0  0  0
   -0.1073    0.0565    1.7296 C   0  0  0  0  0  0  0  0  0  0  0  0
    1.0285   -0.1699    2.1459 O   0  0  0  0  0  0  0  0  0  0  0  0
   -1.0395    0.6588    2.4785 N   0  0  0  0  0  0  0  0  0  0  0  0
   -1.9636    0.7597    2.0849 H   0  0  0  0  0  0  0  0  0  0  0  0
   -0.8222    1.1334    3.8425 C   0  0  0  0  0  0  0  0  0  0  0  0
   -0.0212    1.8761    3.8521 H   0  0  0  0  0  0  0  0  0  0  0  0
   -1.7349    1.5853    4.2320 H   0  0  0  0  0  0  0  0  0  0  0  0
   -0.5312    0.2997    4.4834 H   0  0  0  0  0  0  0  0  0  0  0  0
  5  6  2  0  0  0  0
  5  7  1  0  0  0  0
  2  3  1  0  0  0  0
  2  4  1  0  0  0  0
  2  5  1  0  0  0  0
  1  2  1  0  0  0  0
 22 23  2  0  0  0  0
 22 24  1  0  0  0  0
 20 21  1  0  0  0  0
 19 20  1  0  0  0  0
 17 18  1  0  0  0  0
 17 19  2  0  0  0  0
 15 16  1  0  0  0  0
 15 17  1  0  0  0  0
 14 15  1  0  0  0  0
 14 20  2  0  0  0  0
 11 12  1  0  0  0  0
 11 13  1  0  0  0  0
 11 14  1  0  0  0  0
  9 10  1  0  0  0  0
  9 11  1  0  0  0  0
  9 22  1  0  0  0  0
  7  8  1  0  0  0  0
  7  9  1  0  0  0  0
 26 27  1  0  0  0  0
 26 28  1  0  0  0  0
 26 29  1  0  0  0  0
 24 25  1  0  0  0  0
 24 26  1  0  0  0  0
M  END
$$$$
default_name
  -OEChem-02102213163D

 29 29  0     1  0  0  0  0  0999 V2000
   -3.6042   -3.5728    1.4576 H   0  0  0  0  0  0  0  0  0  0  0  0
   -3.5202   -2.6488    0.8866 C   0  0  0  0  0  0  0  0  0  0  0  0
   -4.2052   -1.9048    1.2896 H   0  0  0  0  0  0  0  0  0  0  0  0
   -3.7552   -2.8428   -0.1584 H   0  0  0  0  0  0  0  0  0  0  0  0
   -2.1052   -2.1358    0.9946 C   0  0  0  0  0  0  0  0  0  0  0  0
   -1.2852   -2.7288    1.6826 O   0  0  0  0  0  0  0  0  0  0  0  0
   -1.8202   -1.0288    0.3146 N   0  0  0  0  0  0  0  0  0  0  0  0
   -2.5542   -0.5788   -0.2104 H   0  0  0  0  0  0  0  0  0  0  0  0
   -0.5102   -0.3728    0.3086 C   0  0  1  0  0  0  0  0  0  0  0  0
    0.2354   -1.0844   -0.0490 H   0  0  0  0  0  0  0  0  0  0  0  0
   -0.5452    0.8158   -0.6698 C   0  0  0  0  0  0  0  0  0  0  0  0
   -0.8387    1.7164   -0.1276 H   0  0  0  0  0  0  0  0  0  0  0  0
    0.4576    0.9768   -1.0699 H   0  0  0  0  0  0  0  0  0  0  0  0
   -1.4943    0.6202   -1.8235 C   0  0  0  0  0  0  0  0  0  0  0  0
   -2.1754    1.6117   -2.4967 N   0  0  0  0  0  0  0  0  0  0  0  0
   -2.1886    2.5919   -2.2578 H   0  0  0  0  0  0  0  0  0  0  0  0
   -2.8254    1.0437   -3.5265 C   0  0  0  0  0  0  0  0  0  0  0  0
   -3.4532    1.5683   -4.2363 H   0  0  0  0  0  0  0  0  0  0  0  0
   -2.5844   -0.2751   -3.5572 N   0  0  0  0  0  0  0  0  0  0  0  0
   -1.7433   -0.5569   -2.4776 C   0  0  0  0  0  0  0  0  0  0  0  0
   -1.3316   -1.5252   -2.2240 H   0  0  0  0  0  0  0  0  0  0  0  0
   -0.1073    0.0565    1.7296 C   0  0  0  0  0  0  0  0  0  0  0  0
    1.0285   -0.1699    2.1459 O   0  0  0  0  0  0  0  0  0  0  0  0
   -1.0395    0.6588    2.4785 N   0  0  0  0  0  0  0  0  0  0  0  0
   -1.9636    0.7597    2.0849 H   0  0  0  0  0  0  0  0  0  0  0  0
   -0.8222    1.1334    3.8425 C   0  0  0  0  0  0  0  0  0  0  0  0
   -0.0212    1.8761    3.8521 H   0  0  0  0  0  0  0  0  0  0  0  0
   -1.7349    1.5853    4.2320 H   0  0  0  0  0  0  0  0  0  0  0  0
   -0.5312    0.2997    4.4834 H   0  0  0  0  0  0  0  0  0  0  0  0
  5  6  2  0  0  0  0
  5  7  1  0  0  0  0
  2  3  1  0  0  0  0
  2  4  1  0  0  0  0
  2  5  1  0  0  0  0
  1  2  1  0  0  0  0
 22 23  2  0  0  0  0
 22 24  1  0  0  0  0
 20 21  1  0  0  0  0
 19 20  1  0  0  0  0
 17 18  1  0  0  0  0
 17 19  2  0  0  0  0
 15 16  1  0  0  0  0
 15 17  1  0  0  0  0
 14 15  1  0  0  0  0
 14 20  2  0  0  0  0
 11 12  1  0  0  0  0
 11 13  1  0  0  0  0
 11 14  1  0  0  0  0
  9 10  1  0  0  0  0
  9 11  1  0  0  0  0
  9 22  1  0  0  0  0
  7  8  1  0  0  0  0
  7  9  1  0  0  0  0
 26 27  1  0  0  0  0
 26 28  1  0  0  0  0
 26 29  1  0  0  0  0
 24 25  1  0  0  0  0
 24 26  1  0  0  0  0
M  END
$$$$
default_name
  -OEChem-02102213163D

 29 29  0     1  0  0  0  0  0999 V2000
   -3.6042   -3.5728    1.4576 H   0  0  0  0  0  0  0  0  0  0  0  0
   -3.5202   -2.6488    0.8866 C   0  0  0  0  0  0  0  0  0  0  0  0
   -4.2052   -1.9048    1.2896 H   0  0  0  0  0  0  0  0  0  0  0  0
   -3.7552   -2.8428   -0.1584 H   0  0  0  0  0  0  0  0  0  0  0  0
   -2.1052   -2.1358    0.9946 C   0  0  0  0  0  0  0  0  0  0  0  0
   -1.2852   -2.7288    1.6826 O   0  0  0  0  0  0  0  0  0  0  0  0
   -1.8202   -1.0288    0.3146 N   0  0  0  0  0  0  0  0  0  0  0  0
   -2.5542   -0.5788   -0.2104 H   0  0  0  0  0  0  0  0  0  0  0  0
   -0.5102   -0.3728    0.3086 C   0  0  1  0  0  0  0  0  0  0  0  0
    0.2354   -1.0844   -0.0490 H   0  0  0  0  0  0  0  0  0  0  0  0
   -0.5452    0.8158   -0.6698 C   0  0  0  0  0  0  0  0  0  0  0  0
   -0.8387    1.7164   -0.1276 H   0  0  0  0  0  0  0  0  0  0  0  0
    0.4576    0.9768   -1.0699 H   0  0  0  0  0  0  0  0  0  0  0  0
   -1.4943    0.6202   -1.8235 C   0  0  0  0  0  0  0  0  0  0  0  0
   -1.9506    1.5995   -2.6796 N   0  0  0  0  0  0  0  0  0  0  0  0
   -1.7706    2.5893   -2.6012 H   0  0  0  0  0  0  0  0  0  0  0  0
   -2.6837    1.0062   -3.6367 C   0  0  0  0  0  0  0  0  0  0  0  0
   -3.1810    1.5177   -4.4517 H   0  0  0  0  0  0  0  0  0  0  0  0
   -2.7122   -0.3206   -3.4444 N   0  0  0  0  0  0  0  0  0  0  0  0
   -1.9635   -0.5777   -2.2929 C   0  0  0  0  0  0  0  0  0  0  0  0
   -1.7592   -1.5518   -1.8677 H   0  0  0  0  0  0  0  0  0  0  0  0
   -0.1073    0.0565    1.7296 C   0  0  0  0  0  0  0  0  0  0  0  0
    1.0285   -0.1699    2.1459 O   0  0  0  0  0  0  0  0  0  0  0  0
   -1.0395    0.6588    2.4785 N   0  0  0  0  0  0  0  0  0  0  0  0
   -1.9636    0.7597    2.0849 H   0  0  0  0  0  0  0  0  0  0  0  0
   -0.8222    1.1334    3.8425 C   0  0  0  0  0  0  0  0  0  0  0  0
   -0.0212    1.8761    3.8521 H   0  0  0  0  0  0  0  0  0  0  0  0
   -1.7349    1.5853    4.2320 H   0  0  0  0  0  0  0  0  0  0  0  0
   -0.5312    0.2997    4.4834 H   0  0  0  0  0  0  0  0  0  0  0  0
  5  6  2  0  0  0  0
  5  7  1  0  0  0  0
  2  3  1  0  0  0  0
  2  4  1  0  0  0  0
  2  5  1  0  0  0  0
  1  2  1  0  0  0  0
 22 23  2  0  0  0  0
 22 24  1  0  0  0  0
 20 21  1  0  0  0  0
 19 20  1  0  0  0  0
 17 18  1  0  0  0  0
 17 19  2  0  0  0  0
 15 16  1  0  0  0  0
 15 17  1  0  0  0  0
 14 15  1  0  0  0  0
 14 20  2  0  0  0  0
 11 12  1  0  0  0  0
 11 13  1  0  0  0  0
 11 14  1  0  0  0  0
  9 10  1  0  0  0  0
  9 11  1  0  0  0  0
  9 22  1  0  0  0  0
  7  8  1  0  0  0  0
  7  9  1  0  0  0  0
 26 27  1  0  0  0  0
 26 28  1  0  0  0  0
 26 29  1  0  0  0  0
 24 25  1  0  0  0  0
 24 26  1  0  0  0  0
M  END
$$$$
default_name
  -OEChem-02102213163D

 29 29  0     1  0  0  0  0  0999 V2000
   -3.6042   -3.5728    1.4576 H   0  0  0  0  0  0  0  0  0  0  0  0
   -3.5202   -2.6488    0.8866 C   0  0  0  0  0  0  0  0  0  0  0  0
   -4.2052   -1.9048    1.2896 H   0  0  0  0  0  0  0  0  0  0  0  0
   -3.7552   -2.8428   -0.1584 H   0  0  0  0  0  0  0  0  0  0  0  0
   -2.1052   -2.1358    0.9946 C   0  0  0  0  0  0  0  0  0  0  0  0
   -1.2852   -2.7288    1.6826 O   0  0  0  0  0  0  0  0  0  0  0  0
   -1.8202   -1.0288    0.3146 N   0  0  0  0  0  0  0  0  0  0  0  0
   -2.5542   -0.5788   -0.2104 H   0  0  0  0  0  0  0  0  0  0  0  0
   -0.5102   -0.3728    0.3086 C   0  0  1  0  0  0  0  0  0  0  0  0
    0.2354   -1.0844   -0.0490 H   0  0  0  0  0  0  0  0  0  0  0  0
   -0.5452    0.8158   -0.6698 C   0  0  0  0  0  0  0  0  0  0  0  0
   -0.5726    1.7466   -0.1005 H   0  0  0  0  0  0  0  0  0  0  0  0
    0.3697    0.8135   -1.2652 H   0  0  0  0  0  0  0  0  0  0  0  0
   -1.7251    0.7921   -1.6065 C   0  0  0  0  0  0  0  0  0  0  0  0
   -2.0110    1.7229   -2.5822 N   0  0  0  0  0  0  0  0  0  0  0  0
   -1.5112    2.5836   -2.7481 H   0  0  0  0  0  0  0  0  0  0  0  0
   -3.0778    1.2866   -3.2728 C   0  0  0  0  0  0  0  0  0  0  0  0
   -3.5431    1.8072   -4.1009 H   0  0  0  0  0  0  0  0  0  0  0  0
   -3.4894    0.1037   -2.7935 N   0  0  0  0  0  0  0  0  0  0  0  0
   -2.6403   -0.2189   -1.7317 C   0  0  0  0  0  0  0  0  0  0  0  0
   -2.6753   -1.1229   -1.1375 H   0  0  0  0  0  0  0  0  0  0  0  0
   -0.1073    0.0565    1.7296 C   0  0  0  0  0  0  0  0  0  0  0  0
    1.0285   -0.1699    2.1459 O   0  0  0  0  0  0  0  0  0  0  0  0
   -1.0395    0.6588    2.4785 N   0  0  0  0  0  0  0  0  0  0  0  0
   -1.9636    0.7597    2.0849 H   0  0  0  0  0  0  0  0  0  0  0  0
   -0.8222    1.1334    3.8425 C   0  0  0  0  0  0  0  0  0  0  0  0
   -0.0212    1.8761    3.8521 H   0  0  0  0  0  0  0  0  0  0  0  0
   -1.7349    1.5853    4.2320 H   0  0  0  0  0  0  0  0  0  0  0  0
   -0.5312    0.2997    4.4834 H   0  0  0  0  0  0  0  0  0  0  0  0
  5  6  2  0  0  0  0
  5  7  1  0  0  0  0
  2  3  1  0  0  0  0
  2  4  1  0  0  0  0
  2  5  1  0  0  0  0
  1  2  1  0  0  0  0
 22 23  2  0  0  0  0
 22 24  1  0  0  0  0
 20 21  1  0  0  0  0
 19 20  1  0  0  0  0
 17 18  1  0  0  0  0
 17 19  2  0  0  0  0
 15 16  1  0  0  0  0
 15 17  1  0  0  0  0
 14 15  1  0  0  0  0
 14 20  2  0  0  0  0
 11 12  1  0  0  0  0
 11 13  1  0  0  0  0
 11 14  1  0  0  0  0
  9 10  1  0  0  0  0
  9 11  1  0  0  0  0
  9 22  1  0  0  0  0
  7  8  1  0  0  0  0
  7  9  1  0  0  0  0
 26 27  1  0  0  0  0
 26 28  1  0  0  0  0
 26 29  1  0  0  0  0
 24 25  1  0  0  0  0
 24 26  1  0  0  0  0
M  END
$$$$
default_name
  -OEChem-02102213163D

 29 29  0     1  0  0  0  0  0999 V2000
   -3.6042   -3.5728    1.4576 H   0  0  0  0  0  0  0  0  0  0  0  0
   -3.5202   -2.6488    0.8866 C   0  0  0  0  0  0  0  0  0  0  0  0
   -4.2052   -1.9048    1.2896 H   0  0  0  0  0  0  0  0  0  0  0  0
   -3.7552   -2.8428   -0.1584 H   0  0  0  0  0  0  0  0  0  0  0  0
   -2.1052   -2.1358    0.9946 C   0  0  0  0  0  0  0  0  0  0  0  0
   -1.2852   -2.7288    1.6826 O   0  0  0  0  0  0  0  0  0  0  0  0
   -1.8202   -1.0288    0.3146 N   0  0  0  0  0  0  0  0  0  0  0  0
   -2.5542   -0.5788   -0.2104 H   0  0  0  0  0  0  0  0  0  0  0  0
   -0.5102   -0.3728    0.3086 C   0  0  1  0  0  0  0  0  0  0  0  0
    0.2354   -1.0844   -0.0490 H   0  0  0  0  0  0  0  0  0  0  0  0
   -0.5452    0.8158   -0.6698 C   0  0  0  0  0  0  0  0  0  0  0  0
   -0.5726    1.7466   -0.1005 H   0  0  0  0  0  0  0  0  0  0  0  0
    0.3697    0.8135   -1.2652 H   0  0  0  0  0  0  0  0  0  0  0  0
   -1.7251    0.7921   -1.6065 C   0  0  0  0  0  0  0  0  0  0  0  0
   -1.8693    1.5390   -2.7560 N   0  0  0  0  0  0  0  0  0  0  0  0
   -1.2393    2.2564   -3.0823 H   0  0  0  0  0  0  0  0  0  0  0  0
   -3.0011    1.1485   -3.3660 C   0  0  0  0  0  0  0  0  0  0  0  0
   -3.3866    1.5580   -4.2918 H   0  0  0  0  0  0  0  0  0  0  0  0
   -3.5921    0.1694   -2.6659 N   0  0  0  0  0  0  0  0  0  0  0  0
   -2.7929   -0.0630   -1.5434 C   0  0  0  0  0  0  0  0  0  0  0  0
   -2.9658   -0.8099   -0.7795 H   0  0  0  0  0  0  0  0  0  0  0  0
   -0.1073    0.0565    1.7296 C   0  0  0  0  0  0  0  0  0  0  0  0
    1.0285   -0.1699    2.1459 O   0  0  0  0  0  0  0  0  0  0  0  0
   -1.0395    0.6588    2.4785 N   0  0  0  0  0  0  0  0  0  0  0  0
   -1.9636    0.7597    2.0849 H   0  0  0  0  0  0  0  0  0  0  0  0
   -0.8222    1.1334    3.8425 C   0  0  0  0  0  0  0  0  0  0  0  0
   -0.0212    1.8761    3.8521 H   0  0  0  0  0  0  0  0  0  0  0  0
   -1.7349    1.5853    4.2320 H   0  0  0  0  0  0  0  0  0  0  0  0
   -0.5312    0.2997    4.4834 H   0  0  0  0  0  0  0  0  0  0  0  0
  5  6  2  0  0  0  0
  5  7  1  0  0  0  0
  2  3  1  0  0  0  0
  2  4  1  0  0  0  0
  2  5  1  0  0  0  0
  1  2  1  0  0  0  0
 22 23  2  0  0  0  0
 22 24  1  0  0  0  0
 20 21  1  0  0  0  0
 19 20  1  0  0  0  0
 17 18  1  0  0  0  0
 17 19  2  0  0  0  0
 15 16  1  0  0  0  0
 15 17  1  0  0  0  0
 14 15  1  0  0  0  0
 14 20  2  0  0  0  0
 11 12  1  0  0  0  0
 11 13  1  0  0  0  0
 11 14  1  0  0  0  0
  9 10  1  0  0  0  0
  9 11  1  0  0  0  0
  9 22  1  0  0  0  0
  7  8  1  0  0  0  0
  7  9  1  0  0  0  0
 26 27  1  0  0  0  0
 26 28  1  0  0  0  0
 26 29  1  0  0  0  0
 24 25  1  0  0  0  0
 24 26  1  0  0  0  0
M  END
$$$$
default_name
  -OEChem-02102213163D

 29 29  0     1  0  0  0  0  0999 V2000
   -3.6042   -3.5728    1.4576 H   0  0  0  0  0  0  0  0  0  0  0  0
   -3.5202   -2.6488    0.8866 C   0  0  0  0  0  0  0  0  0  0  0  0
   -4.2052   -1.9048    1.2896 H   0  0  0  0  0  0  0  0  0  0  0  0
   -3.7552   -2.8428   -0.1584 H   0  0  0  0  0  0  0  0  0  0  0  0
   -2.1052   -2.1358    0.9946 C   0  0  0  0  0  0  0  0  0  0  0  0
   -1.2852   -2.7288    1.6826 O   0  0  0  0  0  0  0  0  0  0  0  0
   -1.8202   -1.0288    0.3146 N   0  0  0  0  0  0  0  0  0  0  0  0
   -2.5542   -0.5788   -0.2104 H   0  0  0  0  0  0  0  0  0  0  0  0
   -0.5102   -0.3728    0.3086 C   0  0  1  0  0  0  0  0  0  0  0  0
    0.2354   -1.0844   -0.0490 H   0  0  0  0  0  0  0  0  0  0  0  0
   -0.5452    0.8158   -0.6698 C   0  0  0  0  0  0  0  0  0  0  0  0
   -0.5726    1.7466   -0.1005 H   0  0  0  0  0  0  0  0  0  0  0  0
    0.3697    0.8135   -1.2652 H   0  0  0  0  0  0  0  0  0  0  0  0
   -1.7251    0.7921   -1.6065 C   0  0  0  0  0  0  0  0  0  0  0  0
   -1.7613    1.3033   -2.8861 N   0  0  0  0  0  0  0  0  0  0  0  0
   -1.0279    1.8290   -3.3377 H   0  0  0  0  0  0  0  0  0  0  0  0
   -2.9487    0.9840   -3.4278 C   0  0  0  0  0  0  0  0  0  0  0  0
   -3.2747    1.2534   -4.4250 H   0  0  0  0  0  0  0  0  0  0  0  0
   -3.6812    0.2751   -2.5563 N   0  0  0  0  0  0  0  0  0  0  0  0
   -2.9160    0.1503   -1.3938 C   0  0  0  0  0  0  0  0  0  0  0  0
   -3.1975   -0.3884   -0.4982 H   0  0  0  0  0  0  0  0  0  0  0  0
   -0.1073    0.0565    1.7296 C   0  0  0  0  0  0  0  0  0  0  0  0
    1.0285   -0.1699    2.1459 O   0  0  0  0  0  0  0  0  0  0  0  0
   -1.0395    0.6588    2.4785 N   0  0  0  0  0  0  0  0  0  0  0  0
   -1.9636    0.7597    2.0849 H   0  0  0  0  0  0  0  0  0  0  0  0
   -0.8222    1.1334    3.8425 C   0  0  0  0  0  0  0  0  0  0  0  0
   -0.0212    1.8761    3.8521 H   0  0  0  0  0  0  0  0  0  0  0  0
   -1.7349    1.5853    4.2320 H   0  0  0  0  0  0  0  0  0  0  0  0
   -0.5312    0.2997    4.4834 H   0  0  0  0  0  0  0  0  0  0  0  0
  5  6  2  0  0  0  0
  5  7  1  0  0  0  0
  2  3  1  0  0  0  0
  2  4  1  0  0  0  0
  2  5  1  0  0  0  0
  1  2  1  0  0  0  0
 22 23  2  0  0  0  0
 22 24  1  0  0  0  0
 20 21  1  0  0  0  0
 19 20  1  0  0  0  0
 17 18  1  0  0  0  0
 17 19  2  0  0  0  0
 15 16  1  0  0  0  0
 15 17  1  0  0  0  0
 14 15  1  0  0  0  0
 14 20  2  0  0  0  0
 11 12  1  0  0  0  0
 11 13  1  0  0  0  0
 11 14  1  0  0  0  0
  9 10  1  0  0  0  0
  9 11  1  0  0  0  0
  9 22  1  0  0  0  0
  7  8  1  0  0  0  0
  7  9  1  0  0  0  0
 26 27  1  0  0  0  0
 26 28  1  0  0  0  0
 26 29  1  0  0  0  0
 24 25  1  0  0  0  0
 24 26  1  0  0  0  0
M  END
$$$$
default_name
  -OEChem-02102213163D

 29 29  0     1  0  0  0  0  0999 V2000
   -3.6042   -3.5728    1.4576 H   0  0  0  0  0  0  0  0  0  0  0  0
   -3.5202   -2.6488    0.8866 C   0  0  0  0  0  0  0  0  0  0  0  0
   -4.2052   -1.9048    1.2896 H   0  0  0  0  0  0  0  0  0  0  0  0
   -3.7552   -2.8428   -0.1584 H   0  0  0  0  0  0  0  0  0  0  0  0
   -2.1052   -2.1358    0.9946 C   0  0  0  0  0  0  0  0  0  0  0  0
   -1.2852   -2.7288    1.6826 O   0  0  0  0  0  0  0  0  0  0  0  0
   -1.8202   -1.0288    0.3146 N   0  0  0  0  0  0  0  0  0  0  0  0
   -2.5542   -0.5788   -0.2104 H   0  0  0  0  0  0  0  0  0  0  0  0
   -0.5102   -0.3728    0.3086 C   0  0  1  0  0  0  0  0  0  0  0  0
    0.2354   -1.0844   -0.0490 H   0  0  0  0  0  0  0  0  0  0  0  0
   -0.5452    0.8158   -0.6698 C   0  0  0  0  0  0  0  0  0  0  0  0
   -0.5726    1.7466   -0.1005 H   0  0  0  0  0  0  0  0  0  0  0  0
    0.3697    0.8135   -1.2652 H   0  0  0  0  0  0  0  0  0  0  0  0
   -1.7251    0.7921   -1.6065 C   0  0  0  0  0  0  0  0  0  0  0  0
   -1.6944    1.0319   -2.9636 N   0  0  0  0  0  0  0  0  0  0  0  0
   -0.8915    1.3303   -3.4969 H   0  0  0  0  0  0  0  0  0  0  0  0
   -2.9244    0.8041   -3.4538 C   0  0  0  0  0  0  0  0  0  0  0  0
   -3.2151    0.9142   -4.4914 H   0  0  0  0  0  0  0  0  0  0  0  0
   -3.7507    0.4138   -2.4723 N   0  0  0  0  0  0  0  0  0  0  0  0
   -3.0012    0.4064   -1.2930 C   0  0  0  0  0  0  0  0  0  0  0  0
   -3.3547    0.1132   -0.3130 H   0  0  0  0  0  0  0  0  0  0  0  0
   -0.1073    0.0565    1.7296 C   0  0  0  0  0  0  0  0  0  0  0  0
    1.0285   -0.1699    2.1459 O   0  0  0  0  0  0  0  0  0  0  0  0
   -1.0395    0.6588    2.4785 N   0  0  0  0  0  0  0  0  0  0  0  0
   -1.9636    0.7597    2.0849 H   0  0  0  0  0  0  0  0  0  0  0  0
   -0.8222    1.1334    3.8425 C   0  0  0  0  0  0  0  0  0  0  0  0
   -0.0212    1.8761    3.8521 H   0  0  0  0  0  0  0  0  0  0  0  0
   -1.7349    1.5853    4.2320 H   0  0  0  0  0  0  0  0  0  0  0  0
   -0.5312    0.2997    4.4834 H   0  0  0  0  0  0  0  0  0  0  0  0
  5  6  2  0  0  0  0
  5  7  1  0  0  0  0
  2  3  1  0  0  0  0
  2  4  1  0  0  0  0
  2  5  1  0  0  0  0
  1  2  1  0  0  0  0
 22 23  2  0  0  0  0
 22 24  1  0  0  0  0
 20 21  1  0  0  0  0
 19 20  1  0  0  0  0
 17 18  1  0  0  0  0
 17 19  2  0  0  0  0
 15 16  1  0  0  0  0
 15 17  1  0  0  0  0
 14 15  1  0  0  0  0
 14 20  2  0  0  0  0
 11 12  1  0  0  0  0
 11 13  1  0  0  0  0
 11 14  1  0  0  0  0
  9 10  1  0  0  0  0
  9 11  1  0  0  0  0
  9 22  1  0  0  0  0
  7  8  1  0  0  0  0
  7  9  1  0  0  0  0
 26 27  1  0  0  0  0
 26 28  1  0  0  0  0
 26 29  1  0  0  0  0
 24 25  1  0  0  0  0
 24 26  1  0  0  0  0
M  END
$$$$
default_name
  -OEChem-02102213163D

 29 29  0     1  0  0  0  0  0999 V2000
   -3.6042   -3.5728    1.4576 H   0  0  0  0  0  0  0  0  0  0  0  0
   -3.5202   -2.6488    0.8866 C   0  0  0  0  0  0  0  0  0  0  0  0
   -4.2052   -1.9048    1.2896 H   0  0  0  0  0  0  0  0  0  0  0  0
   -3.7552   -2.8428   -0.1584 H   0  0  0  0  0  0  0  0  0  0  0  0
   -2.1052   -2.1358    0.9946 C   0  0  0  0  0  0  0  0  0  0  0  0
   -1.2852   -2.7288    1.6826 O   0  0  0  0  0  0  0  0  0  0  0  0
   -1.8202   -1.0288    0.3146 N   0  0  0  0  0  0  0  0  0  0  0  0
   -2.5542   -0.5788   -0.2104 H   0  0  0  0  0  0  0  0  0  0  0  0
   -0.5102   -0.3728    0.3086 C   0  0  1  0  0  0  0  0  0  0  0  0
    0.2354   -1.0844   -0.0490 H   0  0  0  0  0  0  0  0  0  0  0  0
   -0.5452    0.8158   -0.6698 C   0  0  0  0  0  0  0  0  0  0  0  0
   -0.5726    1.7466   -0.1005 H   0  0  0  0  0  0  0  0  0  0  0  0
    0.3697    0.8135   -1.2652 H   0  0  0  0  0  0  0  0  0  0  0  0
   -1.7251    0.7921   -1.6065 C   0  0  0  0  0  0  0  0  0  0  0  0
   -1.6730    0.7433   -2.9831 N   0  0  0  0  0  0  0  0  0  0  0  0
   -0.8393    0.7944   -3.5491 H   0  0  0  0  0  0  0  0  0  0  0  0
   -2.9298    0.6211   -3.4424 C   0  0  0  0  0  0  0  0  0  0  0  0
   -3.2119    0.5635   -4.4866 H   0  0  0  0  0  0  0  0  0  0  0  0
   -3.7958    0.5760   -2.4195 N   0  0  0  0  0  0  0  0  0  0  0  0
   -3.0426    0.6880   -1.2479 C   0  0  0  0  0  0  0  0  0  0  0  0
   -3.4266    0.6604   -0.2363 H   0  0  0  0  0  0  0  0  0  0  0  0
   -0.1073    0.0565    1.7296 C   0  0  0  0  0  0  0  0  0  0  0  0
    1.0285   -0.1699    2.1459 O   0  0  0  0  0  0  0  0  0  0  0  0
   -1.0395    0.6588    2.4785 N   0  0  0  0  0  0  0  0  0  0  0  0
   -1.9636    0.7597    2.0849 H   0  0  0  0  0  0  0  0  0  0  0  0
   -0.8222    1.1334    3.8425 C   0  0  0  0  0  0  0  0  0  0  0  0
   -0.0212    1.8761    3.8521 H   0  0  0  0  0  0  0  0  0  0  0  0
   -1.7349    1.5853    4.2320 H   0  0  0  0  0  0  0  0  0  0  0  0
   -0.5312    0.2997    4.4834 H   0  0  0  0  0  0  0  0  0  0  0  0
  5  6  2  0  0  0  0
  5  7  1  0  0  0  0
  2  3  1  0  0  0  0
  2  4  1  0  0  0  0
  2  5  1  0  0  0  0
  1  2  1  0  0  0  0
 22 23  2  0  0  0  0
 22 24  1  0  0  0  0
 20 21  1  0  0  0  0
 19 20  1  0  0  0  0
 17 18  1  0  0  0  0
 17 19  2  0  0  0  0
 15 16  1  0  0  0  0
 15 17  1  0  0  0  0
 14 15  1  0  0  0  0
 14 20  2  0  0  0  0
 11 12  1  0  0  0  0
 11 13  1  0  0  0  0
 11 14  1  0  0  0  0
  9 10  1  0  0  0  0
  9 11  1  0  0  0  0
  9 22  1  0  0  0  0
  7  8  1  0  0  0  0
  7  9  1  0  0  0  0
 26 27  1  0  0  0  0
 26 28  1  0  0  0  0
 26 29  1  0  0  0  0
 24 25  1  0  0  0  0
 24 26  1  0  0  0  0
M  END
$$$$
default_name
  -OEChem-02102213163D

 29 29  0     1  0  0  0  0  0999 V2000
   -3.6042   -3.5728    1.4576 H   0  0  0  0  0  0  0  0  0  0  0  0
   -3.5202   -2.6488    0.8866 C   0  0  0  0  0  0  0  0  0  0  0  0
   -4.2052   -1.9048    1.2896 H   0  0  0  0  0  0  0  0  0  0  0  0
   -3.7552   -2.8428   -0.1584 H   0  0  0  0  0  0  0  0  0  0  0  0
   -2.1052   -2.1358    0.9946 C   0  0  0  0  0  0  0  0  0  0  0  0
   -1.2852   -2.7288    1.6826 O   0  0  0  0  0  0  0  0  0  0  0  0
   -1.8202   -1.0288    0.3146 N   0  0  0  0  0  0  0  0  0  0  0  0
   -2.5542   -0.5788   -0.2104 H   0  0  0  0  0  0  0  0  0  0  0  0
   -0.5102   -0.3728    0.3086 C   0  0  1  0  0  0  0  0  0  0  0  0
    0.2354   -1.0844   -0.0490 H   0  0  0  0  0  0  0  0  0  0  0  0
   -0.5452    0.8158   -0.6698 C   0  0  0  0  0  0  0  0  0  0  0  0
   -0.5726    1.7466   -0.1005 H   0  0  0  0  0  0  0  0  0  0  0  0
    0.3697    0.8135   -1.2652 H   0  0  0  0  0  0  0  0  0  0  0  0
   -1.7251    0.7921   -1.6065 C   0  0  0  0  0  0  0  0  0  0  0  0
   -1.6988    0.4571   -2.9434 N   0  0  0  0  0  0  0  0  0  0  0  0
   -0.8749    0.2578   -3.4907 H   0  0  0  0  0  0  0  0  0  0  0  0
   -2.9645    0.4475   -3.3943 C   0  0  0  0  0  0  0  0  0  0  0  0
   -3.2652    0.2251   -4.4109 H   0  0  0  0  0  0  0  0  0  0  0  0
   -3.8135    0.7506   -2.4016 N   0  0  0  0  0  0  0  0  0  0  0  0
   -3.0376    0.9758   -1.2616 C   0  0  0  0  0  0  0  0  0  0  0  0
   -3.4083    1.2161   -0.2735 H   0  0  0  0  0  0  0  0  0  0  0  0
   -0.1073    0.0565    1.7296 C   0  0  0  0  0  0  0  0  0  0  0  0
    1.0285   -0.1699    2.1459 O   0  0  0  0  0  0  0  0  0  0  0  0
   -1.0395    0.6588    2.4785 N   0  0  0  0  0  0  0  0  0  0  0  0
   -1.9636    0.7597    2.0849 H   0  0  0  0  0  0  0  0  0  0  0  0
   -0.8222    1.1334    3.8425 C   0  0  0  0  0  0  0  0  0  0  0  0
   -0.0212    1.8761    3.8521 H   0  0  0  0  0  0  0  0  0  0  0  0
   -1.7349    1.5853    4.2320 H   0  0  0  0  0  0  0  0  0  0  0  0
   -0.5312    0.2997    4.4834 H   0  0  0  0  0  0  0  0  0  0  0  0
  5  6  2  0  0  0  0
  5  7  1  0  0  0  0
  2  3  1  0  0  0  0
  2  4  1  0  0  0  0
  2  5  1  0  0  0  0
  1  2  1  0  0  0  0
 22 23  2  0  0  0  0
 22 24  1  0  0  0  0
 20 21  1  0  0  0  0
 19 20  1  0  0  0  0
 17 18  1  0  0  0  0
 17 19  2  0  0  0  0
 15 16  1  0  0  0  0
 15 17  1  0  0  0  0
 14 15  1  0  0  0  0
 14 20  2  0  0  0  0
 11 12  1  0  0  0  0
 11 13  1  0  0  0  0
 11 14  1  0  0  0  0
  9 10  1  0  0  0  0
  9 11  1  0  0  0  0
  9 22  1  0  0  0  0
  7  8  1  0  0  0  0
  7  9  1  0  0  0  0
 26 27  1  0  0  0  0
 26 28  1  0  0  0  0
 26 29  1  0  0  0  0
 24 25  1  0  0  0  0
 24 26  1  0  0  0  0
M  END
$$$$
default_name
  -OEChem-02102213163D

 29 29  0     1  0  0  0  0  0999 V2000
   -3.6042   -3.5728    1.4576 H   0  0  0  0  0  0  0  0  0  0  0  0
   -3.5202   -2.6488    0.8866 C   0  0  0  0  0  0  0  0  0  0  0  0
   -4.2052   -1.9048    1.2896 H   0  0  0  0  0  0  0  0  0  0  0  0
   -3.7552   -2.8428   -0.1584 H   0  0  0  0  0  0  0  0  0  0  0  0
   -2.1052   -2.1358    0.9946 C   0  0  0  0  0  0  0  0  0  0  0  0
   -1.2852   -2.7288    1.6826 O   0  0  0  0  0  0  0  0  0  0  0  0
   -1.8202   -1.0288    0.3146 N   0  0  0  0  0  0  0  0  0  0  0  0
   -2.5542   -0.5788   -0.2104 H   0  0  0  0  0  0  0  0  0  0  0  0
   -0.5102   -0.3728    0.3086 C   0  0  1  0  0  0  0  0  0  0  0  0
    0.2354   -1.0844   -0.0490 H   0  0  0  0  0  0  0  0  0  0  0  0
   -0.5452    0.8158   -0.6698 C   0  0  0  0  0  0  0  0  0  0  0  0
   -0.5726    1.7466   -0.1005 H   0  0  0  0  0  0  0  0  0  0  0  0
    0.3697    0.8135   -1.2652 H   0  0  0  0  0  0  0  0  0  0  0  0
   -1.7251    0.7921   -1.6065 C   0  0  0  0  0  0  0  0  0  0  0  0
   -1.7699    0.1929   -2.8471 N   0  0  0  0  0  0  0  0  0  0  0  0
   -0.9958   -0.2430   -3.3256 H   0  0  0  0  0  0  0  0  0  0  0  0
   -3.0261    0.2952   -3.3129 C   0  0  0  0  0  0  0  0  0  0  0  0
   -3.3714   -0.0777   -4.2694 H   0  0  0  0  0  0  0  0  0  0  0  0
   -3.8026    0.9258   -2.4198 N   0  0  0  0  0  0  0  0  0  0  0  0
   -2.9863    1.2502   -1.3331 C   0  0  0  0  0  0  0  0  0  0  0  0
   -3.3010    1.7424   -0.4220 H   0  0  0  0  0  0  0  0  0  0  0  0
   -0.1073    0.0565    1.7296 C   0  0  0  0  0  0  0  0  0  0  0  0
    1.0285   -0.1699    2.1459 O   0  0  0  0  0  0  0  0  0  0  0  0
   -1.0395    0.6588    2.4785 N   0  0  0  0  0  0  0  0  0  0  0  0
   -1.9636    0.7597    2.0849 H   0  0  0  0  0  0  0  0  0  0  0  0
   -0.8222    1.1334    3.8425 C   0  0  0  0  0  0  0  0  0  0  0  0
   -0.0212    1.8761    3.8521 H   0  0  0  0  0  0  0  0  0  0  0  0
   -1.7349    1.5853    4.2320 H   0  0  0  0  0  0  0  0  0  0  0  0
   -0.5312    0.2997    4.4834 H   0  0  0  0  0  0  0  0  0  0  0  0
  5  6  2  0  0  0  0
  5  7  1  0  0  0  0
  2  3  1  0  0  0  0
  2  4  1  0  0  0  0
  2  5  1  0  0  0  0
  1  2  1  0  0  0  0
 22 23  2  0  0  0  0
 22 24  1  0  0  0  0
 20 21  1  0  0  0  0
 19 20  1  0  0  0  0
 17 18  1  0  0  0  0
 17 19  2  0  0  0  0
 15 16  1  0  0  0  0
 15 17  1  0  0  0  0
 14 15  1  0  0  0  0
 14 20  2  0  0  0  0
 11 12  1  0  0  0  0
 11 13  1  0  0  0  0
 11 14  1  0  0  0  0
  9 10  1  0  0  0  0
  9 11  1  0  0  0  0
  9 22  1  0  0  0  0
  7  8  1  0  0  0  0
  7  9  1  0  0  0  0
 26 27  1  0  0  0  0
 26 28  1  0  0  0  0
 26 29  1  0  0  0  0
 24 25  1  0  0  0  0
 24 26  1  0  0  0  0
M  END
$$$$
default_name
  -OEChem-02102213163D

 29 29  0     1  0  0  0  0  0999 V2000
   -3.6042   -3.5728    1.4576 H   0  0  0  0  0  0  0  0  0  0  0  0
   -3.5202   -2.6488    0.8866 C   0  0  0  0  0  0  0  0  0  0  0  0
   -4.2052   -1.9048    1.2896 H   0  0  0  0  0  0  0  0  0  0  0  0
   -3.7552   -2.8428   -0.1584 H   0  0  0  0  0  0  0  0  0  0  0  0
   -2.1052   -2.1358    0.9946 C   0  0  0  0  0  0  0  0  0  0  0  0
   -1.2852   -2.7288    1.6826 O   0  0  0  0  0  0  0  0  0  0  0  0
   -1.8202   -1.0288    0.3146 N   0  0  0  0  0  0  0  0  0  0  0  0
   -2.5542   -0.5788   -0.2104 H   0  0  0  0  0  0  0  0  0  0  0  0
   -0.5102   -0.3728    0.3086 C   0  0  1  0  0  0  0  0  0  0  0  0
    0.2354   -1.0844   -0.0490 H   0  0  0  0  0  0  0  0  0  0  0  0
   -0.5452    0.8158   -0.6698 C   0  0  0  0  0  0  0  0  0  0  0  0
   -0.5726    1.7466   -0.1005 H   0  0  0  0  0  0  0  0  0  0  0  0
    0.3697    0.8135   -1.2652 H   0  0  0  0  0  0  0  0  0  0  0  0
   -1.7251    0.7921   -1.6065 C   0  0  0  0  0  0  0  0  0  0  0  0
   -1.8815   -0.0313   -2.7009 N   0  0  0  0  0  0  0  0  0  0  0  0
   -1.1939   -0.6738   -3.0651 H   0  0  0  0  0  0  0  0  0  0  0  0
   -3.1104    0.1745   -3.2036 C   0  0  0  0  0  0  0  0  0  0  0  0
   -3.5233   -0.3245   -4.0717 H   0  0  0  0  0  0  0  0  0  0  0  0
   -3.7639    1.0896   -2.4728 N   0  0  0  0  0  0  0  0  0  0  0  0
   -2.8924    1.4925   -1.4576 C   0  0  0  0  0  0  0  0  0  0  0  0
   -3.1121    2.2035   -0.6716 H   0  0  0  0  0  0  0  0  0  0  0  0
   -0.1073    0.0565    1.7296 C   0  0  0  0  0  0  0  0  0  0  0  0
    1.0285   -0.1699    2.1459 O   0  0  0  0  0  0  0  0  0  0  0  0
   -1.0395    0.6588    2.4785 N   0  0  0  0  0  0  0  0  0  0  0  0
   -1.9636    0.7597    2.0849 H   0  0  0  0  0  0  0  0  0  0  0  0
   -0.8222    1.1334    3.8425 C   0  0  0  0  0  0  0  0  0  0  0  0
   -0.0212    1.8761    3.8521 H   0  0  0  0  0  0  0  0  0  0  0  0
   -1.7349    1.5853    4.2320 H   0  0  0  0  0  0  0  0  0  0  0  0
   -0.5312    0.2997    4.4834 H   0  0  0  0  0  0  0  0  0  0  0  0
  5  6  2  0  0  0  0
  5  7  1  0  0  0  0
  2  3  1  0  0  0  0
  2  4  1  0  0  0  0
  2  5  1  0  0  0  0
  1  2  1  0  0  0  0
 22 23  2  0  0  0  0
 22 24  1  0  0  0  0
 20 21  1  0  0  0  0
 19 20  1  0  0  0  0
 17 18  1  0  0  0  0
 17 19  2  0  0  0  0
 15 16  1  0  0  0  0
 15 17  1  0  0  0  0
 14 15  1  0  0  0  0
 14 20  2  0  0  0  0
 11 12  1  0  0  0  0
 11 13  1  0  0  0  0
 11 14  1  0  0  0  0
  9 10  1  0  0  0  0
  9 11  1  0  0  0  0
  9 22  1  0  0  0  0
  7  8  1  0  0  0  0
  7  9  1  0  0  0  0
 26 27  1  0  0  0  0
 26 28  1  0  0  0  0
 26 29  1  0  0  0  0
 24 25  1  0  0  0  0
 24 26  1  0  0  0  0
M  END
$$$$
default_name
  -OEChem-02102213163D

 29 29  0     1  0  0  0  0  0999 V2000
   -3.6042   -3.5728    1.4576 H   0  0  0  0  0  0  0  0  0  0  0  0
   -3.5202   -2.6488    0.8866 C   0  0  0  0  0  0  0  0  0  0  0  0
   -4.2052   -1.9048    1.2896 H   0  0  0  0  0  0  0  0  0  0  0  0
   -3.7552   -2.8428   -0.1584 H   0  0  0  0  0  0  0  0  0  0  0  0
   -2.1052   -2.1358    0.9946 C   0  0  0  0  0  0  0  0  0  0  0  0
   -1.2852   -2.7288    1.6826 O   0  0  0  0  0  0  0  0  0  0  0  0
   -1.8202   -1.0288    0.3146 N   0  0  0  0  0  0  0  0  0  0  0  0
   -2.5542   -0.5788   -0.2104 H   0  0  0  0  0  0  0  0  0  0  0  0
   -0.5102   -0.3728    0.3086 C   0  0  1  0  0  0  0  0  0  0  0  0
    0.2354   -1.0844   -0.0490 H   0  0  0  0  0  0  0  0  0  0  0  0
   -0.5452    0.8158   -0.6698 C   0  0  0  0  0  0  0  0  0  0  0  0
   -0.5726    1.7466   -0.1005 H   0  0  0  0  0  0  0  0  0  0  0  0
    0.3697    0.8135   -1.2652 H   0  0  0  0  0  0  0  0  0  0  0  0
   -1.7251    0.7921   -1.6065 C   0  0  0  0  0  0  0  0  0  0  0  0
   -2.0260   -0.2004   -2.5146 N   0  0  0  0  0  0  0  0  0  0  0  0
   -1.4556   -1.0052   -2.7271 H   0  0  0  0  0  0  0  0  0  0  0  0
   -3.2118    0.0936   -3.0738 C   0  0  0  0  0  0  0  0  0  0  0  0
   -3.7106   -0.4984   -3.8314 H   0  0  0  0  0  0  0  0  0  0  0  0
   -3.6998    1.2307   -2.5570 N   0  0  0  0  0  0  0  0  0  0  0  0
   -2.7621    1.6862   -1.6266 C   0  0  0  0  0  0  0  0  0  0  0  0
   -2.8544    2.5678   -1.0054 H   0  0  0  0  0  0  0  0  0  0  0  0
   -0.1073    0.0565    1.7296 C   0  0  0  0  0  0  0  0  0  0  0  0
    1.0285   -0.1699    2.1459 O   0  0  0  0  0  0  0  0  0  0  0  0
   -1.0395    0.6588    2.4785 N   0  0  0  0  0  0  0  0  0  0  0  0
   -1.9636    0.7597    2.0849 H   0  0  0  0  0  0  0  0  0  0  0  0
   -0.8222    1.1334    3.8425 C   0  0  0  0  0  0  0  0  0  0  0  0
   -0.0212    1.8761    3.8521 H   0  0  0  0  0  0  0  0  0  0  0  0
   -1.7349    1.5853    4.2320 H   0  0  0  0  0  0  0  0  0  0  0  0
   -0.5312    0.2997    4.4834 H   0  0  0  0  0  0  0  0  0  0  0  0
  5  6  2  0  0  0  0
  5  7  1  0  0  0  0
  2  3  1  0  0  0  0
  2  4  1  0  0  0  0
  2  5  1  0  0  0  0
  1  2  1  0  0  0  0
 22 23  2  0  0  0  0
 22 24  1  0  0  0  0
 20 21  1  0  0  0  0
 19 20  1  0  0  0  0
 17 18  1  0  0  0  0
 17 19  2  0  0  0  0
 15 16  1  0  0  0  0
 15 17  1  0  0  0  0
 14 15  1  0  0  0  0
 14 20  2  0  0  0  0
 11 12  1  0  0  0  0
 11 13  1  0  0  0  0
 11 14  1  0  0  0  0
  9 10  1  0  0  0  0
  9 11  1  0  0  0  0
  9 22  1  0  0  0  0
  7  8  1  0  0  0  0
  7  9  1  0  0  0  0
 26 27  1  0  0  0  0
 26 28  1  0  0  0  0
 26 29  1  0  0  0  0
 24 25  1  0  0  0  0
 24 26  1  0  0  0  0
M  END
$$$$
default_name
  -OEChem-02102213163D

 29 29  0     1  0  0  0  0  0999 V2000
   -3.6042   -3.5728    1.4576 H   0  0  0  0  0  0  0  0  0  0  0  0
   -3.5202   -2.6488    0.8866 C   0  0  0  0  0  0  0  0  0  0  0  0
   -4.2052   -1.9048    1.2896 H   0  0  0  0  0  0  0  0  0  0  0  0
   -3.7552   -2.8428   -0.1584 H   0  0  0  0  0  0  0  0  0  0  0  0
   -2.1052   -2.1358    0.9946 C   0  0  0  0  0  0  0  0  0  0  0  0
   -1.2852   -2.7288    1.6826 O   0  0  0  0  0  0  0  0  0  0  0  0
   -1.8202   -1.0288    0.3146 N   0  0  0  0  0  0  0  0  0  0  0  0
   -2.5542   -0.5788   -0.2104 H   0  0  0  0  0  0  0  0  0  0  0  0
   -0.5102   -0.3728    0.3086 C   0  0  1  0  0  0  0  0  0  0  0  0
    0.2354   -1.0844   -0.0490 H   0  0  0  0  0  0  0  0  0  0  0  0
   -0.5452    0.8158   -0.6698 C   0  0  0  0  0  0  0  0  0  0  0  0
   -0.5726    1.7466   -0.1005 H   0  0  0  0  0  0  0  0  0  0  0  0
    0.3697    0.8135   -1.2652 H   0  0  0  0  0  0  0  0  0  0  0  0
   -1.7251    0.7921   -1.6065 C   0  0  0  0  0  0  0  0  0  0  0  0
   -2.1934   -0.3026   -2.3010 N   0  0  0  0  0  0  0  0  0  0  0  0
   -1.7631   -1.2147   -2.3344 H   0  0  0  0  0  0  0  0  0  0  0  0
   -3.3232    0.0581   -2.9326 C   0  0  0  0  0  0  0  0  0  0  0  0
   -3.9205   -0.5875   -3.5649 H   0  0  0  0  0  0  0  0  0  0  0  0
   -3.6149    1.3398   -2.6667 N   0  0  0  0  0  0  0  0  0  0  0  0
   -2.6045    1.8181   -1.8285 C   0  0  0  0  0  0  0  0  0  0  0  0
   -2.5456    2.8105   -1.4006 H   0  0  0  0  0  0  0  0  0  0  0  0
   -0.1073    0.0565    1.7296 C   0  0  0  0  0  0  0  0  0  0  0  0
    1.0285   -0.1699    2.1459 O   0  0  0  0  0  0  0  0  0  0  0  0
   -1.0395    0.6588    2.4785 N   0  0  0  0  0  0  0  0  0  0  0  0
   -1.9636    0.7597    2.0849 H   0  0  0  0  0  0  0  0  0  0  0  0
   -0.8222    1.1334    3.8425 C   0  0  0  0  0  0  0  0  0  0  0  0
   -0.0212    1.8761    3.8521 H   0  0  0  0  0  0  0  0  0  0  0  0
   -1.7349    1.5853    4.2320 H   0  0  0  0  0  0  0  0  0  0  0  0
   -0.5312    0.2997    4.4834 H   0  0  0  0  0  0  0  0  0  0  0  0
  5  6  2  0  0  0  0
  5  7  1  0  0  0  0
  2  3  1  0  0  0  0
  2  4  1  0  0  0  0
  2  5  1  0  0  0  0
  1  2  1  0  0  0  0
 22 23  2  0  0  0  0
 22 24  1  0  0  0  0
 20 21  1  0  0  0  0
 19 20  1  0  0  0  0
 17 18  1  0  0  0  0
 17 19  2  0  0  0  0
 15 16  1  0  0  0  0
 15 17  1  0  0  0  0
 14 15  1  0  0  0  0
 14 20  2  0  0  0  0
 11 12  1  0  0  0  0
 11 13  1  0  0  0  0
 11 14  1  0  0  0  0
  9 10  1  0  0  0  0
  9 11  1  0  0  0  0
  9 22  1  0  0  0  0
  7  8  1  0  0  0  0
  7  9  1  0  0  0  0
 26 27  1  0  0  0  0
 26 28  1  0  0  0  0
 26 29  1  0  0  0  0
 24 25  1  0  0  0  0
 24 26  1  0  0  0  0
M  END
$$$$
default_name
  -OEChem-02102213163D

 29 29  0     1  0  0  0  0  0999 V2000
   -3.6042   -3.5728    1.4576 H   0  0  0  0  0  0  0  0  0  0  0  0
   -3.5202   -2.6488    0.8866 C   0  0  0  0  0  0  0  0  0  0  0  0
   -4.2052   -1.9048    1.2896 H   0  0  0  0  0  0  0  0  0  0  0  0
   -3.7552   -2.8428   -0.1584 H   0  0  0  0  0  0  0  0  0  0  0  0
   -2.1052   -2.1358    0.9946 C   0  0  0  0  0  0  0  0  0  0  0  0
   -1.2852   -2.7288    1.6826 O   0  0  0  0  0  0  0  0  0  0  0  0
   -1.8202   -1.0288    0.3146 N   0  0  0  0  0  0  0  0  0  0  0  0
   -2.5542   -0.5788   -0.2104 H   0  0  0  0  0  0  0  0  0  0  0  0
   -0.5102   -0.3728    0.3086 C   0  0  1  0  0  0  0  0  0  0  0  0
    0.2354   -1.0844   -0.0490 H   0  0  0  0  0  0  0  0  0  0  0  0
   -0.5452    0.8158   -0.6698 C   0  0  0  0  0  0  0  0  0  0  0  0
   -0.5726    1.7466   -0.1005 H   0  0  0  0  0  0  0  0  0  0  0  0
    0.3697    0.8135   -1.2652 H   0  0  0  0  0  0  0  0  0  0  0  0
   -1.7251    0.7921   -1.6065 C   0  0  0  0  0  0  0  0  0  0  0  0
   -2.3726   -0.3312   -2.0747 N   0  0  0  0  0  0  0  0  0  0  0  0
   -2.0955   -1.2880   -1.9139 H   0  0  0  0  0  0  0  0  0  0  0  0
   -3.4372    0.0704   -2.7894 C   0  0  0  0  0  0  0  0  0  0  0  0
   -4.1386   -0.5857   -3.2902 H   0  0  0  0  0  0  0  0  0  0  0  0
   -3.5149    1.4091   -2.7945 N   0  0  0  0  0  0  0  0  0  0  0  0
   -2.4301    1.8792   -2.0497 C   0  0  0  0  0  0  0  0  0  0  0  0
   -2.2065    2.9152   -1.8303 H   0  0  0  0  0  0  0  0  0  0  0  0
   -0.1073    0.0565    1.7296 C   0  0  0  0  0  0  0  0  0  0  0  0
    1.0285   -0.1699    2.1459 O   0  0  0  0  0  0  0  0  0  0  0  0
   -1.0395    0.6588    2.4785 N   0  0  0  0  0  0  0  0  0  0  0  0
   -1.9636    0.7597    2.0849 H   0  0  0  0  0  0  0  0  0  0  0  0
   -0.8222    1.1334    3.8425 C   0  0  0  0  0  0  0  0  0  0  0  0
   -0.0212    1.8761    3.8521 H   0  0  0  0  0  0  0  0  0  0  0  0
   -1.7349    1.5853    4.2320 H   0  0  0  0  0  0  0  0  0  0  0  0
   -0.5312    0.2997    4.4834 H   0  0  0  0  0  0  0  0  0  0  0  0
  5  6  2  0  0  0  0
  5  7  1  0  0  0  0
  2  3  1  0  0  0  0
  2  4  1  0  0  0  0
  2  5  1  0  0  0  0
  1  2  1  0  0  0  0
 22 23  2  0  0  0  0
 22 24  1  0  0  0  0
 20 21  1  0  0  0  0
 19 20  1  0  0  0  0
 17 18  1  0  0  0  0
 17 19  2  0  0  0  0
 15 16  1  0  0  0  0
 15 17  1  0  0  0  0
 14 15  1  0  0  0  0
 14 20  2  0  0  0  0
 11 12  1  0  0  0  0
 11 13  1  0  0  0  0
 11 14  1  0  0  0  0
  9 10  1  0  0  0  0
  9 11  1  0  0  0  0
  9 22  1  0  0  0  0
  7  8  1  0  0  0  0
  7  9  1  0  0  0  0
 26 27  1  0  0  0  0
 26 28  1  0  0  0  0
 26 29  1  0  0  0  0
 24 25  1  0  0  0  0
 24 26  1  0  0  0  0
M  END
$$$$
default_name
  -OEChem-02102213163D

 29 29  0     1  0  0  0  0  0999 V2000
   -3.6042   -3.5728    1.4576 H   0  0  0  0  0  0  0  0  0  0  0  0
   -3.5202   -2.6488    0.8866 C   0  0  0  0  0  0  0  0  0  0  0  0
   -4.2052   -1.9048    1.2896 H   0  0  0  0  0  0  0  0  0  0  0  0
   -3.7552   -2.8428   -0.1584 H   0  0  0  0  0  0  0  0  0  0  0  0
   -2.1052   -2.1358    0.9946 C   0  0  0  0  0  0  0  0  0  0  0  0
   -1.2852   -2.7288    1.6826 O   0  0  0  0  0  0  0  0  0  0  0  0
   -1.8202   -1.0288    0.3146 N   0  0  0  0  0  0  0  0  0  0  0  0
   -2.5542   -0.5788   -0.2104 H   0  0  0  0  0  0  0  0  0  0  0  0
   -0.5102   -0.3728    0.3086 C   0  0  1  0  0  0  0  0  0  0  0  0
    0.2354   -1.0844   -0.0490 H   0  0  0  0  0  0  0  0  0  0  0  0
   -0.5452    0.8158   -0.6698 C   0  0  0  0  0  0  0  0  0  0  0  0
   -0.5726    1.7466   -0.1005 H   0  0  0  0  0  0  0  0  0  0  0  0
    0.3697    0.8135   -1.2652 H   0  0  0  0  0  0  0  0  0  0  0  0
   -1.7251    0.7921   -1.6065 C   0  0  0  0  0  0  0  0  0  0  0  0
   -2.5511   -0.2841   -1.8510 N   0  0  0  0  0  0  0  0  0  0  0  0
   -2.4300   -1.2201   -1.4942 H   0  0  0  0  0  0  0  0  0  0  0  0
   -3.5458    0.1296   -2.6540 C   0  0  0  0  0  0  0  0  0  0  0  0
   -4.3501   -0.4933   -3.0261 H   0  0  0  0  0  0  0  0  0  0  0  0
   -3.4067    1.4342   -2.9315 N   0  0  0  0  0  0  0  0  0  0  0  0
   -2.2510    1.8654   -2.2749 C   0  0  0  0  0  0  0  0  0  0  0  0
   -1.8605    2.8747   -2.2652 H   0  0  0  0  0  0  0  0  0  0  0  0
   -0.1073    0.0565    1.7296 C   0  0  0  0  0  0  0  0  0  0  0  0
    1.0285   -0.1699    2.1459 O   0  0  0  0  0  0  0  0  0  0  0  0
   -1.0395    0.6588    2.4785 N   0  0  0  0  0  0  0  0  0  0  0  0
   -1.9636    0.7597    2.0849 H   0  0  0  0  0  0  0  0  0  0  0  0
   -0.8222    1.1334    3.8425 C   0  0  0  0  0  0  0  0  0  0  0  0
   -0.0212    1.8761    3.8521 H   0  0  0  0  0  0  0  0  0  0  0  0
   -1.7349    1.5853    4.2320 H   0  0  0  0  0  0  0  0  0  0  0  0
   -0.5312    0.2997    4.4834 H   0  0  0  0  0  0  0  0  0  0  0  0
  5  6  2  0  0  0  0
  5  7  1  0  0  0  0
  2  3  1  0  0  0  0
  2  4  1  0  0  0  0
  2  5  1  0  0  0  0
  1  2  1  0  0  0  0
 22 23  2  0  0  0  0
 22 24  1  0  0  0  0
 20 21  1  0  0  0  0
 19 20  1  0  0  0  0
 17 18  1  0  0  0  0
 17 19  2  0  0  0  0
 15 16  1  0  0  0  0
 15 17  1  0  0  0  0
 14 15  1  0  0  0  0
 14 20  2  0  0  0  0
 11 12  1  0  0  0  0
 11 13  1  0  0  0  0
 11 14  1  0  0  0  0
  9 10  1  0  0  0  0
  9 11  1  0  0  0  0
  9 22  1  0  0  0  0
  7  8  1  0  0  0  0
  7  9  1  0  0  0  0
 26 27  1  0  0  0  0
 26 28  1  0  0  0  0
 26 29  1  0  0  0  0
 24 25  1  0  0  0  0
 24 26  1  0  0  0  0
M  END
$$$$
default_name
  -OEChem-02102213163D

 29 29  0     1  0  0  0  0  0999 V2000
   -3.6042   -3.5728    1.4576 H   0  0  0  0  0  0  0  0  0  0  0  0
   -3.5202   -2.6488    0.8866 C   0  0  0  0  0  0  0  0  0  0  0  0
   -4.2052   -1.9048    1.2896 H   0  0  0  0  0  0  0  0  0  0  0  0
   -3.7552   -2.8428   -0.1584 H   0  0  0  0  0  0  0  0  0  0  0  0
   -2.1052   -2.1358    0.9946 C   0  0  0  0  0  0  0  0  0  0  0  0
   -1.2852   -2.7288    1.6826 O   0  0  0  0  0  0  0  0  0  0  0  0
   -1.8202   -1.0288    0.3146 N   0  0  0  0  0  0  0  0  0  0  0  0
   -2.5542   -0.5788   -0.2104 H   0  0  0  0  0  0  0  0  0  0  0  0
   -0.5102   -0.3728    0.3086 C   0  0  1  0  0  0  0  0  0  0  0  0
    0.2354   -1.0844   -0.0490 H   0  0  0  0  0  0  0  0  0  0  0  0
   -0.5452    0.8158   -0.6698 C   0  0  0  0  0  0  0  0  0  0  0  0
   -0.5726    1.7466   -0.1005 H   0  0  0  0  0  0  0  0  0  0  0  0
    0.3697    0.8135   -1.2652 H   0  0  0  0  0  0  0  0  0  0  0  0
   -1.7251    0.7921   -1.6065 C   0  0  0  0  0  0  0  0  0  0  0  0
   -2.7169   -0.1645   -1.6452 N   0  0  0  0  0  0  0  0  0  0  0  0
   -2.7439   -1.0156   -1.1040 H   0  0  0  0  0  0  0  0  0  0  0  0
   -3.6418    0.2317   -2.5357 C   0  0  0  0  0  0  0  0  0  0  0  0
   -4.5406   -0.3164   -2.7906 H   0  0  0  0  0  0  0  0  0  0  0  0
   -3.2975    1.4132   -3.0685 N   0  0  0  0  0  0  0  0  0  0  0  0
   -2.0793    1.7775   -2.4890 C   0  0  0  0  0  0  0  0  0  0  0  0
   -1.5309    2.6918   -2.6757 H   0  0  0  0  0  0  0  0  0  0  0  0
   -0.1073    0.0565    1.7296 C   0  0  0  0  0  0  0  0  0  0  0  0
    1.0285   -0.1699    2.1459 O   0  0  0  0  0  0  0  0  0  0  0  0
   -1.0395    0.6588    2.4785 N   0  0  0  0  0  0  0  0  0  0  0  0
   -1.9636    0.7597    2.0849 H   0  0  0  0  0  0  0  0  0  0  0  0
   -0.8222    1.1334    3.8425 C   0  0  0  0  0  0  0  0  0  0  0  0
   -0.0212    1.8761    3.8521 H   0  0  0  0  0  0  0  0  0  0  0  0
   -1.7349    1.5853    4.2320 H   0  0  0  0  0  0  0  0  0  0  0  0
   -0.5312    0.2997    4.4834 H   0  0  0  0  0  0  0  0  0  0  0  0
  5  6  2  0  0  0  0
  5  7  1  0  0  0  0
  2  3  1  0  0  0  0
  2  4  1  0  0  0  0
  2  5  1  0  0  0  0
  1  2  1  0  0  0  0
 22 23  2  0  0  0  0
 22 24  1  0  0  0  0
 20 21  1  0  0  0  0
 19 20  1  0  0  0  0
 17 18  1  0  0  0  0
 17 19  2  0  0  0  0
 15 16  1  0  0  0  0
 15 17  1  0  0  0  0
 14 15  1  0  0  0  0
 14 20  2  0  0  0  0
 11 12  1  0  0  0  0
 11 13  1  0  0  0  0
 11 14  1  0  0  0  0
  9 10  1  0  0  0  0
  9 11  1  0  0  0  0
  9 22  1  0  0  0  0
  7  8  1  0  0  0  0
  7  9  1  0  0  0  0
 26 27  1  0  0  0  0
 26 28  1  0  0  0  0
 26 29  1  0  0  0  0
 24 25  1  0  0  0  0
 24 26  1  0  0  0  0
M  END
$$$$
default_name
  -OEChem-02102213163D

 29 29  0     1  0  0  0  0  0999 V2000
   -3.6042   -3.5728    1.4576 H   0  0  0  0  0  0  0  0  0  0  0  0
   -3.5202   -2.6488    0.8866 C   0  0  0  0  0  0  0  0  0  0  0  0
   -4.2052   -1.9048    1.2896 H   0  0  0  0  0  0  0  0  0  0  0  0
   -3.7552   -2.8428   -0.1584 H   0  0  0  0  0  0  0  0  0  0  0  0
   -2.1052   -2.1358    0.9946 C   0  0  0  0  0  0  0  0  0  0  0  0
   -1.2852   -2.7288    1.6826 O   0  0  0  0  0  0  0  0  0  0  0  0
   -1.8202   -1.0288    0.3146 N   0  0  0  0  0  0  0  0  0  0  0  0
   -2.5542   -0.5788   -0.2104 H   0  0  0  0  0  0  0  0  0  0  0  0
   -0.5102   -0.3728    0.3086 C   0  0  1  0  0  0  0  0  0  0  0  0
    0.2354   -1.0844   -0.0490 H   0  0  0  0  0  0  0  0  0  0  0  0
   -0.5452    0.8158   -0.6698 C   0  0  0  0  0  0  0  0  0  0  0  0
   -0.5726    1.7466   -0.1005 H   0  0  0  0  0  0  0  0  0  0  0  0
    0.3697    0.8135   -1.2652 H   0  0  0  0  0  0  0  0  0  0  0  0
   -1.7251    0.7921   -1.6065 C   0  0  0  0  0  0  0  0  0  0  0  0
   -2.8586    0.0194   -1.4714 N   0  0  0  0  0  0  0  0  0  0  0  0
   -3.0158   -0.6885   -0.7698 H   0  0  0  0  0  0  0  0  0  0  0  0
   -3.7186    0.3697   -2.4425 C   0  0  0  0  0  0  0  0  0  0  0  0
   -4.6971   -0.0672   -2.5997 H   0  0  0  0  0  0  0  0  0  0  0  0
   -3.1948    1.3476   -3.1961 N   0  0  0  0  0  0  0  0  0  0  0  0
   -1.9267    1.6216   -2.6773 C   0  0  0  0  0  0  0  0  0  0  0  0
   -1.2404    2.3788   -3.0337 H   0  0  0  0  0  0  0  0  0  0  0  0
   -0.1073    0.0565    1.7296 C   0  0  0  0  0  0  0  0  0  0  0  0
    1.0285   -0.1699    2.1459 O   0  0  0  0  0  0  0  0  0  0  0  0
   -1.0395    0.6588    2.4785 N   0  0  0  0  0  0  0  0  0  0  0  0
   -1.9636    0.7597    2.0849 H   0  0  0  0  0  0  0  0  0  0  0  0
   -0.8222    1.1334    3.8425 C   0  0  0  0  0  0  0  0  0  0  0  0
   -0.0212    1.8761    3.8521 H   0  0  0  0  0  0  0  0  0  0  0  0
   -1.7349    1.5853    4.2320 H   0  0  0  0  0  0  0  0  0  0  0  0
   -0.5312    0.2997    4.4834 H   0  0  0  0  0  0  0  0  0  0  0  0
  5  6  2  0  0  0  0
  5  7  1  0  0  0  0
  2  3  1  0  0  0  0
  2  4  1  0  0  0  0
  2  5  1  0  0  0  0
  1  2  1  0  0  0  0
 22 23  2  0  0  0  0
 22 24  1  0  0  0  0
 20 21  1  0  0  0  0
 19 20  1  0  0  0  0
 17 18  1  0  0  0  0
 17 19  2  0  0  0  0
 15 16  1  0  0  0  0
 15 17  1  0  0  0  0
 14 15  1  0  0  0  0
 14 20  2  0  0  0  0
 11 12  1  0  0  0  0
 11 13  1  0  0  0  0
 11 14  1  0  0  0  0
  9 10  1  0  0  0  0
  9 11  1  0  0  0  0
  9 22  1  0  0  0  0
  7  8  1  0  0  0  0
  7  9  1  0  0  0  0
 26 27  1  0  0  0  0
 26 28  1  0  0  0  0
 26 29  1  0  0  0  0
 24 25  1  0  0  0  0
 24 26  1  0  0  0  0
M  END
$$$$
default_name
  -OEChem-02102213163D

 29 29  0     1  0  0  0  0  0999 V2000
   -3.6042   -3.5728    1.4576 H   0  0  0  0  0  0  0  0  0  0  0  0
   -3.5202   -2.6488    0.8866 C   0  0  0  0  0  0  0  0  0  0  0  0
   -4.2052   -1.9048    1.2896 H   0  0  0  0  0  0  0  0  0  0  0  0
   -3.7552   -2.8428   -0.1584 H   0  0  0  0  0  0  0  0  0  0  0  0
   -2.1052   -2.1358    0.9946 C   0  0  0  0  0  0  0  0  0  0  0  0
   -1.2852   -2.7288    1.6826 O   0  0  0  0  0  0  0  0  0  0  0  0
   -1.8202   -1.0288    0.3146 N   0  0  0  0  0  0  0  0  0  0  0  0
   -2.5542   -0.5788   -0.2104 H   0  0  0  0  0  0  0  0  0  0  0  0
   -0.5102   -0.3728    0.3086 C   0  0  1  0  0  0  0  0  0  0  0  0
    0.2354   -1.0844   -0.0490 H   0  0  0  0  0  0  0  0  0  0  0  0
   -0.5452    0.8158   -0.6698 C   0  0  0  0  0  0  0  0  0  0  0  0
   -0.5726    1.7466   -0.1005 H   0  0  0  0  0  0  0  0  0  0  0  0
    0.3697    0.8135   -1.2652 H   0  0  0  0  0  0  0  0  0  0  0  0
   -1.7251    0.7921   -1.6065 C   0  0  0  0  0  0  0  0  0  0  0  0
   -2.9666    0.2551   -1.3413 N   0  0  0  0  0  0  0  0  0  0  0  0
   -3.2272   -0.2611   -0.5143 H   0  0  0  0  0  0  0  0  0  0  0  0
   -3.7709    0.5343   -2.3808 C   0  0  0  0  0  0  0  0  0  0  0  0
   -4.8090    0.2374   -2.4665 H   0  0  0  0  0  0  0  0  0  0  0  0
   -3.1057    1.2418   -3.3057 N   0  0  0  0  0  0  0  0  0  0  0  0
   -1.8036    1.4083   -2.8269 C   0  0  0  0  0  0  0  0  0  0  0  0
   -1.0086    1.9572   -3.3150 H   0  0  0  0  0  0  0  0  0  0  0  0
   -0.1073    0.0565    1.7296 C   0  0  0  0  0  0  0  0  0  0  0  0
    1.0285   -0.1699    2.1459 O   0  0  0  0  0  0  0  0  0  0  0  0
   -1.0395    0.6588    2.4785 N   0  0  0  0  0  0  0  0  0  0  0  0
   -1.9636    0.7597    2.0849 H   0  0  0  0  0  0  0  0  0  0  0  0
   -0.8222    1.1334    3.8425 C   0  0  0  0  0  0  0  0  0  0  0  0
   -0.0212    1.8761    3.8521 H   0  0  0  0  0  0  0  0  0  0  0  0
   -1.7349    1.5853    4.2320 H   0  0  0  0  0  0  0  0  0  0  0  0
   -0.5312    0.2997    4.4834 H   0  0  0  0  0  0  0  0  0  0  0  0
  5  6  2  0  0  0  0
  5  7  1  0  0  0  0
  2  3  1  0  0  0  0
  2  4  1  0  0  0  0
  2  5  1  0  0  0  0
  1  2  1  0  0  0  0
 22 23  2  0  0  0  0
 22 24  1  0  0  0  0
 20 21  1  0  0  0  0
 19 20  1  0  0  0  0
 17 18  1  0  0  0  0
 17 19  2  0  0  0  0
 15 16  1  0  0  0  0
 15 17  1  0  0  0  0
 14 15  1  0  0  0  0
 14 20  2  0  0  0  0
 11 12  1  0  0  0  0
 11 13  1  0  0  0  0
 11 14  1  0  0  0  0
  9 10  1  0  0  0  0
  9 11  1  0  0  0  0
  9 22  1  0  0  0  0
  7  8  1  0  0  0  0
  7  9  1  0  0  0  0
 26 27  1  0  0  0  0
 26 28  1  0  0  0  0
 26 29  1  0  0  0  0
 24 25  1  0  0  0  0
 24 26  1  0  0  0  0
M  END
$$$$
default_name
  -OEChem-02102213163D

 29 29  0     1  0  0  0  0  0999 V2000
   -3.6042   -3.5728    1.4576 H   0  0  0  0  0  0  0  0  0  0  0  0
   -3.5202   -2.6488    0.8866 C   0  0  0  0  0  0  0  0  0  0  0  0
   -4.2052   -1.9048    1.2896 H   0  0  0  0  0  0  0  0  0  0  0  0
   -3.7552   -2.8428   -0.1584 H   0  0  0  0  0  0  0  0  0  0  0  0
   -2.1052   -2.1358    0.9946 C   0  0  0  0  0  0  0  0  0  0  0  0
   -1.2852   -2.7288    1.6826 O   0  0  0  0  0  0  0  0  0  0  0  0
   -1.8202   -1.0288    0.3146 N   0  0  0  0  0  0  0  0  0  0  0  0
   -2.5542   -0.5788   -0.2104 H   0  0  0  0  0  0  0  0  0  0  0  0
   -0.5102   -0.3728    0.3086 C   0  0  1  0  0  0  0  0  0  0  0  0
    0.2354   -1.0844   -0.0490 H   0  0  0  0  0  0  0  0  0  0  0  0
   -0.5452    0.8158   -0.6698 C   0  0  0  0  0  0  0  0  0  0  0  0
   -0.5726    1.7466   -0.1005 H   0  0  0  0  0  0  0  0  0  0  0  0
    0.3697    0.8135   -1.2652 H   0  0  0  0  0  0  0  0  0  0  0  0
   -1.7251    0.7921   -1.6065 C   0  0  0  0  0  0  0  0  0  0  0  0
   -3.0336    0.5265   -1.2638 N   0  0  0  0  0  0  0  0  0  0  0  0
   -3.3637    0.2376   -0.3551 H   0  0  0  0  0  0  0  0  0  0  0  0
   -3.7952    0.7142   -2.3547 C   0  0  0  0  0  0  0  0  0  0  0  0
   -4.8686    0.5766   -2.4000 H   0  0  0  0  0  0  0  0  0  0  0  0
   -3.0362    1.1031   -3.3897 N   0  0  0  0  0  0  0  0  0  0  0  0
   -1.7184    1.1521   -2.9277 C   0  0  0  0  0  0  0  0  0  0  0  0
   -0.8515    1.4557   -3.5002 H   0  0  0  0  0  0  0  0  0  0  0  0
   -0.1073    0.0565    1.7296 C   0  0  0  0  0  0  0  0  0  0  0  0
    1.0285   -0.1699    2.1459 O   0  0  0  0  0  0  0  0  0  0  0  0
   -1.0395    0.6588    2.4785 N   0  0  0  0  0  0  0  0  0  0  0  0
   -1.9636    0.7597    2.0849 H   0  0  0  0  0  0  0  0  0  0  0  0
   -0.8222    1.1334    3.8425 C   0  0  0  0  0  0  0  0  0  0  0  0
   -0.0212    1.8761    3.8521 H   0  0  0  0  0  0  0  0  0  0  0  0
   -1.7349    1.5853    4.2320 H   0  0  0  0  0  0  0  0  0  0  0  0
   -0.5312    0.2997    4.4834 H   0  0  0  0  0  0  0  0  0  0  0  0
  5  6  2  0  0  0  0
  5  7  1  0  0  0  0
  2  3  1  0  0  0  0
  2  4  1  0  0  0  0
  2  5  1  0  0  0  0
  1  2  1  0  0  0  0
 22 23  2  0  0  0  0
 22 24  1  0  0  0  0
 20 21  1  0  0  0  0
 19 20  1  0  0  0  0
 17 18  1  0  0  0  0
 17 19  2  0  0  0  0
 15 16  1  0  0  0  0
 15 17  1  0  0  0  0
 14 15  1  0  0  0  0
 14 20  2  0  0  0  0
 11 12  1  0  0  0  0
 11 13  1  0  0  0  0
 11 14  1  0  0  0  0
  9 10  1  0  0  0  0
  9 11  1  0  0  0  0
  9 22  1  0  0  0  0
  7  8  1  0  0  0  0
  7  9  1  0  0  0  0
 26 27  1  0  0  0  0
 26 28  1  0  0  0  0
 26 29  1  0  0  0  0
 24 25  1  0  0  0  0
 24 26  1  0  0  0  0
M  END
$$$$
default_name
  -OEChem-02102213163D

 29 29  0     1  0  0  0  0  0999 V2000
   -3.6042   -3.5728    1.4576 H   0  0  0  0  0  0  0  0  0  0  0  0
   -3.5202   -2.6488    0.8866 C   0  0  0  0  0  0  0  0  0  0  0  0
   -4.2052   -1.9048    1.2896 H   0  0  0  0  0  0  0  0  0  0  0  0
   -3.7552   -2.8428   -0.1584 H   0  0  0  0  0  0  0  0  0  0  0  0
   -2.1052   -2.1358    0.9946 C   0  0  0  0  0  0  0  0  0  0  0  0
   -1.2852   -2.7288    1.6826 O   0  0  0  0  0  0  0  0  0  0  0  0
   -1.8202   -1.0288    0.3146 N   0  0  0  0  0  0  0  0  0  0  0  0
   -2.5542   -0.5788   -0.2104 H   0  0  0  0  0  0  0  0  0  0  0  0
   -0.5102   -0.3728    0.3086 C   0  0  1  0  0  0  0  0  0  0  0  0
    0.2354   -1.0844   -0.0490 H   0  0  0  0  0  0  0  0  0  0  0  0
   -0.5452    0.8158   -0.6698 C   0  0  0  0  0  0  0  0  0  0  0  0
   -0.5726    1.7466   -0.1005 H   0  0  0  0  0  0  0  0  0  0  0  0
    0.3697    0.8135   -1.2652 H   0  0  0  0  0  0  0  0  0  0  0  0
   -1.7251    0.7921   -1.6065 C   0  0  0  0  0  0  0  0  0  0  0  0
   -3.0549    0.8151   -1.2443 N   0  0  0  0  0  0  0  0  0  0  0  0
   -3.4159    0.7735   -0.3030 H   0  0  0  0  0  0  0  0  0  0  0  0
   -3.7898    0.8972   -2.3661 C   0  0  0  0  0  0  0  0  0  0  0  0
   -4.8719    0.9274   -2.4048 H   0  0  0  0  0  0  0  0  0  0  0  0
   -2.9911    0.9409   -3.4424 N   0  0  0  0  0  0  0  0  0  0  0  0
   -1.6769    0.8706   -2.9728 C   0  0  0  0  0  0  0  0  0  0  0  0
   -0.7796    0.9085   -3.5769 H   0  0  0  0  0  0  0  0  0  0  0  0
   -0.1073    0.0565    1.7296 C   0  0  0  0  0  0  0  0  0  0  0  0
    1.0285   -0.1699    2.1459 O   0  0  0  0  0  0  0  0  0  0  0  0
   -1.0395    0.6588    2.4785 N   0  0  0  0  0  0  0  0  0  0  0  0
   -1.9636    0.7597    2.0849 H   0  0  0  0  0  0  0  0  0  0  0  0
   -0.8222    1.1334    3.8425 C   0  0  0  0  0  0  0  0  0  0  0  0
   -0.0212    1.8761    3.8521 H   0  0  0  0  0  0  0  0  0  0  0  0
   -1.7349    1.5853    4.2320 H   0  0  0  0  0  0  0  0  0  0  0  0
   -0.5312    0.2997    4.4834 H   0  0  0  0  0  0  0  0  0  0  0  0
  5  6  2  0  0  0  0
  5  7  1  0  0  0  0
  2  3  1  0  0  0  0
  2  4  1  0  0  0  0
  2  5  1  0  0  0  0
  1  2  1  0  0  0  0
 22 23  2  0  0  0  0
 22 24  1  0  0  0  0
 20 21  1  0  0  0  0
 19 20  1  0  0  0  0
 17 18  1  0  0  0  0
 17 19  2  0  0  0  0
 15 16  1  0  0  0  0
 15 17  1  0  0  0  0
 14 15  1  0  0  0  0
 14 20  2  0  0  0  0
 11 12  1  0  0  0  0
 11 13  1  0  0  0  0
 11 14  1  0  0  0  0
  9 10  1  0  0  0  0
  9 11  1  0  0  0  0
  9 22  1  0  0  0  0
  7  8  1  0  0  0  0
  7  9  1  0  0  0  0
 26 27  1  0  0  0  0
 26 28  1  0  0  0  0
 26 29  1  0  0  0  0
 24 25  1  0  0  0  0
 24 26  1  0  0  0  0
M  END
$$$$
default_name
  -OEChem-02102213163D

 29 29  0     1  0  0  0  0  0999 V2000
   -3.6042   -3.5728    1.4576 H   0  0  0  0  0  0  0  0  0  0  0  0
   -3.5202   -2.6488    0.8866 C   0  0  0  0  0  0  0  0  0  0  0  0
   -4.2052   -1.9048    1.2896 H   0  0  0  0  0  0  0  0  0  0  0  0
   -3.7552   -2.8428   -0.1584 H   0  0  0  0  0  0  0  0  0  0  0  0
   -2.1052   -2.1358    0.9946 C   0  0  0  0  0  0  0  0  0  0  0  0
   -1.2852   -2.7288    1.6826 O   0  0  0  0  0  0  0  0  0  0  0  0
   -1.8202   -1.0288    0.3146 N   0  0  0  0  0  0  0  0  0  0  0  0
   -2.5542   -0.5788   -0.2104 H   0  0  0  0  0  0  0  0  0  0  0  0
   -0.5102   -0.3728    0.3086 C   0  0  1  0  0  0  0  0  0  0  0  0
    0.2354   -1.0844   -0.0490 H   0  0  0  0  0  0  0  0  0  0  0  0
   -0.5452    0.8158   -0.6698 C   0  0  0  0  0  0  0  0  0  0  0  0
   -0.5726    1.7466   -0.1005 H   0  0  0  0  0  0  0  0  0  0  0  0
    0.3697    0.8135   -1.2652 H   0  0  0  0  0  0  0  0  0  0  0  0
   -1.7251    0.7921   -1.6065 C   0  0  0  0  0  0  0  0  0  0  0  0
   -3.0291    1.1012   -1.2840 N   0  0  0  0  0  0  0  0  0  0  0  0
   -3.3803    1.3101   -0.3614 H   0  0  0  0  0  0  0  0  0  0  0  0
   -3.7551    1.0708   -2.4142 C   0  0  0  0  0  0  0  0  0  0  0  0
   -4.8185    1.2657   -2.4806 H   0  0  0  0  0  0  0  0  0  0  0  0
   -2.9733    0.7663   -3.4603 N   0  0  0  0  0  0  0  0  0  0  0  0
   -1.6820    0.5828   -2.9592 C   0  0  0  0  0  0  0  0  0  0  0  0
   -0.7979    0.3527   -3.5397 H   0  0  0  0  0  0  0  0  0  0  0  0
   -0.1073    0.0565    1.7296 C   0  0  0  0  0  0  0  0  0  0  0  0
    1.0285   -0.1699    2.1459 O   0  0  0  0  0  0  0  0  0  0  0  0
   -1.0395    0.6588    2.4785 N   0  0  0  0  0  0  0  0  0  0  0  0
   -1.9636    0.7597    2.0849 H   0  0  0  0  0  0  0  0  0  0  0  0
   -0.8222    1.1334    3.8425 C   0  0  0  0  0  0  0  0  0  0  0  0
   -0.0212    1.8761    3.8521 H   0  0  0  0  0  0  0  0  0  0  0  0
   -1.7349    1.5853    4.2320 H   0  0  0  0  0  0  0  0  0  0  0  0
   -0.5312    0.2997    4.4834 H   0  0  0  0  0  0  0  0  0  0  0  0
  5  6  2  0  0  0  0
  5  7  1  0  0  0  0
  2  3  1  0  0  0  0
  2  4  1  0  0  0  0
  2  5  1  0  0  0  0
  1  2  1  0  0  0  0
 22 23  2  0  0  0  0
 22 24  1  0  0  0  0
 20 21  1  0  0  0  0
 19 20  1  0  0  0  0
 17 18  1  0  0  0  0
 17 19  2  0  0  0  0
 15 16  1  0  0  0  0
 15 17  1  0  0  0  0
 14 15  1  0  0  0  0
 14 20  2  0  0  0  0
 11 12  1  0  0  0  0
 11 13  1  0  0  0  0
 11 14  1  0  0  0  0
  9 10  1  0  0  0  0
  9 11  1  0  0  0  0
  9 22  1  0  0  0  0
  7  8  1  0  0  0  0
  7  9  1  0  0  0  0
 26 27  1  0  0  0  0
 26 28  1  0  0  0  0
 26 29  1  0  0  0  0
 24 25  1  0  0  0  0
 24 26  1  0  0  0  0
M  END
$$$$
default_name
  -OEChem-02102213163D

 29 29  0     1  0  0  0  0  0999 V2000
   -3.6042   -3.5728    1.4576 H   0  0  0  0  0  0  0  0  0  0  0  0
   -3.5202   -2.6488    0.8866 C   0  0  0  0  0  0  0  0  0  0  0  0
   -4.2052   -1.9048    1.2896 H   0  0  0  0  0  0  0  0  0  0  0  0
   -3.7552   -2.8428   -0.1584 H   0  0  0  0  0  0  0  0  0  0  0  0
   -2.1052   -2.1358    0.9946 C   0  0  0  0  0  0  0  0  0  0  0  0
   -1.2852   -2.7288    1.6826 O   0  0  0  0  0  0  0  0  0  0  0  0
   -1.8202   -1.0288    0.3146 N   0  0  0  0  0  0  0  0  0  0  0  0
   -2.5542   -0.5788   -0.2104 H   0  0  0  0  0  0  0  0  0  0  0  0
   -0.5102   -0.3728    0.3086 C   0  0  1  0  0  0  0  0  0  0  0  0
    0.2354   -1.0844   -0.0490 H   0  0  0  0  0  0  0  0  0  0  0  0
   -0.5452    0.8158   -0.6698 C   0  0  0  0  0  0  0  0  0  0  0  0
   -0.5726    1.7466   -0.1005 H   0  0  0  0  0  0  0  0  0  0  0  0
    0.3697    0.8135   -1.2652 H   0  0  0  0  0  0  0  0  0  0  0  0
   -1.7251    0.7921   -1.6065 C   0  0  0  0  0  0  0  0  0  0  0  0
   -2.9580    1.3655   -1.3803 N   0  0  0  0  0  0  0  0  0  0  0  0
   -3.2593    1.8109   -0.5265 H   0  0  0  0  0  0  0  0  0  0  0  0
   -3.6935    1.2231   -2.4957 C   0  0  0  0  0  0  0  0  0  0  0  0
   -4.7123    1.5686   -2.6221 H   0  0  0  0  0  0  0  0  0  0  0  0
   -2.9842    0.5911   -3.4422 N   0  0  0  0  0  0  0  0  0  0  0  0
   -1.7332    0.3084   -2.8877 C   0  0  0  0  0  0  0  0  0  0  0  0
   -0.9052   -0.1735   -3.3912 H   0  0  0  0  0  0  0  0  0  0  0  0
   -0.1073    0.0565    1.7296 C   0  0  0  0  0  0  0  0  0  0  0  0
    1.0285   -0.1699    2.1459 O   0  0  0  0  0  0  0  0  0  0  0  0
   -1.0395    0.6588    2.4785 N   0  0  0  0  0  0  0  0  0  0  0  0
   -1.9636    0.7597    2.0849 H   0  0  0  0  0  0  0  0  0  0  0  0
   -0.8222    1.1334    3.8425 C   0  0  0  0  0  0  0  0  0  0  0  0
   -0.0212    1.8761    3.8521 H   0  0  0  0  0  0  0  0  0  0  0  0
   -1.7349    1.5853    4.2320 H   0  0  0  0  0  0  0  0  0  0  0  0
   -0.5312    0.2997    4.4834 H   0  0  0  0  0  0  0  0  0  0  0  0
  5  6  2  0  0  0  0
  5  7  1  0  0  0  0
  2  3  1  0  0  0  0
  2  4  1  0  0  0  0
  2  5  1  0  0  0  0
  1  2  1  0  0  0  0
 22 23  2  0  0  0  0
 22 24  1  0  0  0  0
 20 21  1  0  0  0  0
 19 20  1  0  0  0  0
 17 18  1  0  0  0  0
 17 19  2  0  0  0  0
 15 16  1  0  0  0  0
 15 17  1  0  0  0  0
 14 15  1  0  0  0  0
 14 20  2  0  0  0  0
 11 12  1  0  0  0  0
 11 13  1  0  0  0  0
 11 14  1  0  0  0  0
  9 10  1  0  0  0  0
  9 11  1  0  0  0  0
  9 22  1  0  0  0  0
  7  8  1  0  0  0  0
  7  9  1  0  0  0  0
 26 27  1  0  0  0  0
 26 28  1  0  0  0  0
 26 29  1  0  0  0  0
 24 25  1  0  0  0  0
 24 26  1  0  0  0  0
M  END
$$$$
default_name
  -OEChem-02102213163D

 29 29  0     1  0  0  0  0  0999 V2000
   -3.6042   -3.5728    1.4576 H   0  0  0  0  0  0  0  0  0  0  0  0
   -3.5202   -2.6488    0.8866 C   0  0  0  0  0  0  0  0  0  0  0  0
   -4.2052   -1.9048    1.2896 H   0  0  0  0  0  0  0  0  0  0  0  0
   -3.7552   -2.8428   -0.1584 H   0  0  0  0  0  0  0  0  0  0  0  0
   -2.1052   -2.1358    0.9946 C   0  0  0  0  0  0  0  0  0  0  0  0
   -1.2852   -2.7288    1.6826 O   0  0  0  0  0  0  0  0  0  0  0  0
   -1.8202   -1.0288    0.3146 N   0  0  0  0  0  0  0  0  0  0  0  0
   -2.5542   -0.5788   -0.2104 H   0  0  0  0  0  0  0  0  0  0  0  0
   -0.5102   -0.3728    0.3086 C   0  0  1  0  0  0  0  0  0  0  0  0
    0.2354   -1.0844   -0.0490 H   0  0  0  0  0  0  0  0  0  0  0  0
   -0.5452    0.8158   -0.6698 C   0  0  0  0  0  0  0  0  0  0  0  0
   -0.5726    1.7466   -0.1005 H   0  0  0  0  0  0  0  0  0  0  0  0
    0.3697    0.8135   -1.2652 H   0  0  0  0  0  0  0  0  0  0  0  0
   -1.7251    0.7921   -1.6065 C   0  0  0  0  0  0  0  0  0  0  0  0
   -2.8464    1.5897   -1.5265 N   0  0  0  0  0  0  0  0  0  0  0  0
   -3.0612    2.2417   -0.7869 H   0  0  0  0  0  0  0  0  0  0  0  0
   -3.6092    1.3438   -2.6050 C   0  0  0  0  0  0  0  0  0  0  0  0
   -4.5604    1.8153   -2.8197 H   0  0  0  0  0  0  0  0  0  0  0  0
   -3.0230    0.4274   -3.3892 N   0  0  0  0  0  0  0  0  0  0  0  0
   -1.8272    0.0660   -2.7632 C   0  0  0  0  0  0  0  0  0  0  0  0
   -1.0941   -0.6346   -3.1416 H   0  0  0  0  0  0  0  0  0  0  0  0
   -0.1073    0.0565    1.7296 C   0  0  0  0  0  0  0  0  0  0  0  0
    1.0285   -0.1699    2.1459 O   0  0  0  0  0  0  0  0  0  0  0  0
   -1.0395    0.6588    2.4785 N   0  0  0  0  0  0  0  0  0  0  0  0
   -1.9636    0.7597    2.0849 H   0  0  0  0  0  0  0  0  0  0  0  0
   -0.8222    1.1334    3.8425 C   0  0  0  0  0  0  0  0  0  0  0  0
   -0.0212    1.8761    3.8521 H   0  0  0  0  0  0  0  0  0  0  0  0
   -1.7349    1.5853    4.2320 H   0  0  0  0  0  0  0  0  0  0  0  0
   -0.5312    0.2997    4.4834 H   0  0  0  0  0  0  0  0  0  0  0  0
  5  6  2  0  0  0  0
  5  7  1  0  0  0  0
  2  3  1  0  0  0  0
  2  4  1  0  0  0  0
  2  5  1  0  0  0  0
  1  2  1  0  0  0  0
 22 23  2  0  0  0  0
 22 24  1  0  0  0  0
 20 21  1  0  0  0  0
 19 20  1  0  0  0  0
 17 18  1  0  0  0  0
 17 19  2  0  0  0  0
 15 16  1  0  0  0  0
 15 17  1  0  0  0  0
 14 15  1  0  0  0  0
 14 20  2  0  0  0  0
 11 12  1  0  0  0  0
 11 13  1  0  0  0  0
 11 14  1  0  0  0  0
  9 10  1  0  0  0  0
  9 11  1  0  0  0  0
  9 22  1  0  0  0  0
  7  8  1  0  0  0  0
  7  9  1  0  0  0  0
 26 27  1  0  0  0  0
 26 28  1  0  0  0  0
 26 29  1  0  0  0  0
 24 25  1  0  0  0  0
 24 26  1  0  0  0  0
M  END
$$$$
default_name
  -OEChem-02102213163D

 29 29  0     1  0  0  0  0  0999 V2000
   -3.6042   -3.5728    1.4576 H   0  0  0  0  0  0  0  0  0  0  0  0
   -3.5202   -2.6488    0.8866 C   0  0  0  0  0  0  0  0  0  0  0  0
   -4.2052   -1.9048    1.2896 H   0  0  0  0  0  0  0  0  0  0  0  0
   -3.7552   -2.8428   -0.1584 H   0  0  0  0  0  0  0  0  0  0  0  0
   -2.1052   -2.1358    0.9946 C   0  0  0  0  0  0  0  0  0  0  0  0
   -1.2852   -2.7288    1.6826 O   0  0  0  0  0  0  0  0  0  0  0  0
   -1.8202   -1.0288    0.3146 N   0  0  0  0  0  0  0  0  0  0  0  0
   -2.5542   -0.5788   -0.2104 H   0  0  0  0  0  0  0  0  0  0  0  0
   -0.5102   -0.3728    0.3086 C   0  0  1  0  0  0  0  0  0  0  0  0
    0.2354   -1.0844   -0.0490 H   0  0  0  0  0  0  0  0  0  0  0  0
   -0.5452    0.8158   -0.6698 C   0  0  0  0  0  0  0  0  0  0  0  0
   -0.5726    1.7466   -0.1005 H   0  0  0  0  0  0  0  0  0  0  0  0
    0.3697    0.8135   -1.2652 H   0  0  0  0  0  0  0  0  0  0  0  0
   -1.7251    0.7921   -1.6065 C   0  0  0  0  0  0  0  0  0  0  0  0
   -2.7020    1.7588   -1.7128 N   0  0  0  0  0  0  0  0  0  0  0  0
   -2.7995    2.5731   -1.1250 H   0  0  0  0  0  0  0  0  0  0  0  0
   -3.5078    1.4246   -2.7347 C   0  0  0  0  0  0  0  0  0  0  0  0
   -4.3731    1.9892   -3.0600 H   0  0  0  0  0  0  0  0  0  0  0  0
   -3.0871    0.2862   -3.3049 N   0  0  0  0  0  0  0  0  0  0  0  0
   -1.9574   -0.1277   -2.5942 C   0  0  0  0  0  0  0  0  0  0  0  0
   -1.3518   -0.9989   -2.8078 H   0  0  0  0  0  0  0  0  0  0  0  0
   -0.1073    0.0565    1.7296 C   0  0  0  0  0  0  0  0  0  0  0  0
    1.0285   -0.1699    2.1459 O   0  0  0  0  0  0  0  0  0  0  0  0
   -1.0395    0.6588    2.4785 N   0  0  0  0  0  0  0  0  0  0  0  0
   -1.9636    0.7597    2.0849 H   0  0  0  0  0  0  0  0  0  0  0  0
   -0.8222    1.1334    3.8425 C   0  0  0  0  0  0  0  0  0  0  0  0
   -0.0212    1.8761    3.8521 H   0  0  0  0  0  0  0  0  0  0  0  0
   -1.7349    1.5853    4.2320 H   0  0  0  0  0  0  0  0  0  0  0  0
   -0.5312    0.2997    4.4834 H   0  0  0  0  0  0  0  0  0  0  0  0
  5  6  2  0  0  0  0
  5  7  1  0  0  0  0
  2  3  1  0  0  0  0
  2  4  1  0  0  0  0
  2  5  1  0  0  0  0
  1  2  1  0  0  0  0
 22 23  2  0  0  0  0
 22 24  1  0  0  0  0
 20 21  1  0  0  0  0
 19 20  1  0  0  0  0
 17 18  1  0  0  0  0
 17 19  2  0  0  0  0
 15 16  1  0  0  0  0
 15 17  1  0  0  0  0
 14 15  1  0  0  0  0
 14 20  2  0  0  0  0
 11 12  1  0  0  0  0
 11 13  1  0  0  0  0
 11 14  1  0  0  0  0
  9 10  1  0  0  0  0
  9 11  1  0  0  0  0
  9 22  1  0  0  0  0
  7  8  1  0  0  0  0
  7  9  1  0  0  0  0
 26 27  1  0  0  0  0
 26 28  1  0  0  0  0
 26 29  1  0  0  0  0
 24 25  1  0  0  0  0
 24 26  1  0  0  0  0
M  END
$$$$
default_name
  -OEChem-02102213163D

 29 29  0     1  0  0  0  0  0999 V2000
   -3.6042   -3.5728    1.4576 H   0  0  0  0  0  0  0  0  0  0  0  0
   -3.5202   -2.6488    0.8866 C   0  0  0  0  0  0  0  0  0  0  0  0
   -4.2052   -1.9048    1.2896 H   0  0  0  0  0  0  0  0  0  0  0  0
   -3.7552   -2.8428   -0.1584 H   0  0  0  0  0  0  0  0  0  0  0  0
   -2.1052   -2.1358    0.9946 C   0  0  0  0  0  0  0  0  0  0  0  0
   -1.2852   -2.7288    1.6826 O   0  0  0  0  0  0  0  0  0  0  0  0
   -1.8202   -1.0288    0.3146 N   0  0  0  0  0  0  0  0  0  0  0  0
   -2.5542   -0.5788   -0.2104 H   0  0  0  0  0  0  0  0  0  0  0  0
   -0.5102   -0.3728    0.3086 C   0  0  1  0  0  0  0  0  0  0  0  0
    0.2354   -1.0844   -0.0490 H   0  0  0  0  0  0  0  0  0  0  0  0
   -0.5452    0.8158   -0.6698 C   0  0  0  0  0  0  0  0  0  0  0  0
   -0.5726    1.7466   -0.1005 H   0  0  0  0  0  0  0  0  0  0  0  0
    0.3697    0.8135   -1.2652 H   0  0  0  0  0  0  0  0  0  0  0  0
   -1.7251    0.7921   -1.6065 C   0  0  0  0  0  0  0  0  0  0  0  0
   -2.5345    1.8610   -1.9263 N   0  0  0  0  0  0  0  0  0  0  0  0
   -2.4920    2.7826   -1.5177 H   0  0  0  0  0  0  0  0  0  0  0  0
   -3.3964    1.4602   -2.8760 C   0  0  0  0  0  0  0  0  0  0  0  0
   -4.1633    2.0783   -3.3266 H   0  0  0  0  0  0  0  0  0  0  0  0
   -3.1720    0.1772   -3.1952 N   0  0  0  0  0  0  0  0  0  0  0  0
   -2.1151   -0.2596   -2.3922 C   0  0  0  0  0  0  0  0  0  0  0  0
   -1.6606   -1.2416   -2.4125 H   0  0  0  0  0  0  0  0  0  0  0  0
   -0.1073    0.0565    1.7296 C   0  0  0  0  0  0  0  0  0  0  0  0
    1.0285   -0.1699    2.1459 O   0  0  0  0  0  0  0  0  0  0  0  0
   -1.0395    0.6588    2.4785 N   0  0  0  0  0  0  0  0  0  0  0  0
   -1.9636    0.7597    2.0849 H   0  0  0  0  0  0  0  0  0  0  0  0
   -0.8222    1.1334    3.8425 C   0  0  0  0  0  0  0  0  0  0  0  0
   -0.0212    1.8761    3.8521 H   0  0  0  0  0  0  0  0  0  0  0  0
   -1.7349    1.5853    4.2320 H   0  0  0  0  0  0  0  0  0  0  0  0
   -0.5312    0.2997    4.4834 H   0  0  0  0  0  0  0  0  0  0  0  0
  5  6  2  0  0  0  0
  5  7  1  0  0  0  0
  2  3  1  0  0  0  0
  2  4  1  0  0  0  0
  2  5  1  0  0  0  0
  1  2  1  0  0  0  0
 22 23  2  0  0  0  0
 22 24  1  0  0  0  0
 20 21  1  0  0  0  0
 19 20  1  0  0  0  0
 17 18  1  0  0  0  0
 17 19  2  0  0  0  0
 15 16  1  0  0  0  0
 15 17  1  0  0  0  0
 14 15  1  0  0  0  0
 14 20  2  0  0  0  0
 11 12  1  0  0  0  0
 11 13  1  0  0  0  0
 11 14  1  0  0  0  0
  9 10  1  0  0  0  0
  9 11  1  0  0  0  0
  9 22  1  0  0  0  0
  7  8  1  0  0  0  0
  7  9  1  0  0  0  0
 26 27  1  0  0  0  0
 26 28  1  0  0  0  0
 26 29  1  0  0  0  0
 24 25  1  0  0  0  0
 24 26  1  0  0  0  0
M  END
$$$$
default_name
  -OEChem-02102213163D

 29 29  0     1  0  0  0  0  0999 V2000
   -3.6042   -3.5728    1.4576 H   0  0  0  0  0  0  0  0  0  0  0  0
   -3.5202   -2.6488    0.8866 C   0  0  0  0  0  0  0  0  0  0  0  0
   -4.2052   -1.9048    1.2896 H   0  0  0  0  0  0  0  0  0  0  0  0
   -3.7552   -2.8428   -0.1584 H   0  0  0  0  0  0  0  0  0  0  0  0
   -2.1052   -2.1358    0.9946 C   0  0  0  0  0  0  0  0  0  0  0  0
   -1.2852   -2.7288    1.6826 O   0  0  0  0  0  0  0  0  0  0  0  0
   -1.8202   -1.0288    0.3146 N   0  0  0  0  0  0  0  0  0  0  0  0
   -2.5542   -0.5788   -0.2104 H   0  0  0  0  0  0  0  0  0  0  0  0
   -0.5102   -0.3728    0.3086 C   0  0  1  0  0  0  0  0  0  0  0  0
    0.2354   -1.0844   -0.0490 H   0  0  0  0  0  0  0  0  0  0  0  0
   -0.5452    0.8158   -0.6698 C   0  0  0  0  0  0  0  0  0  0  0  0
   -0.5726    1.7466   -0.1005 H   0  0  0  0  0  0  0  0  0  0  0  0
    0.3697    0.8135   -1.2652 H   0  0  0  0  0  0  0  0  0  0  0  0
   -1.7251    0.7921   -1.6065 C   0  0  0  0  0  0  0  0  0  0  0  0
   -2.3554    1.8896   -2.1527 N   0  0  0  0  0  0  0  0  0  0  0  0
   -2.1597    2.8559   -1.9382 H   0  0  0  0  0  0  0  0  0  0  0  0
   -3.2825    1.4479   -3.0192 C   0  0  0  0  0  0  0  0  0  0  0  0
   -3.9452    2.0765   -3.6013 H   0  0  0  0  0  0  0  0  0  0  0  0
   -3.2720    0.1078   -3.0675 N   0  0  0  0  0  0  0  0  0  0  0  0
   -2.2894   -0.3207   -2.1711 C   0  0  0  0  0  0  0  0  0  0  0  0
   -1.9997   -1.3463   -1.9828 H   0  0  0  0  0  0  0  0  0  0  0  0
   -0.1073    0.0565    1.7296 C   0  0  0  0  0  0  0  0  0  0  0  0
    1.0285   -0.1699    2.1459 O   0  0  0  0  0  0  0  0  0  0  0  0
   -1.0395    0.6588    2.4785 N   0  0  0  0  0  0  0  0  0  0  0  0
   -1.9636    0.7597    2.0849 H   0  0  0  0  0  0  0  0  0  0  0  0
   -0.8222    1.1334    3.8425 C   0  0  0  0  0  0  0  0  0  0  0  0
   -0.0212    1.8761    3.8521 H   0  0  0  0  0  0  0  0  0  0  0  0
   -1.7349    1.5853    4.2320 H   0  0  0  0  0  0  0  0  0  0  0  0
   -0.5312    0.2997    4.4834 H   0  0  0  0  0  0  0  0  0  0  0  0
  5  6  2  0  0  0  0
  5  7  1  0  0  0  0
  2  3  1  0  0  0  0
  2  4  1  0  0  0  0
  2  5  1  0  0  0  0
  1  2  1  0  0  0  0
 22 23  2  0  0  0  0
 22 24  1  0  0  0  0
 20 21  1  0  0  0  0
 19 20  1  0  0  0  0
 17 18  1  0  0  0  0
 17 19  2  0  0  0  0
 15 16  1  0  0  0  0
 15 17  1  0  0  0  0
 14 15  1  0  0  0  0
 14 20  2  0  0  0  0
 11 12  1  0  0  0  0
 11 13  1  0  0  0  0
 11 14  1  0  0  0  0
  9 10  1  0  0  0  0
  9 11  1  0  0  0  0
  9 22  1  0  0  0  0
  7  8  1  0  0  0  0
  7  9  1  0  0  0  0
 26 27  1  0  0  0  0
 26 28  1  0  0  0  0
 26 29  1  0  0  0  0
 24 25  1  0  0  0  0
 24 26  1  0  0  0  0
M  END
$$$$
default_name
  -OEChem-02102213163D

 29 29  0     1  0  0  0  0  0999 V2000
   -3.6042   -3.5728    1.4576 H   0  0  0  0  0  0  0  0  0  0  0  0
   -3.5202   -2.6488    0.8866 C   0  0  0  0  0  0  0  0  0  0  0  0
   -4.2052   -1.9048    1.2896 H   0  0  0  0  0  0  0  0  0  0  0  0
   -3.7552   -2.8428   -0.1584 H   0  0  0  0  0  0  0  0  0  0  0  0
   -2.1052   -2.1358    0.9946 C   0  0  0  0  0  0  0  0  0  0  0  0
   -1.2852   -2.7288    1.6826 O   0  0  0  0  0  0  0  0  0  0  0  0
   -1.8202   -1.0288    0.3146 N   0  0  0  0  0  0  0  0  0  0  0  0
   -2.5542   -0.5788   -0.2104 H   0  0  0  0  0  0  0  0  0  0  0  0
   -0.5102   -0.3728    0.3086 C   0  0  1  0  0  0  0  0  0  0  0  0
    0.2354   -1.0844   -0.0490 H   0  0  0  0  0  0  0  0  0  0  0  0
   -0.5452    0.8158   -0.6698 C   0  0  0  0  0  0  0  0  0  0  0  0
   -0.5726    1.7466   -0.1005 H   0  0  0  0  0  0  0  0  0  0  0  0
    0.3697    0.8135   -1.2652 H   0  0  0  0  0  0  0  0  0  0  0  0
   -1.7251    0.7921   -1.6065 C   0  0  0  0  0  0  0  0  0  0  0  0
   -2.1768    1.8424   -2.3764 N   0  0  0  0  0  0  0  0  0  0  0  0
   -1.8251    2.7880   -2.3578 H   0  0  0  0  0  0  0  0  0  0  0  0
   -3.1738    1.3887   -3.1545 C   0  0  0  0  0  0  0  0  0  0  0  0
   -3.7336    1.9841   -3.8654 H   0  0  0  0  0  0  0  0  0  0  0  0
   -3.3802    0.0827   -2.9305 N   0  0  0  0  0  0  0  0  0  0  0  0
   -2.4686   -0.3068   -1.9458 C   0  0  0  0  0  0  0  0  0  0  0  0
   -2.3457   -1.3058   -1.5480 H   0  0  0  0  0  0  0  0  0  0  0  0
   -0.1073    0.0565    1.7296 C   0  0  0  0  0  0  0  0  0  0  0  0
    1.0285   -0.1699    2.1459 O   0  0  0  0  0  0  0  0  0  0  0  0
   -1.0395    0.6588    2.4785 N   0  0  0  0  0  0  0  0  0  0  0  0
   -1.9636    0.7597    2.0849 H   0  0  0  0  0  0  0  0  0  0  0  0
   -0.8222    1.1334    3.8425 C   0  0  0  0  0  0  0  0  0  0  0  0
   -0.0212    1.8761    3.8521 H   0  0  0  0  0  0  0  0  0  0  0  0
   -1.7349    1.5853    4.2320 H   0  0  0  0  0  0  0  0  0  0  0  0
   -0.5312    0.2997    4.4834 H   0  0  0  0  0  0  0  0  0  0  0  0
  5  6  2  0  0  0  0
  5  7  1  0  0  0  0
  2  3  1  0  0  0  0
  2  4  1  0  0  0  0
  2  5  1  0  0  0  0
  1  2  1  0  0  0  0
 22 23  2  0  0  0  0
 22 24  1  0  0  0  0
 20 21  1  0  0  0  0
 19 20  1  0  0  0  0
 17 18  1  0  0  0  0
 17 19  2  0  0  0  0
 15 16  1  0  0  0  0
 15 17  1  0  0  0  0
 14 15  1  0  0  0  0
 14 20  2  0  0  0  0
 11 12  1  0  0  0  0
 11 13  1  0  0  0  0
 11 14  1  0  0  0  0
  9 10  1  0  0  0  0
  9 11  1  0  0  0  0
  9 22  1  0  0  0  0
  7  8  1  0  0  0  0
  7  9  1  0  0  0  0
 26 27  1  0  0  0  0
 26 28  1  0  0  0  0
 26 29  1  0  0  0  0
 24 25  1  0  0  0  0
 24 26  1  0  0  0  0
M  END
$$$$
default_name
  -OEChem-02102213163D

 29 29  0     1  0  0  0  0  0999 V2000
   -3.6042   -3.5728    1.4576 H   0  0  0  0  0  0  0  0  0  0  0  0
   -3.5202   -2.6488    0.8866 C   0  0  0  0  0  0  0  0  0  0  0  0
   -4.2052   -1.9048    1.2896 H   0  0  0  0  0  0  0  0  0  0  0  0
   -3.7552   -2.8428   -0.1584 H   0  0  0  0  0  0  0  0  0  0  0  0
   -2.1052   -2.1358    0.9946 C   0  0  0  0  0  0  0  0  0  0  0  0
   -1.2852   -2.7288    1.6826 O   0  0  0  0  0  0  0  0  0  0  0  0
   -1.8202   -1.0288    0.3146 N   0  0  0  0  0  0  0  0  0  0  0  0
   -2.5542   -0.5788   -0.2104 H   0  0  0  0  0  0  0  0  0  0  0  0
   -0.5102   -0.3728    0.3086 C   0  0  1  0  0  0  0  0  0  0  0  0
    0.2354   -1.0844   -0.0490 H   0  0  0  0  0  0  0  0  0  0  0  0
   -0.5452    0.8158   -0.6698 C   0  0  0  0  0  0  0  0  0  0  0  0
   -0.3051    1.7321   -0.1276 H   0  0  0  0  0  0  0  0  0  0  0  0
    0.2189    0.6689   -1.4354 H   0  0  0  0  0  0  0  0  0  0  0  0
   -1.8764    0.9973   -1.3518 C   0  0  0  0  0  0  0  0  0  0  0  0
   -2.1955    1.9730   -2.2717 N   0  0  0  0  0  0  0  0  0  0  0  0
   -1.6049    2.7412   -2.5533 H   0  0  0  0  0  0  0  0  0  0  0  0
   -3.4357    1.7263   -2.7259 C   0  0  0  0  0  0  0  0  0  0  0  0
   -3.9657    2.3255   -3.4562 H   0  0  0  0  0  0  0  0  0  0  0  0
   -3.9311    0.6225   -2.1475 N   0  0  0  0  0  0  0  0  0  0  0  0
   -2.9511    0.1526   -1.2693 C   0  0  0  0  0  0  0  0  0  0  0  0
   -3.0140   -0.7396   -0.6597 H   0  0  0  0  0  0  0  0  0  0  0  0
   -0.1073    0.0565    1.7296 C   0  0  0  0  0  0  0  0  0  0  0  0
    1.0285   -0.1699    2.1459 O   0  0  0  0  0  0  0  0  0  0  0  0
   -1.0395    0.6588    2.4785 N   0  0  0  0  0  0  0  0  0  0  0  0
   -1.9636    0.7597    2.0849 H   0  0  0  0  0  0  0  0  0  0  0  0
   -0.8222    1.1334    3.8425 C   0  0  0  0  0  0  0  0  0  0  0  0
   -0.0212    1.8761    3.8521 H   0  0  0  0  0  0  0  0  0  0  0  0
   -1.7349    1.5853    4.2320 H   0  0  0  0  0  0  0  0  0  0  0  0
   -0.5312    0.2997    4.4834 H   0  0  0  0  0  0  0  0  0  0  0  0
  5  6  2  0  0  0  0
  5  7  1  0  0  0  0
  2  3  1  0  0  0  0
  2  4  1  0  0  0  0
  2  5  1  0  0  0  0
  1  2  1  0  0  0  0
 22 23  2  0  0  0  0
 22 24  1  0  0  0  0
 20 21  1  0  0  0  0
 19 20  1  0  0  0  0
 17 18  1  0  0  0  0
 17 19  2  0  0  0  0
 15 16  1  0  0  0  0
 15 17  1  0  0  0  0
 14 15  1  0  0  0  0
 14 20  2  0  0  0  0
 11 12  1  0  0  0  0
 11 13  1  0  0  0  0
 11 14  1  0  0  0  0
  9 10  1  0  0  0  0
  9 11  1  0  0  0  0
  9 22  1  0  0  0  0
  7  8  1  0  0  0  0
  7  9  1  0  0  0  0
 26 27  1  0  0  0  0
 26 28  1  0  0  0  0
 26 29  1  0  0  0  0
 24 25  1  0  0  0  0
 24 26  1  0  0  0  0
M  END
$$$$
default_name
  -OEChem-02102213163D

 29 29  0     1  0  0  0  0  0999 V2000
   -3.6042   -3.5728    1.4576 H   0  0  0  0  0  0  0  0  0  0  0  0
   -3.5202   -2.6488    0.8866 C   0  0  0  0  0  0  0  0  0  0  0  0
   -4.2052   -1.9048    1.2896 H   0  0  0  0  0  0  0  0  0  0  0  0
   -3.7552   -2.8428   -0.1584 H   0  0  0  0  0  0  0  0  0  0  0  0
   -2.1052   -2.1358    0.9946 C   0  0  0  0  0  0  0  0  0  0  0  0
   -1.2852   -2.7288    1.6826 O   0  0  0  0  0  0  0  0  0  0  0  0
   -1.8202   -1.0288    0.3146 N   0  0  0  0  0  0  0  0  0  0  0  0
   -2.5542   -0.5788   -0.2104 H   0  0  0  0  0  0  0  0  0  0  0  0
   -0.5102   -0.3728    0.3086 C   0  0  1  0  0  0  0  0  0  0  0  0
    0.2354   -1.0844   -0.0490 H   0  0  0  0  0  0  0  0  0  0  0  0
   -0.5452    0.8158   -0.6698 C   0  0  0  0  0  0  0  0  0  0  0  0
   -0.3051    1.7321   -0.1276 H   0  0  0  0  0  0  0  0  0  0  0  0
    0.2189    0.6689   -1.4354 H   0  0  0  0  0  0  0  0  0  0  0  0
   -1.8764    0.9973   -1.3518 C   0  0  0  0  0  0  0  0  0  0  0  0
   -2.1235    1.7702   -2.4661 N   0  0  0  0  0  0  0  0  0  0  0  0
   -1.4627    2.3773   -2.9275 H   0  0  0  0  0  0  0  0  0  0  0  0
   -3.4029    1.5785   -2.8294 C   0  0  0  0  0  0  0  0  0  0  0  0
   -3.8936    2.0560   -3.6687 H   0  0  0  0  0  0  0  0  0  0  0  0
   -3.9940    0.7028   -2.0035 N   0  0  0  0  0  0  0  0  0  0  0  0
   -3.0353    0.3295   -1.0579 C   0  0  0  0  0  0  0  0  0  0  0  0
   -3.1717   -0.3869   -0.2581 H   0  0  0  0  0  0  0  0  0  0  0  0
   -0.1073    0.0565    1.7296 C   0  0  0  0  0  0  0  0  0  0  0  0
    1.0285   -0.1699    2.1459 O   0  0  0  0  0  0  0  0  0  0  0  0
   -1.0395    0.6588    2.4785 N   0  0  0  0  0  0  0  0  0  0  0  0
   -1.9636    0.7597    2.0849 H   0  0  0  0  0  0  0  0  0  0  0  0
   -0.8222    1.1334    3.8425 C   0  0  0  0  0  0  0  0  0  0  0  0
   -0.0212    1.8761    3.8521 H   0  0  0  0  0  0  0  0  0  0  0  0
   -1.7349    1.5853    4.2320 H   0  0  0  0  0  0  0  0  0  0  0  0
   -0.5312    0.2997    4.4834 H   0  0  0  0  0  0  0  0  0  0  0  0
  5  6  2  0  0  0  0
  5  7  1  0  0  0  0
  2  3  1  0  0  0  0
  2  4  1  0  0  0  0
  2  5  1  0  0  0  0
  1  2  1  0  0  0  0
 22 23  2  0  0  0  0
 22 24  1  0  0  0  0
 20 21  1  0  0  0  0
 19 20  1  0  0  0  0
 17 18  1  0  0  0  0
 17 19  2  0  0  0  0
 15 16  1  0  0  0  0
 15 17  1  0  0  0  0
 14 15  1  0  0  0  0
 14 20  2  0  0  0  0
 11 12  1  0  0  0  0
 11 13  1  0  0  0  0
 11 14  1  0  0  0  0
  9 10  1  0  0  0  0
  9 11  1  0  0  0  0
  9 22  1  0  0  0  0
  7  8  1  0  0  0  0
  7  9  1  0  0  0  0
 26 27  1  0  0  0  0
 26 28  1  0  0  0  0
 26 29  1  0  0  0  0
 24 25  1  0  0  0  0
 24 26  1  0  0  0  0
M  END
$$$$
default_name
  -OEChem-02102213163D

 29 29  0     1  0  0  0  0  0999 V2000
   -3.6042   -3.5728    1.4576 H   0  0  0  0  0  0  0  0  0  0  0  0
   -3.5202   -2.6488    0.8866 C   0  0  0  0  0  0  0  0  0  0  0  0
   -4.2052   -1.9048    1.2896 H   0  0  0  0  0  0  0  0  0  0  0  0
   -3.7552   -2.8428   -0.1584 H   0  0  0  0  0  0  0  0  0  0  0  0
   -2.1052   -2.1358    0.9946 C   0  0  0  0  0  0  0  0  0  0  0  0
   -1.2852   -2.7288    1.6826 O   0  0  0  0  0  0  0  0  0  0  0  0
   -1.8202   -1.0288    0.3146 N   0  0  0  0  0  0  0  0  0  0  0  0
   -2.5542   -0.5788   -0.2104 H   0  0  0  0  0  0  0  0  0  0  0  0
   -0.5102   -0.3728    0.3086 C   0  0  1  0  0  0  0  0  0  0  0  0
    0.2354   -1.0844   -0.0490 H   0  0  0  0  0  0  0  0  0  0  0  0
   -0.5452    0.8158   -0.6698 C   0  0  0  0  0  0  0  0  0  0  0  0
   -0.3051    1.7321   -0.1276 H   0  0  0  0  0  0  0  0  0  0  0  0
    0.2189    0.6689   -1.4354 H   0  0  0  0  0  0  0  0  0  0  0  0
   -1.8764    0.9973   -1.3518 C   0  0  0  0  0  0  0  0  0  0  0  0
   -2.0839    1.5213   -2.6097 N   0  0  0  0  0  0  0  0  0  0  0  0
   -1.3797    1.9236   -3.2102 H   0  0  0  0  0  0  0  0  0  0  0  0
   -3.3917    1.4082   -2.8965 C   0  0  0  0  0  0  0  0  0  0  0  0
   -3.8621    1.7386   -3.8146 H   0  0  0  0  0  0  0  0  0  0  0  0
   -4.0408    0.8206   -1.8808 N   0  0  0  0  0  0  0  0  0  0  0  0
   -3.0893    0.5586   -0.8916 C   0  0  0  0  0  0  0  0  0  0  0  0
   -3.2702    0.0641    0.0541 H   0  0  0  0  0  0  0  0  0  0  0  0
   -0.1073    0.0565    1.7296 C   0  0  0  0  0  0  0  0  0  0  0  0
    1.0285   -0.1699    2.1459 O   0  0  0  0  0  0  0  0  0  0  0  0
   -1.0395    0.6588    2.4785 N   0  0  0  0  0  0  0  0  0  0  0  0
   -1.9636    0.7597    2.0849 H   0  0  0  0  0  0  0  0  0  0  0  0
   -0.8222    1.1334    3.8425 C   0  0  0  0  0  0  0  0  0  0  0  0
   -0.0212    1.8761    3.8521 H   0  0  0  0  0  0  0  0  0  0  0  0
   -1.7349    1.5853    4.2320 H   0  0  0  0  0  0  0  0  0  0  0  0
   -0.5312    0.2997    4.4834 H   0  0  0  0  0  0  0  0  0  0  0  0
  5  6  2  0  0  0  0
  5  7  1  0  0  0  0
  2  3  1  0  0  0  0
  2  4  1  0  0  0  0
  2  5  1  0  0  0  0
  1  2  1  0  0  0  0
 22 23  2  0  0  0  0
 22 24  1  0  0  0  0
 20 21  1  0  0  0  0
 19 20  1  0  0  0  0
 17 18  1  0  0  0  0
 17 19  2  0  0  0  0
 15 16  1  0  0  0  0
 15 17  1  0  0  0  0
 14 15  1  0  0  0  0
 14 20  2  0  0  0  0
 11 12  1  0  0  0  0
 11 13  1  0  0  0  0
 11 14  1  0  0  0  0
  9 10  1  0  0  0  0
  9 11  1  0  0  0  0
  9 22  1  0  0  0  0
  7  8  1  0  0  0  0
  7  9  1  0  0  0  0
 26 27  1  0  0  0  0
 26 28  1  0  0  0  0
 26 29  1  0  0  0  0
 24 25  1  0  0  0  0
 24 26  1  0  0  0  0
M  END
$$$$
default_name
  -OEChem-02102213163D

 29 29  0     1  0  0  0  0  0999 V2000
   -3.6042   -3.5728    1.4576 H   0  0  0  0  0  0  0  0  0  0  0  0
   -3.5202   -2.6488    0.8866 C   0  0  0  0  0  0  0  0  0  0  0  0
   -4.2052   -1.9048    1.2896 H   0  0  0  0  0  0  0  0  0  0  0  0
   -3.7552   -2.8428   -0.1584 H   0  0  0  0  0  0  0  0  0  0  0  0
   -2.1052   -2.1358    0.9946 C   0  0  0  0  0  0  0  0  0  0  0  0
   -1.2852   -2.7288    1.6826 O   0  0  0  0  0  0  0  0  0  0  0  0
   -1.8202   -1.0288    0.3146 N   0  0  0  0  0  0  0  0  0  0  0  0
   -2.5542   -0.5788   -0.2104 H   0  0  0  0  0  0  0  0  0  0  0  0
   -0.5102   -0.3728    0.3086 C   0  0  1  0  0  0  0  0  0  0  0  0
    0.2354   -1.0844   -0.0490 H   0  0  0  0  0  0  0  0  0  0  0  0
   -0.5452    0.8158   -0.6698 C   0  0  0  0  0  0  0  0  0  0  0  0
   -0.3051    1.7321   -0.1276 H   0  0  0  0  0  0  0  0  0  0  0  0
    0.2189    0.6689   -1.4354 H   0  0  0  0  0  0  0  0  0  0  0  0
   -1.8764    0.9973   -1.3518 C   0  0  0  0  0  0  0  0  0  0  0  0
   -2.0792    1.2435   -2.6928 N   0  0  0  0  0  0  0  0  0  0  0  0
   -1.3615    1.4110   -3.3821 H   0  0  0  0  0  0  0  0  0  0  0  0
   -3.4029    1.2271   -2.9228 C   0  0  0  0  0  0  0  0  0  0  0  0
   -3.8734    1.3949   -3.8839 H   0  0  0  0  0  0  0  0  0  0  0  0
   -4.0683    0.9680   -1.7878 N   0  0  0  0  0  0  0  0  0  0  0  0
   -3.1094    0.8242   -0.7817 C   0  0  0  0  0  0  0  0  0  0  0  0
   -3.3027    0.5827    0.2555 H   0  0  0  0  0  0  0  0  0  0  0  0
   -0.1073    0.0565    1.7296 C   0  0  0  0  0  0  0  0  0  0  0  0
    1.0285   -0.1699    2.1459 O   0  0  0  0  0  0  0  0  0  0  0  0
   -1.0395    0.6588    2.4785 N   0  0  0  0  0  0  0  0  0  0  0  0
   -1.9636    0.7597    2.0849 H   0  0  0  0  0  0  0  0  0  0  0  0
   -0.8222    1.1334    3.8425 C   0  0  0  0  0  0  0  0  0  0  0  0
   -0.0212    1.8761    3.8521 H   0  0  0  0  0  0  0  0  0  0  0  0
   -1.7349    1.5853    4.2320 H   0  0  0  0  0  0  0  0  0  0  0  0
   -0.5312    0.2997    4.4834 H   0  0  0  0  0  0  0  0  0  0  0  0
  5  6  2  0  0  0  0
  5  7  1  0  0  0  0
  2  3  1  0  0  0  0
  2  4  1  0  0  0  0
  2  5  1  0  0  0  0
  1  2  1  0  0  0  0
 22 23  2  0  0  0  0
 22 24  1  0  0  0  0
 20 21  1  0  0  0  0
 19 20  1  0  0  0  0
 17 18  1  0  0  0  0
 17 19  2  0  0  0  0
 15 16  1  0  0  0  0
 15 17  1  0  0  0  0
 14 15  1  0  0  0  0
 14 20  2  0  0  0  0
 11 12  1  0  0  0  0
 11 13  1  0  0  0  0
 11 14  1  0  0  0  0
  9 10  1  0  0  0  0
  9 11  1  0  0  0  0
  9 22  1  0  0  0  0
  7  8  1  0  0  0  0
  7  9  1  0  0  0  0
 26 27  1  0  0  0  0
 26 28  1  0  0  0  0
 26 29  1  0  0  0  0
 24 25  1  0  0  0  0
 24 26  1  0  0  0  0
M  END
$$$$
default_name
  -OEChem-02102213163D

 29 29  0     1  0  0  0  0  0999 V2000
   -3.6042   -3.5728    1.4576 H   0  0  0  0  0  0  0  0  0  0  0  0
   -3.5202   -2.6488    0.8866 C   0  0  0  0  0  0  0  0  0  0  0  0
   -4.2052   -1.9048    1.2896 H   0  0  0  0  0  0  0  0  0  0  0  0
   -3.7552   -2.8428   -0.1584 H   0  0  0  0  0  0  0  0  0  0  0  0
   -2.1052   -2.1358    0.9946 C   0  0  0  0  0  0  0  0  0  0  0  0
   -1.2852   -2.7288    1.6826 O   0  0  0  0  0  0  0  0  0  0  0  0
   -1.8202   -1.0288    0.3146 N   0  0  0  0  0  0  0  0  0  0  0  0
   -2.5542   -0.5788   -0.2104 H   0  0  0  0  0  0  0  0  0  0  0  0
   -0.5102   -0.3728    0.3086 C   0  0  1  0  0  0  0  0  0  0  0  0
    0.2354   -1.0844   -0.0490 H   0  0  0  0  0  0  0  0  0  0  0  0
   -0.5452    0.8158   -0.6698 C   0  0  0  0  0  0  0  0  0  0  0  0
   -0.3051    1.7321   -0.1276 H   0  0  0  0  0  0  0  0  0  0  0  0
    0.2189    0.6689   -1.4354 H   0  0  0  0  0  0  0  0  0  0  0  0
   -1.8764    0.9973   -1.3518 C   0  0  0  0  0  0  0  0  0  0  0  0
   -2.1098    0.9555   -2.7097 N   0  0  0  0  0  0  0  0  0  0  0  0
   -1.4094    0.8744   -3.4315 H   0  0  0  0  0  0  0  0  0  0  0  0
   -3.4358    1.0474   -2.9065 C   0  0  0  0  0  0  0  0  0  0  0  0
   -3.9268    1.0484   -3.8719 H   0  0  0  0  0  0  0  0  0  0  0  0
   -4.0748    1.1348   -1.7308 N   0  0  0  0  0  0  0  0  0  0  0  0
   -3.0943    1.1082   -0.7356 C   0  0  0  0  0  0  0  0  0  0  0  0
   -3.2671    1.1334    0.3326 H   0  0  0  0  0  0  0  0  0  0  0  0
   -0.1073    0.0565    1.7296 C   0  0  0  0  0  0  0  0  0  0  0  0
    1.0285   -0.1699    2.1459 O   0  0  0  0  0  0  0  0  0  0  0  0
   -1.0395    0.6588    2.4785 N   0  0  0  0  0  0  0  0  0  0  0  0
   -1.9636    0.7597    2.0849 H   0  0  0  0  0  0  0  0  0  0  0  0
   -0.8222    1.1334    3.8425 C   0  0  0  0  0  0  0  0  0  0  0  0
   -0.0212    1.8761    3.8521 H   0  0  0  0  0  0  0  0  0  0  0  0
   -1.7349    1.5853    4.2320 H   0  0  0  0  0  0  0  0  0  0  0  0
   -0.5312    0.2997    4.4834 H   0  0  0  0  0  0  0  0  0  0  0  0
  5  6  2  0  0  0  0
  5  7  1  0  0  0  0
  2  3  1  0  0  0  0
  2  4  1  0  0  0  0
  2  5  1  0  0  0  0
  1  2  1  0  0  0  0
 22 23  2  0  0  0  0
 22 24  1  0  0  0  0
 20 21  1  0  0  0  0
 19 20  1  0  0  0  0
 17 18  1  0  0  0  0
 17 19  2  0  0  0  0
 15 16  1  0  0  0  0
 15 17  1  0  0  0  0
 14 15  1  0  0  0  0
 14 20  2  0  0  0  0
 11 12  1  0  0  0  0
 11 13  1  0  0  0  0
 11 14  1  0  0  0  0
  9 10  1  0  0  0  0
  9 11  1  0  0  0  0
  9 22  1  0  0  0  0
  7  8  1  0  0  0  0
  7  9  1  0  0  0  0
 26 27  1  0  0  0  0
 26 28  1  0  0  0  0
 26 29  1  0  0  0  0
 24 25  1  0  0  0  0
 24 26  1  0  0  0  0
M  END
$$$$
default_name
  -OEChem-02102213163D

 29 29  0     1  0  0  0  0  0999 V2000
   -3.6042   -3.5728    1.4576 H   0  0  0  0  0  0  0  0  0  0  0  0
   -3.5202   -2.6488    0.8866 C   0  0  0  0  0  0  0  0  0  0  0  0
   -4.2052   -1.9048    1.2896 H   0  0  0  0  0  0  0  0  0  0  0  0
   -3.7552   -2.8428   -0.1584 H   0  0  0  0  0  0  0  0  0  0  0  0
   -2.1052   -2.1358    0.9946 C   0  0  0  0  0  0  0  0  0  0  0  0
   -1.2852   -2.7288    1.6826 O   0  0  0  0  0  0  0  0  0  0  0  0
   -1.8202   -1.0288    0.3146 N   0  0  0  0  0  0  0  0  0  0  0  0
   -2.5542   -0.5788   -0.2104 H   0  0  0  0  0  0  0  0  0  0  0  0
   -0.5102   -0.3728    0.3086 C   0  0  1  0  0  0  0  0  0  0  0  0
    0.2354   -1.0844   -0.0490 H   0  0  0  0  0  0  0  0  0  0  0  0
   -0.5452    0.8158   -0.6698 C   0  0  0  0  0  0  0  0  0  0  0  0
   -0.3051    1.7321   -0.1276 H   0  0  0  0  0  0  0  0  0  0  0  0
    0.2189    0.6689   -1.4354 H   0  0  0  0  0  0  0  0  0  0  0  0
   -1.8764    0.9973   -1.3518 C   0  0  0  0  0  0  0  0  0  0  0  0
   -2.1736    0.6771   -2.6592 N   0  0  0  0  0  0  0  0  0  0  0  0
   -1.5200    0.3504   -3.3550 H   0  0  0  0  0  0  0  0  0  0  0  0
   -3.4881    0.8814   -2.8485 C   0  0  0  0  0  0  0  0  0  0  0  0
   -4.0185    0.7227   -3.7795 H   0  0  0  0  0  0  0  0  0  0  0  0
   -4.0597    1.3097   -1.7136 N   0  0  0  0  0  0  0  0  0  0  0  0
   -3.0450    1.3914   -0.7565 C   0  0  0  0  0  0  0  0  0  0  0  0
   -3.1658    1.6789    0.2800 H   0  0  0  0  0  0  0  0  0  0  0  0
   -0.1073    0.0565    1.7296 C   0  0  0  0  0  0  0  0  0  0  0  0
    1.0285   -0.1699    2.1459 O   0  0  0  0  0  0  0  0  0  0  0  0
   -1.0395    0.6588    2.4785 N   0  0  0  0  0  0  0  0  0  0  0  0
   -1.9636    0.7597    2.0849 H   0  0  0  0  0  0  0  0  0  0  0  0
   -0.8222    1.1334    3.8425 C   0  0  0  0  0  0  0  0  0  0  0  0
   -0.0212    1.8761    3.8521 H   0  0  0  0  0  0  0  0  0  0  0  0
   -1.7349    1.5853    4.2320 H   0  0  0  0  0  0  0  0  0  0  0  0
   -0.5312    0.2997    4.4834 H   0  0  0  0  0  0  0  0  0  0  0  0
  5  6  2  0  0  0  0
  5  7  1  0  0  0  0
  2  3  1  0  0  0  0
  2  4  1  0  0  0  0
  2  5  1  0  0  0  0
  1  2  1  0  0  0  0
 22 23  2  0  0  0  0
 22 24  1  0  0  0  0
 20 21  1  0  0  0  0
 19 20  1  0  0  0  0
 17 18  1  0  0  0  0
 17 19  2  0  0  0  0
 15 16  1  0  0  0  0
 15 17  1  0  0  0  0
 14 15  1  0  0  0  0
 14 20  2  0  0  0  0
 11 12  1  0  0  0  0
 11 13  1  0  0  0  0
 11 14  1  0  0  0  0
  9 10  1  0  0  0  0
  9 11  1  0  0  0  0
  9 22  1  0  0  0  0
  7  8  1  0  0  0  0
  7  9  1  0  0  0  0
 26 27  1  0  0  0  0
 26 28  1  0  0  0  0
 26 29  1  0  0  0  0
 24 25  1  0  0  0  0
 24 26  1  0  0  0  0
M  END
$$$$
default_name
  -OEChem-02102213163D

 29 29  0     1  0  0  0  0  0999 V2000
   -3.6042   -3.5728    1.4576 H   0  0  0  0  0  0  0  0  0  0  0  0
   -3.5202   -2.6488    0.8866 C   0  0  0  0  0  0  0  0  0  0  0  0
   -4.2052   -1.9048    1.2896 H   0  0  0  0  0  0  0  0  0  0  0  0
   -3.7552   -2.8428   -0.1584 H   0  0  0  0  0  0  0  0  0  0  0  0
   -2.1052   -2.1358    0.9946 C   0  0  0  0  0  0  0  0  0  0  0  0
   -1.2852   -2.7288    1.6826 O   0  0  0  0  0  0  0  0  0  0  0  0
   -1.8202   -1.0288    0.3146 N   0  0  0  0  0  0  0  0  0  0  0  0
   -2.5542   -0.5788   -0.2104 H   0  0  0  0  0  0  0  0  0  0  0  0
   -0.5102   -0.3728    0.3086 C   0  0  1  0  0  0  0  0  0  0  0  0
    0.2354   -1.0844   -0.0490 H   0  0  0  0  0  0  0  0  0  0  0  0
   -0.5452    0.8158   -0.6698 C   0  0  0  0  0  0  0  0  0  0  0  0
   -0.3051    1.7321   -0.1276 H   0  0  0  0  0  0  0  0  0  0  0  0
    0.2189    0.6689   -1.4354 H   0  0  0  0  0  0  0  0  0  0  0  0
   -1.8764    0.9973   -1.3518 C   0  0  0  0  0  0  0  0  0  0  0  0
   -2.2663    0.4272   -2.5447 N   0  0  0  0  0  0  0  0  0  0  0  0
   -1.6858   -0.1252   -3.1579 H   0  0  0  0  0  0  0  0  0  0  0  0
   -3.5562    0.7405   -2.7530 C   0  0  0  0  0  0  0  0  0  0  0  0
   -4.1424    0.4400   -3.6128 H   0  0  0  0  0  0  0  0  0  0  0  0
   -4.0241    1.4809   -1.7375 N   0  0  0  0  0  0  0  0  0  0  0  0
   -2.9648    1.6543   -0.8429 C   0  0  0  0  0  0  0  0  0  0  0  0
   -3.0057    2.1818    0.1012 H   0  0  0  0  0  0  0  0  0  0  0  0
   -0.1073    0.0565    1.7296 C   0  0  0  0  0  0  0  0  0  0  0  0
    1.0285   -0.1699    2.1459 O   0  0  0  0  0  0  0  0  0  0  0  0
   -1.0395    0.6588    2.4785 N   0  0  0  0  0  0  0  0  0  0  0  0
   -1.9636    0.7597    2.0849 H   0  0  0  0  0  0  0  0  0  0  0  0
   -0.8222    1.1334    3.8425 C   0  0  0  0  0  0  0  0  0  0  0  0
   -0.0212    1.8761    3.8521 H   0  0  0  0  0  0  0  0  0  0  0  0
   -1.7349    1.5853    4.2320 H   0  0  0  0  0  0  0  0  0  0  0  0
   -0.5312    0.2997    4.4834 H   0  0  0  0  0  0  0  0  0  0  0  0
  5  6  2  0  0  0  0
  5  7  1  0  0  0  0
  2  3  1  0  0  0  0
  2  4  1  0  0  0  0
  2  5  1  0  0  0  0
  1  2  1  0  0  0  0
 22 23  2  0  0  0  0
 22 24  1  0  0  0  0
 20 21  1  0  0  0  0
 19 20  1  0  0  0  0
 17 18  1  0  0  0  0
 17 19  2  0  0  0  0
 15 16  1  0  0  0  0
 15 17  1  0  0  0  0
 14 15  1  0  0  0  0
 14 20  2  0  0  0  0
 11 12  1  0  0  0  0
 11 13  1  0  0  0  0
 11 14  1  0  0  0  0
  9 10  1  0  0  0  0
  9 11  1  0  0  0  0
  9 22  1  0  0  0  0
  7  8  1  0  0  0  0
  7  9  1  0  0  0  0
 26 27  1  0  0  0  0
 26 28  1  0  0  0  0
 26 29  1  0  0  0  0
 24 25  1  0  0  0  0
 24 26  1  0  0  0  0
M  END
$$$$
default_name
  -OEChem-02102213163D

 29 29  0     1  0  0  0  0  0999 V2000
   -3.6042   -3.5728    1.4576 H   0  0  0  0  0  0  0  0  0  0  0  0
   -3.5202   -2.6488    0.8866 C   0  0  0  0  0  0  0  0  0  0  0  0
   -4.2052   -1.9048    1.2896 H   0  0  0  0  0  0  0  0  0  0  0  0
   -3.7552   -2.8428   -0.1584 H   0  0  0  0  0  0  0  0  0  0  0  0
   -2.1052   -2.1358    0.9946 C   0  0  0  0  0  0  0  0  0  0  0  0
   -1.2852   -2.7288    1.6826 O   0  0  0  0  0  0  0  0  0  0  0  0
   -1.8202   -1.0288    0.3146 N   0  0  0  0  0  0  0  0  0  0  0  0
   -2.5542   -0.5788   -0.2104 H   0  0  0  0  0  0  0  0  0  0  0  0
   -0.5102   -0.3728    0.3086 C   0  0  1  0  0  0  0  0  0  0  0  0
    0.2354   -1.0844   -0.0490 H   0  0  0  0  0  0  0  0  0  0  0  0
   -0.5452    0.8158   -0.6698 C   0  0  0  0  0  0  0  0  0  0  0  0
   -0.3051    1.7321   -0.1276 H   0  0  0  0  0  0  0  0  0  0  0  0
    0.2189    0.6689   -1.4354 H   0  0  0  0  0  0  0  0  0  0  0  0
   -1.8764    0.9973   -1.3518 C   0  0  0  0  0  0  0  0  0  0  0  0
   -2.3815    0.2229   -2.3742 N   0  0  0  0  0  0  0  0  0  0  0  0
   -1.8956   -0.5202   -2.8535 H   0  0  0  0  0  0  0  0  0  0  0  0
   -3.6356    0.6342   -2.6264 C   0  0  0  0  0  0  0  0  0  0  0  0
   -4.2900    0.2196   -3.3834 H   0  0  0  0  0  0  0  0  0  0  0  0
   -3.9705    1.6366   -1.8009 N   0  0  0  0  0  0  0  0  0  0  0  0
   -2.8593    1.8791   -0.9891 C   0  0  0  0  0  0  0  0  0  0  0  0
   -2.7977    2.6080   -0.1914 H   0  0  0  0  0  0  0  0  0  0  0  0
   -0.1073    0.0565    1.7296 C   0  0  0  0  0  0  0  0  0  0  0  0
    1.0285   -0.1699    2.1459 O   0  0  0  0  0  0  0  0  0  0  0  0
   -1.0395    0.6588    2.4785 N   0  0  0  0  0  0  0  0  0  0  0  0
   -1.9636    0.7597    2.0849 H   0  0  0  0  0  0  0  0  0  0  0  0
   -0.8222    1.1334    3.8425 C   0  0  0  0  0  0  0  0  0  0  0  0
   -0.0212    1.8761    3.8521 H   0  0  0  0  0  0  0  0  0  0  0  0
   -1.7349    1.5853    4.2320 H   0  0  0  0  0  0  0  0  0  0  0  0
   -0.5312    0.2997    4.4834 H   0  0  0  0  0  0  0  0  0  0  0  0
  5  6  2  0  0  0  0
  5  7  1  0  0  0  0
  2  3  1  0  0  0  0
  2  4  1  0  0  0  0
  2  5  1  0  0  0  0
  1  2  1  0  0  0  0
 22 23  2  0  0  0  0
 22 24  1  0  0  0  0
 20 21  1  0  0  0  0
 19 20  1  0  0  0  0
 17 18  1  0  0  0  0
 17 19  2  0  0  0  0
 15 16  1  0  0  0  0
 15 17  1  0  0  0  0
 14 15  1  0  0  0  0
 14 20  2  0  0  0  0
 11 12  1  0  0  0  0
 11 13  1  0  0  0  0
 11 14  1  0  0  0  0
  9 10  1  0  0  0  0
  9 11  1  0  0  0  0
  9 22  1  0  0  0  0
  7  8  1  0  0  0  0
  7  9  1  0  0  0  0
 26 27  1  0  0  0  0
 26 28  1  0  0  0  0
 26 29  1  0  0  0  0
 24 25  1  0  0  0  0
 24 26  1  0  0  0  0
M  END
$$$$
default_name
  -OEChem-02102213163D

 29 29  0     1  0  0  0  0  0999 V2000
   -3.6042   -3.5728    1.4576 H   0  0  0  0  0  0  0  0  0  0  0  0
   -3.5202   -2.6488    0.8866 C   0  0  0  0  0  0  0  0  0  0  0  0
   -4.2052   -1.9048    1.2896 H   0  0  0  0  0  0  0  0  0  0  0  0
   -3.7552   -2.8428   -0.1584 H   0  0  0  0  0  0  0  0  0  0  0  0
   -2.1052   -2.1358    0.9946 C   0  0  0  0  0  0  0  0  0  0  0  0
   -1.2852   -2.7288    1.6826 O   0  0  0  0  0  0  0  0  0  0  0  0
   -1.8202   -1.0288    0.3146 N   0  0  0  0  0  0  0  0  0  0  0  0
   -2.5542   -0.5788   -0.2104 H   0  0  0  0  0  0  0  0  0  0  0  0
   -0.5102   -0.3728    0.3086 C   0  0  1  0  0  0  0  0  0  0  0  0
    0.2354   -1.0844   -0.0490 H   0  0  0  0  0  0  0  0  0  0  0  0
   -0.5452    0.8158   -0.6698 C   0  0  0  0  0  0  0  0  0  0  0  0
   -0.3051    1.7321   -0.1276 H   0  0  0  0  0  0  0  0  0  0  0  0
    0.2189    0.6689   -1.4354 H   0  0  0  0  0  0  0  0  0  0  0  0
   -1.8764    0.9973   -1.3518 C   0  0  0  0  0  0  0  0  0  0  0  0
   -2.5115    0.0780   -2.1591 N   0  0  0  0  0  0  0  0  0  0  0  0
   -2.1350   -0.8076   -2.4627 H   0  0  0  0  0  0  0  0  0  0  0  0
   -3.7207    0.5697   -2.4773 C   0  0  0  0  0  0  0  0  0  0  0  0
   -4.4513    0.0764   -3.1067 H   0  0  0  0  0  0  0  0  0  0  0  0
   -3.9024    1.7661   -1.8994 N   0  0  0  0  0  0  0  0  0  0  0  0
   -2.7356    2.0505   -1.1850 C   0  0  0  0  0  0  0  0  0  0  0  0
   -2.5559    2.9284   -0.5780 H   0  0  0  0  0  0  0  0  0  0  0  0
   -0.1073    0.0565    1.7296 C   0  0  0  0  0  0  0  0  0  0  0  0
    1.0285   -0.1699    2.1459 O   0  0  0  0  0  0  0  0  0  0  0  0
   -1.0395    0.6588    2.4785 N   0  0  0  0  0  0  0  0  0  0  0  0
   -1.9636    0.7597    2.0849 H   0  0  0  0  0  0  0  0  0  0  0  0
   -0.8222    1.1334    3.8425 C   0  0  0  0  0  0  0  0  0  0  0  0
   -0.0212    1.8761    3.8521 H   0  0  0  0  0  0  0  0  0  0  0  0
   -1.7349    1.5853    4.2320 H   0  0  0  0  0  0  0  0  0  0  0  0
   -0.5312    0.2997    4.4834 H   0  0  0  0  0  0  0  0  0  0  0  0
  5  6  2  0  0  0  0
  5  7  1  0  0  0  0
  2  3  1  0  0  0  0
  2  4  1  0  0  0  0
  2  5  1  0  0  0  0
  1  2  1  0  0  0  0
 22 23  2  0  0  0  0
 22 24  1  0  0  0  0
 20 21  1  0  0  0  0
 19 20  1  0  0  0  0
 17 18  1  0  0  0  0
 17 19  2  0  0  0  0
 15 16  1  0  0  0  0
 15 17  1  0  0  0  0
 14 15  1  0  0  0  0
 14 20  2  0  0  0  0
 11 12  1  0  0  0  0
 11 13  1  0  0  0  0
 11 14  1  0  0  0  0
  9 10  1  0  0  0  0
  9 11  1  0  0  0  0
  9 22  1  0  0  0  0
  7  8  1  0  0  0  0
  7  9  1  0  0  0  0
 26 27  1  0  0  0  0
 26 28  1  0  0  0  0
 26 29  1  0  0  0  0
 24 25  1  0  0  0  0
 24 26  1  0  0  0  0
M  END
$$$$
default_name
  -OEChem-02102213163D

 29 29  0     1  0  0  0  0  0999 V2000
   -3.6042   -3.5728    1.4576 H   0  0  0  0  0  0  0  0  0  0  0  0
   -3.5202   -2.6488    0.8866 C   0  0  0  0  0  0  0  0  0  0  0  0
   -4.2052   -1.9048    1.2896 H   0  0  0  0  0  0  0  0  0  0  0  0
   -3.7552   -2.8428   -0.1584 H   0  0  0  0  0  0  0  0  0  0  0  0
   -2.1052   -2.1358    0.9946 C   0  0  0  0  0  0  0  0  0  0  0  0
   -1.2852   -2.7288    1.6826 O   0  0  0  0  0  0  0  0  0  0  0  0
   -1.8202   -1.0288    0.3146 N   0  0  0  0  0  0  0  0  0  0  0  0
   -2.5542   -0.5788   -0.2104 H   0  0  0  0  0  0  0  0  0  0  0  0
   -0.5102   -0.3728    0.3086 C   0  0  1  0  0  0  0  0  0  0  0  0
    0.2354   -1.0844   -0.0490 H   0  0  0  0  0  0  0  0  0  0  0  0
   -0.5452    0.8158   -0.6698 C   0  0  0  0  0  0  0  0  0  0  0  0
   -0.3051    1.7321   -0.1276 H   0  0  0  0  0  0  0  0  0  0  0  0
    0.2189    0.6689   -1.4354 H   0  0  0  0  0  0  0  0  0  0  0  0
   -1.8764    0.9973   -1.3518 C   0  0  0  0  0  0  0  0  0  0  0  0
   -2.6473    0.0025   -1.9142 N   0  0  0  0  0  0  0  0  0  0  0  0
   -2.3877   -0.9677   -2.0120 H   0  0  0  0  0  0  0  0  0  0  0  0
   -3.8059    0.5516   -2.3159 C   0  0  0  0  0  0  0  0  0  0  0  0
   -4.6152    0.0203   -2.8017 H   0  0  0  0  0  0  0  0  0  0  0  0
   -3.8245    1.8608   -2.0262 N   0  0  0  0  0  0  0  0  0  0  0  0
   -2.6022    2.1567   -1.4172 C   0  0  0  0  0  0  0  0  0  0  0  0
   -2.2969    3.1211   -1.0322 H   0  0  0  0  0  0  0  0  0  0  0  0
   -0.1073    0.0565    1.7296 C   0  0  0  0  0  0  0  0  0  0  0  0
    1.0285   -0.1699    2.1459 O   0  0  0  0  0  0  0  0  0  0  0  0
   -1.0395    0.6588    2.4785 N   0  0  0  0  0  0  0  0  0  0  0  0
   -1.9636    0.7597    2.0849 H   0  0  0  0  0  0  0  0  0  0  0  0
   -0.8222    1.1334    3.8425 C   0  0  0  0  0  0  0  0  0  0  0  0
   -0.0212    1.8761    3.8521 H   0  0  0  0  0  0  0  0  0  0  0  0
   -1.7349    1.5853    4.2320 H   0  0  0  0  0  0  0  0  0  0  0  0
   -0.5312    0.2997    4.4834 H   0  0  0  0  0  0  0  0  0  0  0  0
  5  6  2  0  0  0  0
  5  7  1  0  0  0  0
  2  3  1  0  0  0  0
  2  4  1  0  0  0  0
  2  5  1  0  0  0  0
  1  2  1  0  0  0  0
 22 23  2  0  0  0  0
 22 24  1  0  0  0  0
 20 21  1  0  0  0  0
 19 20  1  0  0  0  0
 17 18  1  0  0  0  0
 17 19  2  0  0  0  0
 15 16  1  0  0  0  0
 15 17  1  0  0  0  0
 14 15  1  0  0  0  0
 14 20  2  0  0  0  0
 11 12  1  0  0  0  0
 11 13  1  0  0  0  0
 11 14  1  0  0  0  0
  9 10  1  0  0  0  0
  9 11  1  0  0  0  0
  9 22  1  0  0  0  0
  7  8  1  0  0  0  0
  7  9  1  0  0  0  0
 26 27  1  0  0  0  0
 26 28  1  0  0  0  0
 26 29  1  0  0  0  0
 24 25  1  0  0  0  0
 24 26  1  0  0  0  0
M  END
$$$$
default_name
  -OEChem-02102213163D

 29 29  0     1  0  0  0  0  0999 V2000
   -3.6042   -3.5728    1.4576 H   0  0  0  0  0  0  0  0  0  0  0  0
   -3.5202   -2.6488    0.8866 C   0  0  0  0  0  0  0  0  0  0  0  0
   -4.2052   -1.9048    1.2896 H   0  0  0  0  0  0  0  0  0  0  0  0
   -3.7552   -2.8428   -0.1584 H   0  0  0  0  0  0  0  0  0  0  0  0
   -2.1052   -2.1358    0.9946 C   0  0  0  0  0  0  0  0  0  0  0  0
   -1.2852   -2.7288    1.6826 O   0  0  0  0  0  0  0  0  0  0  0  0
   -1.8202   -1.0288    0.3146 N   0  0  0  0  0  0  0  0  0  0  0  0
   -2.5542   -0.5788   -0.2104 H   0  0  0  0  0  0  0  0  0  0  0  0
   -0.5102   -0.3728    0.3086 C   0  0  1  0  0  0  0  0  0  0  0  0
    0.2354   -1.0844   -0.0490 H   0  0  0  0  0  0  0  0  0  0  0  0
   -0.5452    0.8158   -0.6698 C   0  0  0  0  0  0  0  0  0  0  0  0
   -0.3051    1.7321   -0.1276 H   0  0  0  0  0  0  0  0  0  0  0  0
    0.2189    0.6689   -1.4354 H   0  0  0  0  0  0  0  0  0  0  0  0
   -1.8764    0.9973   -1.3518 C   0  0  0  0  0  0  0  0  0  0  0  0
   -2.7796    0.0014   -1.6561 N   0  0  0  0  0  0  0  0  0  0  0  0
   -2.6365   -0.9897   -1.5322 H   0  0  0  0  0  0  0  0  0  0  0  0
   -3.8853    0.5809   -2.1532 C   0  0  0  0  0  0  0  0  0  0  0  0
   -4.7706    0.0551   -2.4892 H   0  0  0  0  0  0  0  0  0  0  0  0
   -3.7421    1.9141   -2.1729 N   0  0  0  0  0  0  0  0  0  0  0  0
   -2.4680    2.1906   -1.6700 C   0  0  0  0  0  0  0  0  0  0  0  0
   -2.0384    3.1731   -1.5231 H   0  0  0  0  0  0  0  0  0  0  0  0
   -0.1073    0.0565    1.7296 C   0  0  0  0  0  0  0  0  0  0  0  0
    1.0285   -0.1699    2.1459 O   0  0  0  0  0  0  0  0  0  0  0  0
   -1.0395    0.6588    2.4785 N   0  0  0  0  0  0  0  0  0  0  0  0
   -1.9636    0.7597    2.0849 H   0  0  0  0  0  0  0  0  0  0  0  0
   -0.8222    1.1334    3.8425 C   0  0  0  0  0  0  0  0  0  0  0  0
   -0.0212    1.8761    3.8521 H   0  0  0  0  0  0  0  0  0  0  0  0
   -1.7349    1.5853    4.2320 H   0  0  0  0  0  0  0  0  0  0  0  0
   -0.5312    0.2997    4.4834 H   0  0  0  0  0  0  0  0  0  0  0  0
  5  6  2  0  0  0  0
  5  7  1  0  0  0  0
  2  3  1  0  0  0  0
  2  4  1  0  0  0  0
  2  5  1  0  0  0  0
  1  2  1  0  0  0  0
 22 23  2  0  0  0  0
 22 24  1  0  0  0  0
 20 21  1  0  0  0  0
 19 20  1  0  0  0  0
 17 18  1  0  0  0  0
 17 19  2  0  0  0  0
 15 16  1  0  0  0  0
 15 17  1  0  0  0  0
 14 15  1  0  0  0  0
 14 20  2  0  0  0  0
 11 12  1  0  0  0  0
 11 13  1  0  0  0  0
 11 14  1  0  0  0  0
  9 10  1  0  0  0  0
  9 11  1  0  0  0  0
  9 22  1  0  0  0  0
  7  8  1  0  0  0  0
  7  9  1  0  0  0  0
 26 27  1  0  0  0  0
 26 28  1  0  0  0  0
 26 29  1  0  0  0  0
 24 25  1  0  0  0  0
 24 26  1  0  0  0  0
M  END
$$$$
default_name
  -OEChem-02102213163D

 29 29  0     1  0  0  0  0  0999 V2000
   -3.6042   -3.5728    1.4576 H   0  0  0  0  0  0  0  0  0  0  0  0
   -3.5202   -2.6488    0.8866 C   0  0  0  0  0  0  0  0  0  0  0  0
   -4.2052   -1.9048    1.2896 H   0  0  0  0  0  0  0  0  0  0  0  0
   -3.7552   -2.8428   -0.1584 H   0  0  0  0  0  0  0  0  0  0  0  0
   -2.1052   -2.1358    0.9946 C   0  0  0  0  0  0  0  0  0  0  0  0
   -1.2852   -2.7288    1.6826 O   0  0  0  0  0  0  0  0  0  0  0  0
   -1.8202   -1.0288    0.3146 N   0  0  0  0  0  0  0  0  0  0  0  0
   -2.5542   -0.5788   -0.2104 H   0  0  0  0  0  0  0  0  0  0  0  0
   -0.5102   -0.3728    0.3086 C   0  0  1  0  0  0  0  0  0  0  0  0
    0.2354   -1.0844   -0.0490 H   0  0  0  0  0  0  0  0  0  0  0  0
   -0.5452    0.8158   -0.6698 C   0  0  0  0  0  0  0  0  0  0  0  0
   -0.3051    1.7321   -0.1276 H   0  0  0  0  0  0  0  0  0  0  0  0
    0.2189    0.6689   -1.4354 H   0  0  0  0  0  0  0  0  0  0  0  0
   -1.8764    0.9973   -1.3518 C   0  0  0  0  0  0  0  0  0  0  0  0
   -2.8995    0.0750   -1.4024 N   0  0  0  0  0  0  0  0  0  0  0  0
   -2.8645   -0.8721   -1.0559 H   0  0  0  0  0  0  0  0  0  0  0  0
   -3.9534    0.6558   -2.0002 C   0  0  0  0  0  0  0  0  0  0  0  0
   -4.9069    0.1783   -2.1904 H   0  0  0  0  0  0  0  0  0  0  0  0
   -3.6608    1.9225   -2.3292 N   0  0  0  0  0  0  0  0  0  0  0  0
   -2.3424    2.1498   -1.9261 C   0  0  0  0  0  0  0  0  0  0  0  0
   -1.7978    3.0807   -2.0172 H   0  0  0  0  0  0  0  0  0  0  0  0
   -0.1073    0.0565    1.7296 C   0  0  0  0  0  0  0  0  0  0  0  0
    1.0285   -0.1699    2.1459 O   0  0  0  0  0  0  0  0  0  0  0  0
   -1.0395    0.6588    2.4785 N   0  0  0  0  0  0  0  0  0  0  0  0
   -1.9636    0.7597    2.0849 H   0  0  0  0  0  0  0  0  0  0  0  0
   -0.8222    1.1334    3.8425 C   0  0  0  0  0  0  0  0  0  0  0  0
   -0.0212    1.8761    3.8521 H   0  0  0  0  0  0  0  0  0  0  0  0
   -1.7349    1.5853    4.2320 H   0  0  0  0  0  0  0  0  0  0  0  0
   -0.5312    0.2997    4.4834 H   0  0  0  0  0  0  0  0  0  0  0  0
  5  6  2  0  0  0  0
  5  7  1  0  0  0  0
  2  3  1  0  0  0  0
  2  4  1  0  0  0  0
  2  5  1  0  0  0  0
  1  2  1  0  0  0  0
 22 23  2  0  0  0  0
 22 24  1  0  0  0  0
 20 21  1  0  0  0  0
 19 20  1  0  0  0  0
 17 18  1  0  0  0  0
 17 19  2  0  0  0  0
 15 16  1  0  0  0  0
 15 17  1  0  0  0  0
 14 15  1  0  0  0  0
 14 20  2  0  0  0  0
 11 12  1  0  0  0  0
 11 13  1  0  0  0  0
 11 14  1  0  0  0  0
  9 10  1  0  0  0  0
  9 11  1  0  0  0  0
  9 22  1  0  0  0  0
  7  8  1  0  0  0  0
  7  9  1  0  0  0  0
 26 27  1  0  0  0  0
 26 28  1  0  0  0  0
 26 29  1  0  0  0  0
 24 25  1  0  0  0  0
 24 26  1  0  0  0  0
M  END
$$$$
default_name
  -OEChem-02102213163D

 29 29  0     1  0  0  0  0  0999 V2000
   -3.6042   -3.5728    1.4576 H   0  0  0  0  0  0  0  0  0  0  0  0
   -3.5202   -2.6488    0.8866 C   0  0  0  0  0  0  0  0  0  0  0  0
   -4.2052   -1.9048    1.2896 H   0  0  0  0  0  0  0  0  0  0  0  0
   -3.7552   -2.8428   -0.1584 H   0  0  0  0  0  0  0  0  0  0  0  0
   -2.1052   -2.1358    0.9946 C   0  0  0  0  0  0  0  0  0  0  0  0
   -1.2852   -2.7288    1.6826 O   0  0  0  0  0  0  0  0  0  0  0  0
   -1.8202   -1.0288    0.3146 N   0  0  0  0  0  0  0  0  0  0  0  0
   -2.5542   -0.5788   -0.2104 H   0  0  0  0  0  0  0  0  0  0  0  0
   -0.5102   -0.3728    0.3086 C   0  0  1  0  0  0  0  0  0  0  0  0
    0.2354   -1.0844   -0.0490 H   0  0  0  0  0  0  0  0  0  0  0  0
   -0.5452    0.8158   -0.6698 C   0  0  0  0  0  0  0  0  0  0  0  0
   -0.3051    1.7321   -0.1276 H   0  0  0  0  0  0  0  0  0  0  0  0
    0.2189    0.6689   -1.4354 H   0  0  0  0  0  0  0  0  0  0  0  0
   -1.8764    0.9973   -1.3518 C   0  0  0  0  0  0  0  0  0  0  0  0
   -2.9989    0.2180   -1.1705 N   0  0  0  0  0  0  0  0  0  0  0  0
   -3.0561   -0.6228   -0.6156 H   0  0  0  0  0  0  0  0  0  0  0  0
   -4.0057    0.7710   -1.8675 C   0  0  0  0  0  0  0  0  0  0  0  0
   -5.0148    0.3816   -1.9257 H   0  0  0  0  0  0  0  0  0  0  0  0
   -3.5862    1.8852   -2.4847 N   0  0  0  0  0  0  0  0  0  0  0  0
   -2.2338    2.0372   -2.1681 C   0  0  0  0  0  0  0  0  0  0  0  0
   -1.5917    2.8504   -2.4809 H   0  0  0  0  0  0  0  0  0  0  0  0
   -0.1073    0.0565    1.7296 C   0  0  0  0  0  0  0  0  0  0  0  0
    1.0285   -0.1699    2.1459 O   0  0  0  0  0  0  0  0  0  0  0  0
   -1.0395    0.6588    2.4785 N   0  0  0  0  0  0  0  0  0  0  0  0
   -1.9636    0.7597    2.0849 H   0  0  0  0  0  0  0  0  0  0  0  0
   -0.8222    1.1334    3.8425 C   0  0  0  0  0  0  0  0  0  0  0  0
   -0.0212    1.8761    3.8521 H   0  0  0  0  0  0  0  0  0  0  0  0
   -1.7349    1.5853    4.2320 H   0  0  0  0  0  0  0  0  0  0  0  0
   -0.5312    0.2997    4.4834 H   0  0  0  0  0  0  0  0  0  0  0  0
  5  6  2  0  0  0  0
  5  7  1  0  0  0  0
  2  3  1  0  0  0  0
  2  4  1  0  0  0  0
  2  5  1  0  0  0  0
  1  2  1  0  0  0  0
 22 23  2  0  0  0  0
 22 24  1  0  0  0  0
 20 21  1  0  0  0  0
 19 20  1  0  0  0  0
 17 18  1  0  0  0  0
 17 19  2  0  0  0  0
 15 16  1  0  0  0  0
 15 17  1  0  0  0  0
 14 15  1  0  0  0  0
 14 20  2  0  0  0  0
 11 12  1  0  0  0  0
 11 13  1  0  0  0  0
 11 14  1  0  0  0  0
  9 10  1  0  0  0  0
  9 11  1  0  0  0  0
  9 22  1  0  0  0  0
  7  8  1  0  0  0  0
  7  9  1  0  0  0  0
 26 27  1  0  0  0  0
 26 28  1  0  0  0  0
 26 29  1  0  0  0  0
 24 25  1  0  0  0  0
 24 26  1  0  0  0  0
M  END
$$$$
default_name
  -OEChem-02102213163D

 29 29  0     1  0  0  0  0  0999 V2000
   -3.6042   -3.5728    1.4576 H   0  0  0  0  0  0  0  0  0  0  0  0
   -3.5202   -2.6488    0.8866 C   0  0  0  0  0  0  0  0  0  0  0  0
   -4.2052   -1.9048    1.2896 H   0  0  0  0  0  0  0  0  0  0  0  0
   -3.7552   -2.8428   -0.1584 H   0  0  0  0  0  0  0  0  0  0  0  0
   -2.1052   -2.1358    0.9946 C   0  0  0  0  0  0  0  0  0  0  0  0
   -1.2852   -2.7288    1.6826 O   0  0  0  0  0  0  0  0  0  0  0  0
   -1.8202   -1.0288    0.3146 N   0  0  0  0  0  0  0  0  0  0  0  0
   -2.5542   -0.5788   -0.2104 H   0  0  0  0  0  0  0  0  0  0  0  0
   -0.5102   -0.3728    0.3086 C   0  0  1  0  0  0  0  0  0  0  0  0
    0.2354   -1.0844   -0.0490 H   0  0  0  0  0  0  0  0  0  0  0  0
   -0.5452    0.8158   -0.6698 C   0  0  0  0  0  0  0  0  0  0  0  0
   -0.3051    1.7321   -0.1276 H   0  0  0  0  0  0  0  0  0  0  0  0
    0.2189    0.6689   -1.4354 H   0  0  0  0  0  0  0  0  0  0  0  0
   -1.8764    0.9973   -1.3518 C   0  0  0  0  0  0  0  0  0  0  0  0
   -3.0708    0.4209   -0.9761 N   0  0  0  0  0  0  0  0  0  0  0  0
   -3.1982   -0.2590   -0.2414 H   0  0  0  0  0  0  0  0  0  0  0  0
   -4.0386    0.9188   -1.7640 C   0  0  0  0  0  0  0  0  0  0  0  0
   -5.0869    0.6512   -1.7131 H   0  0  0  0  0  0  0  0  0  0  0  0
   -3.5234    1.8049   -2.6287 N   0  0  0  0  0  0  0  0  0  0  0  0
   -2.1496    1.8603   -2.3794 C   0  0  0  0  0  0  0  0  0  0  0  0
   -1.4340    2.4977   -2.8825 H   0  0  0  0  0  0  0  0  0  0  0  0
   -0.1073    0.0565    1.7296 C   0  0  0  0  0  0  0  0  0  0  0  0
    1.0285   -0.1699    2.1459 O   0  0  0  0  0  0  0  0  0  0  0  0
   -1.0395    0.6588    2.4785 N   0  0  0  0  0  0  0  0  0  0  0  0
   -1.9636    0.7597    2.0849 H   0  0  0  0  0  0  0  0  0  0  0  0
   -0.8222    1.1334    3.8425 C   0  0  0  0  0  0  0  0  0  0  0  0
   -0.0212    1.8761    3.8521 H   0  0  0  0  0  0  0  0  0  0  0  0
   -1.7349    1.5853    4.2320 H   0  0  0  0  0  0  0  0  0  0  0  0
   -0.5312    0.2997    4.4834 H   0  0  0  0  0  0  0  0  0  0  0  0
  5  6  2  0  0  0  0
  5  7  1  0  0  0  0
  2  3  1  0  0  0  0
  2  4  1  0  0  0  0
  2  5  1  0  0  0  0
  1  2  1  0  0  0  0
 22 23  2  0  0  0  0
 22 24  1  0  0  0  0
 20 21  1  0  0  0  0
 19 20  1  0  0  0  0
 17 18  1  0  0  0  0
 17 19  2  0  0  0  0
 15 16  1  0  0  0  0
 15 17  1  0  0  0  0
 14 15  1  0  0  0  0
 14 20  2  0  0  0  0
 11 12  1  0  0  0  0
 11 13  1  0  0  0  0
 11 14  1  0  0  0  0
  9 10  1  0  0  0  0
  9 11  1  0  0  0  0
  9 22  1  0  0  0  0
  7  8  1  0  0  0  0
  7  9  1  0  0  0  0
 26 27  1  0  0  0  0
 26 28  1  0  0  0  0
 26 29  1  0  0  0  0
 24 25  1  0  0  0  0
 24 26  1  0  0  0  0
M  END
$$$$
default_name
  -OEChem-02102213163D

 29 29  0     1  0  0  0  0  0999 V2000
   -3.6042   -3.5728    1.4576 H   0  0  0  0  0  0  0  0  0  0  0  0
   -3.5202   -2.6488    0.8866 C   0  0  0  0  0  0  0  0  0  0  0  0
   -4.2052   -1.9048    1.2896 H   0  0  0  0  0  0  0  0  0  0  0  0
   -3.7552   -2.8428   -0.1584 H   0  0  0  0  0  0  0  0  0  0  0  0
   -2.1052   -2.1358    0.9946 C   0  0  0  0  0  0  0  0  0  0  0  0
   -1.2852   -2.7288    1.6826 O   0  0  0  0  0  0  0  0  0  0  0  0
   -1.8202   -1.0288    0.3146 N   0  0  0  0  0  0  0  0  0  0  0  0
   -2.5542   -0.5788   -0.2104 H   0  0  0  0  0  0  0  0  0  0  0  0
   -0.5102   -0.3728    0.3086 C   0  0  1  0  0  0  0  0  0  0  0  0
    0.2354   -1.0844   -0.0490 H   0  0  0  0  0  0  0  0  0  0  0  0
   -0.5452    0.8158   -0.6698 C   0  0  0  0  0  0  0  0  0  0  0  0
   -0.3051    1.7321   -0.1276 H   0  0  0  0  0  0  0  0  0  0  0  0
    0.2189    0.6689   -1.4354 H   0  0  0  0  0  0  0  0  0  0  0  0
   -1.8764    0.9973   -1.3518 C   0  0  0  0  0  0  0  0  0  0  0  0
   -3.1105    0.6697   -0.8324 N   0  0  0  0  0  0  0  0  0  0  0  0
   -3.2812    0.1947    0.0413 H   0  0  0  0  0  0  0  0  0  0  0  0
   -4.0498    1.0891   -1.6968 C   0  0  0  0  0  0  0  0  0  0  0  0
   -5.1184    0.9686   -1.5672 H   0  0  0  0  0  0  0  0  0  0  0  0
   -3.4766    1.6871   -2.7514 N   0  0  0  0  0  0  0  0  0  0  0  0
   -2.0956    1.6312   -2.5457 C   0  0  0  0  0  0  0  0  0  0  0  0
   -1.3356    2.0467   -3.1946 H   0  0  0  0  0  0  0  0  0  0  0  0
   -0.1073    0.0565    1.7296 C   0  0  0  0  0  0  0  0  0  0  0  0
    1.0285   -0.1699    2.1459 O   0  0  0  0  0  0  0  0  0  0  0  0
   -1.0395    0.6588    2.4785 N   0  0  0  0  0  0  0  0  0  0  0  0
   -1.9636    0.7597    2.0849 H   0  0  0  0  0  0  0  0  0  0  0  0
   -0.8222    1.1334    3.8425 C   0  0  0  0  0  0  0  0  0  0  0  0
   -0.0212    1.8761    3.8521 H   0  0  0  0  0  0  0  0  0  0  0  0
   -1.7349    1.5853    4.2320 H   0  0  0  0  0  0  0  0  0  0  0  0
   -0.5312    0.2997    4.4834 H   0  0  0  0  0  0  0  0  0  0  0  0
  5  6  2  0  0  0  0
  5  7  1  0  0  0  0
  2  3  1  0  0  0  0
  2  4  1  0  0  0  0
  2  5  1  0  0  0  0
  1  2  1  0  0  0  0
 22 23  2  0  0  0  0
 22 24  1  0  0  0  0
 20 21  1  0  0  0  0
 19 20  1  0  0  0  0
 17 18  1  0  0  0  0
 17 19  2  0  0  0  0
 15 16  1  0  0  0  0
 15 17  1  0  0  0  0
 14 15  1  0  0  0  0
 14 20  2  0  0  0  0
 11 12  1  0  0  0  0
 11 13  1  0  0  0  0
 11 14  1  0  0  0  0
  9 10  1  0  0  0  0
  9 11  1  0  0  0  0
  9 22  1  0  0  0  0
  7  8  1  0  0  0  0
  7  9  1  0  0  0  0
 26 27  1  0  0  0  0
 26 28  1  0  0  0  0
 26 29  1  0  0  0  0
 24 25  1  0  0  0  0
 24 26  1  0  0  0  0
M  END
$$$$
default_name
  -OEChem-02102213163D

 29 29  0     1  0  0  0  0  0999 V2000
   -3.6042   -3.5728    1.4576 H   0  0  0  0  0  0  0  0  0  0  0  0
   -3.5202   -2.6488    0.8866 C   0  0  0  0  0  0  0  0  0  0  0  0
   -4.2052   -1.9048    1.2896 H   0  0  0  0  0  0  0  0  0  0  0  0
   -3.7552   -2.8428   -0.1584 H   0  0  0  0  0  0  0  0  0  0  0  0
   -2.1052   -2.1358    0.9946 C   0  0  0  0  0  0  0  0  0  0  0  0
   -1.2852   -2.7288    1.6826 O   0  0  0  0  0  0  0  0  0  0  0  0
   -1.8202   -1.0288    0.3146 N   0  0  0  0  0  0  0  0  0  0  0  0
   -2.5542   -0.5788   -0.2104 H   0  0  0  0  0  0  0  0  0  0  0  0
   -0.5102   -0.3728    0.3086 C   0  0  1  0  0  0  0  0  0  0  0  0
    0.2354   -1.0844   -0.0490 H   0  0  0  0  0  0  0  0  0  0  0  0
   -0.5452    0.8158   -0.6698 C   0  0  0  0  0  0  0  0  0  0  0  0
   -0.3051    1.7321   -0.1276 H   0  0  0  0  0  0  0  0  0  0  0  0
    0.2189    0.6689   -1.4354 H   0  0  0  0  0  0  0  0  0  0  0  0
   -1.8764    0.9973   -1.3518 C   0  0  0  0  0  0  0  0  0  0  0  0
   -3.1152    0.9476   -0.7493 N   0  0  0  0  0  0  0  0  0  0  0  0
   -3.2994    0.7073    0.2132 H   0  0  0  0  0  0  0  0  0  0  0  0
   -4.0386    1.2703   -1.6705 C   0  0  0  0  0  0  0  0  0  0  0  0
   -5.1071    1.3122   -1.4979 H   0  0  0  0  0  0  0  0  0  0  0  0
   -3.4490    1.5397   -2.8445 N   0  0  0  0  0  0  0  0  0  0  0  0
   -2.0755    1.3656   -2.6557 C   0  0  0  0  0  0  0  0  0  0  0  0
   -1.3030    1.5281   -3.3961 H   0  0  0  0  0  0  0  0  0  0  0  0
   -0.1073    0.0565    1.7296 C   0  0  0  0  0  0  0  0  0  0  0  0
    1.0285   -0.1699    2.1459 O   0  0  0  0  0  0  0  0  0  0  0  0
   -1.0395    0.6588    2.4785 N   0  0  0  0  0  0  0  0  0  0  0  0
   -1.9636    0.7597    2.0849 H   0  0  0  0  0  0  0  0  0  0  0  0
   -0.8222    1.1334    3.8425 C   0  0  0  0  0  0  0  0  0  0  0  0
   -0.0212    1.8761    3.8521 H   0  0  0  0  0  0  0  0  0  0  0  0
   -1.7349    1.5853    4.2320 H   0  0  0  0  0  0  0  0  0  0  0  0
   -0.5312    0.2997    4.4834 H   0  0  0  0  0  0  0  0  0  0  0  0
  5  6  2  0  0  0  0
  5  7  1  0  0  0  0
  2  3  1  0  0  0  0
  2  4  1  0  0  0  0
  2  5  1  0  0  0  0
  1  2  1  0  0  0  0
 22 23  2  0  0  0  0
 22 24  1  0  0  0  0
 20 21  1  0  0  0  0
 19 20  1  0  0  0  0
 17 18  1  0  0  0  0
 17 19  2  0  0  0  0
 15 16  1  0  0  0  0
 15 17  1  0  0  0  0
 14 15  1  0  0  0  0
 14 20  2  0  0  0  0
 11 12  1  0  0  0  0
 11 13  1  0  0  0  0
 11 14  1  0  0  0  0
  9 10  1  0  0  0  0
  9 11  1  0  0  0  0
  9 22  1  0  0  0  0
  7  8  1  0  0  0  0
  7  9  1  0  0  0  0
 26 27  1  0  0  0  0
 26 28  1  0  0  0  0
 26 29  1  0  0  0  0
 24 25  1  0  0  0  0
 24 26  1  0  0  0  0
M  END
$$$$
default_name
  -OEChem-02102213163D

 29 29  0     1  0  0  0  0  0999 V2000
   -3.6042   -3.5728    1.4576 H   0  0  0  0  0  0  0  0  0  0  0  0
   -3.5202   -2.6488    0.8866 C   0  0  0  0  0  0  0  0  0  0  0  0
   -4.2052   -1.9048    1.2896 H   0  0  0  0  0  0  0  0  0  0  0  0
   -3.7552   -2.8428   -0.1584 H   0  0  0  0  0  0  0  0  0  0  0  0
   -2.1052   -2.1358    0.9946 C   0  0  0  0  0  0  0  0  0  0  0  0
   -1.2852   -2.7288    1.6826 O   0  0  0  0  0  0  0  0  0  0  0  0
   -1.8202   -1.0288    0.3146 N   0  0  0  0  0  0  0  0  0  0  0  0
   -2.5542   -0.5788   -0.2104 H   0  0  0  0  0  0  0  0  0  0  0  0
   -0.5102   -0.3728    0.3086 C   0  0  1  0  0  0  0  0  0  0  0  0
    0.2354   -1.0844   -0.0490 H   0  0  0  0  0  0  0  0  0  0  0  0
   -0.5452    0.8158   -0.6698 C   0  0  0  0  0  0  0  0  0  0  0  0
   -0.3051    1.7321   -0.1276 H   0  0  0  0  0  0  0  0  0  0  0  0
    0.2189    0.6689   -1.4354 H   0  0  0  0  0  0  0  0  0  0  0  0
   -1.8764    0.9973   -1.3518 C   0  0  0  0  0  0  0  0  0  0  0  0
   -3.0846    1.2355   -0.7325 N   0  0  0  0  0  0  0  0  0  0  0  0
   -3.2516    1.2439    0.2626 H   0  0  0  0  0  0  0  0  0  0  0  0
   -4.0057    1.4500   -1.6869 C   0  0  0  0  0  0  0  0  0  0  0  0
   -5.0537    1.6587   -1.5099 H   0  0  0  0  0  0  0  0  0  0  0  0
   -3.4425    1.3729   -2.9015 N   0  0  0  0  0  0  0  0  0  0  0  0
   -2.0906    1.0816   -2.7018 C   0  0  0  0  0  0  0  0  0  0  0  0
   -1.3386    0.9774   -3.4732 H   0  0  0  0  0  0  0  0  0  0  0  0
   -0.1073    0.0565    1.7296 C   0  0  0  0  0  0  0  0  0  0  0  0
    1.0285   -0.1699    2.1459 O   0  0  0  0  0  0  0  0  0  0  0  0
   -1.0395    0.6588    2.4785 N   0  0  0  0  0  0  0  0  0  0  0  0
   -1.9636    0.7597    2.0849 H   0  0  0  0  0  0  0  0  0  0  0  0
   -0.8222    1.1334    3.8425 C   0  0  0  0  0  0  0  0  0  0  0  0
   -0.0212    1.8761    3.8521 H   0  0  0  0  0  0  0  0  0  0  0  0
   -1.7349    1.5853    4.2320 H   0  0  0  0  0  0  0  0  0  0  0  0
   -0.5312    0.2997    4.4834 H   0  0  0  0  0  0  0  0  0  0  0  0
  5  6  2  0  0  0  0
  5  7  1  0  0  0  0
  2  3  1  0  0  0  0
  2  4  1  0  0  0  0
  2  5  1  0  0  0  0
  1  2  1  0  0  0  0
 22 23  2  0  0  0  0
 22 24  1  0  0  0  0
 20 21  1  0  0  0  0
 19 20  1  0  0  0  0
 17 18  1  0  0  0  0
 17 19  2  0  0  0  0
 15 16  1  0  0  0  0
 15 17  1  0  0  0  0
 14 15  1  0  0  0  0
 14 20  2  0  0  0  0
 11 12  1  0  0  0  0
 11 13  1  0  0  0  0
 11 14  1  0  0  0  0
  9 10  1  0  0  0  0
  9 11  1  0  0  0  0
  9 22  1  0  0  0  0
  7  8  1  0  0  0  0
  7  9  1  0  0  0  0
 26 27  1  0  0  0  0
 26 28  1  0  0  0  0
 26 29  1  0  0  0  0
 24 25  1  0  0  0  0
 24 26  1  0  0  0  0
M  END
$$$$
default_name
  -OEChem-02102213163D

 29 29  0     1  0  0  0  0  0999 V2000
   -3.6042   -3.5728    1.4576 H   0  0  0  0  0  0  0  0  0  0  0  0
   -3.5202   -2.6488    0.8866 C   0  0  0  0  0  0  0  0  0  0  0  0
   -4.2052   -1.9048    1.2896 H   0  0  0  0  0  0  0  0  0  0  0  0
   -3.7552   -2.8428   -0.1584 H   0  0  0  0  0  0  0  0  0  0  0  0
   -2.1052   -2.1358    0.9946 C   0  0  0  0  0  0  0  0  0  0  0  0
   -1.2852   -2.7288    1.6826 O   0  0  0  0  0  0  0  0  0  0  0  0
   -1.8202   -1.0288    0.3146 N   0  0  0  0  0  0  0  0  0  0  0  0
   -2.5542   -0.5788   -0.2104 H   0  0  0  0  0  0  0  0  0  0  0  0
   -0.5102   -0.3728    0.3086 C   0  0  1  0  0  0  0  0  0  0  0  0
    0.2354   -1.0844   -0.0490 H   0  0  0  0  0  0  0  0  0  0  0  0
   -0.5452    0.8158   -0.6698 C   0  0  0  0  0  0  0  0  0  0  0  0
   -0.3051    1.7321   -0.1276 H   0  0  0  0  0  0  0  0  0  0  0  0
    0.2189    0.6689   -1.4354 H   0  0  0  0  0  0  0  0  0  0  0  0
   -1.8764    0.9973   -1.3518 C   0  0  0  0  0  0  0  0  0  0  0  0
   -3.0208    1.5139   -0.7830 N   0  0  0  0  0  0  0  0  0  0  0  0
   -3.1410    1.7679    0.1862 H   0  0  0  0  0  0  0  0  0  0  0  0
   -3.9534    1.6159   -1.7448 C   0  0  0  0  0  0  0  0  0  0  0  0
   -4.9619    1.9844   -1.6023 H   0  0  0  0  0  0  0  0  0  0  0  0
   -3.4576    1.1980   -2.9186 N   0  0  0  0  0  0  0  0  0  0  0  0
   -2.1399    0.7984   -2.6809 C   0  0  0  0  0  0  0  0  0  0  0  0
   -1.4399    0.4319   -3.4206 H   0  0  0  0  0  0  0  0  0  0  0  0
   -0.1073    0.0565    1.7296 C   0  0  0  0  0  0  0  0  0  0  0  0
    1.0285   -0.1699    2.1459 O   0  0  0  0  0  0  0  0  0  0  0  0
   -1.0395    0.6588    2.4785 N   0  0  0  0  0  0  0  0  0  0  0  0
   -1.9636    0.7597    2.0849 H   0  0  0  0  0  0  0  0  0  0  0  0
   -0.8222    1.1334    3.8425 C   0  0  0  0  0  0  0  0  0  0  0  0
   -0.0212    1.8761    3.8521 H   0  0  0  0  0  0  0  0  0  0  0  0
   -1.7349    1.5853    4.2320 H   0  0  0  0  0  0  0  0  0  0  0  0
   -0.5312    0.2997    4.4834 H   0  0  0  0  0  0  0  0  0  0  0  0
  5  6  2  0  0  0  0
  5  7  1  0  0  0  0
  2  3  1  0  0  0  0
  2  4  1  0  0  0  0
  2  5  1  0  0  0  0
  1  2  1  0  0  0  0
 22 23  2  0  0  0  0
 22 24  1  0  0  0  0
 20 21  1  0  0  0  0
 19 20  1  0  0  0  0
 17 18  1  0  0  0  0
 17 19  2  0  0  0  0
 15 16  1  0  0  0  0
 15 17  1  0  0  0  0
 14 15  1  0  0  0  0
 14 20  2  0  0  0  0
 11 12  1  0  0  0  0
 11 13  1  0  0  0  0
 11 14  1  0  0  0  0
  9 10  1  0  0  0  0
  9 11  1  0  0  0  0
  9 22  1  0  0  0  0
  7  8  1  0  0  0  0
  7  9  1  0  0  0  0
 26 27  1  0  0  0  0
 26 28  1  0  0  0  0
 26 29  1  0  0  0  0
 24 25  1  0  0  0  0
 24 26  1  0  0  0  0
M  END
$$$$
default_name
  -OEChem-02102213163D

 29 29  0     1  0  0  0  0  0999 V2000
   -3.6042   -3.5728    1.4576 H   0  0  0  0  0  0  0  0  0  0  0  0
   -3.5202   -2.6488    0.8866 C   0  0  0  0  0  0  0  0  0  0  0  0
   -4.2052   -1.9048    1.2896 H   0  0  0  0  0  0  0  0  0  0  0  0
   -3.7552   -2.8428   -0.1584 H   0  0  0  0  0  0  0  0  0  0  0  0
   -2.1052   -2.1358    0.9946 C   0  0  0  0  0  0  0  0  0  0  0  0
   -1.2852   -2.7288    1.6826 O   0  0  0  0  0  0  0  0  0  0  0  0
   -1.8202   -1.0288    0.3146 N   0  0  0  0  0  0  0  0  0  0  0  0
   -2.5542   -0.5788   -0.2104 H   0  0  0  0  0  0  0  0  0  0  0  0
   -0.5102   -0.3728    0.3086 C   0  0  1  0  0  0  0  0  0  0  0  0
    0.2354   -1.0844   -0.0490 H   0  0  0  0  0  0  0  0  0  0  0  0
   -0.5452    0.8158   -0.6698 C   0  0  0  0  0  0  0  0  0  0  0  0
   -0.3051    1.7321   -0.1276 H   0  0  0  0  0  0  0  0  0  0  0  0
    0.2189    0.6689   -1.4354 H   0  0  0  0  0  0  0  0  0  0  0  0
   -1.8764    0.9973   -1.3518 C   0  0  0  0  0  0  0  0  0  0  0  0
   -2.9281    1.7638   -0.8974 N   0  0  0  0  0  0  0  0  0  0  0  0
   -2.9751    2.2436   -0.0110 H   0  0  0  0  0  0  0  0  0  0  0  0
   -3.8852    1.7569   -1.8404 C   0  0  0  0  0  0  0  0  0  0  0  0
   -4.8380    2.2671   -1.7690 H   0  0  0  0  0  0  0  0  0  0  0  0
   -3.4932    1.0268   -2.8947 N   0  0  0  0  0  0  0  0  0  0  0  0
   -2.2201    0.5355   -2.5944 C   0  0  0  0  0  0  0  0  0  0  0  0
   -1.6000   -0.0710   -3.2418 H   0  0  0  0  0  0  0  0  0  0  0  0
   -0.1073    0.0565    1.7296 C   0  0  0  0  0  0  0  0  0  0  0  0
    1.0285   -0.1699    2.1459 O   0  0  0  0  0  0  0  0  0  0  0  0
   -1.0395    0.6588    2.4785 N   0  0  0  0  0  0  0  0  0  0  0  0
   -1.9636    0.7597    2.0849 H   0  0  0  0  0  0  0  0  0  0  0  0
   -0.8222    1.1334    3.8425 C   0  0  0  0  0  0  0  0  0  0  0  0
   -0.0212    1.8761    3.8521 H   0  0  0  0  0  0  0  0  0  0  0  0
   -1.7349    1.5853    4.2320 H   0  0  0  0  0  0  0  0  0  0  0  0
   -0.5312    0.2997    4.4834 H   0  0  0  0  0  0  0  0  0  0  0  0
  5  6  2  0  0  0  0
  5  7  1  0  0  0  0
  2  3  1  0  0  0  0
  2  4  1  0  0  0  0
  2  5  1  0  0  0  0
  1  2  1  0  0  0  0
 22 23  2  0  0  0  0
 22 24  1  0  0  0  0
 20 21  1  0  0  0  0
 19 20  1  0  0  0  0
 17 18  1  0  0  0  0
 17 19  2  0  0  0  0
 15 16  1  0  0  0  0
 15 17  1  0  0  0  0
 14 15  1  0  0  0  0
 14 20  2  0  0  0  0
 11 12  1  0  0  0  0
 11 13  1  0  0  0  0
 11 14  1  0  0  0  0
  9 10  1  0  0  0  0
  9 11  1  0  0  0  0
  9 22  1  0  0  0  0
  7  8  1  0  0  0  0
  7  9  1  0  0  0  0
 26 27  1  0  0  0  0
 26 28  1  0  0  0  0
 26 29  1  0  0  0  0
 24 25  1  0  0  0  0
 24 26  1  0  0  0  0
M  END
$$$$
default_name
  -OEChem-02102213163D

 29 29  0     1  0  0  0  0  0999 V2000
   -3.6042   -3.5728    1.4576 H   0  0  0  0  0  0  0  0  0  0  0  0
   -3.5202   -2.6488    0.8866 C   0  0  0  0  0  0  0  0  0  0  0  0
   -4.2052   -1.9048    1.2896 H   0  0  0  0  0  0  0  0  0  0  0  0
   -3.7552   -2.8428   -0.1584 H   0  0  0  0  0  0  0  0  0  0  0  0
   -2.1052   -2.1358    0.9946 C   0  0  0  0  0  0  0  0  0  0  0  0
   -1.2852   -2.7288    1.6826 O   0  0  0  0  0  0  0  0  0  0  0  0
   -1.8202   -1.0288    0.3146 N   0  0  0  0  0  0  0  0  0  0  0  0
   -2.5542   -0.5788   -0.2104 H   0  0  0  0  0  0  0  0  0  0  0  0
   -0.5102   -0.3728    0.3086 C   0  0  1  0  0  0  0  0  0  0  0  0
    0.2354   -1.0844   -0.0490 H   0  0  0  0  0  0  0  0  0  0  0  0
   -0.5452    0.8158   -0.6698 C   0  0  0  0  0  0  0  0  0  0  0  0
   -0.3051    1.7321   -0.1276 H   0  0  0  0  0  0  0  0  0  0  0  0
    0.2189    0.6689   -1.4354 H   0  0  0  0  0  0  0  0  0  0  0  0
   -1.8764    0.9973   -1.3518 C   0  0  0  0  0  0  0  0  0  0  0  0
   -2.8128    1.9682   -1.0680 N   0  0  0  0  0  0  0  0  0  0  0  0
   -2.7654    2.6386   -0.3153 H   0  0  0  0  0  0  0  0  0  0  0  0
   -3.8059    1.8632   -1.9670 C   0  0  0  0  0  0  0  0  0  0  0  0
   -4.6904    2.4875   -1.9985 H   0  0  0  0  0  0  0  0  0  0  0  0
   -3.5469    0.8711   -2.8314 N   0  0  0  0  0  0  0  0  0  0  0  0
   -2.3256    0.3106   -2.4482 C   0  0  0  0  0  0  0  0  0  0  0  0
   -1.8081   -0.4972   -2.9492 H   0  0  0  0  0  0  0  0  0  0  0  0
   -0.1073    0.0565    1.7296 C   0  0  0  0  0  0  0  0  0  0  0  0
    1.0285   -0.1699    2.1459 O   0  0  0  0  0  0  0  0  0  0  0  0
   -1.0395    0.6588    2.4785 N   0  0  0  0  0  0  0  0  0  0  0  0
   -1.9636    0.7597    2.0849 H   0  0  0  0  0  0  0  0  0  0  0  0
   -0.8222    1.1334    3.8425 C   0  0  0  0  0  0  0  0  0  0  0  0
   -0.0212    1.8761    3.8521 H   0  0  0  0  0  0  0  0  0  0  0  0
   -1.7349    1.5853    4.2320 H   0  0  0  0  0  0  0  0  0  0  0  0
   -0.5312    0.2997    4.4834 H   0  0  0  0  0  0  0  0  0  0  0  0
  5  6  2  0  0  0  0
  5  7  1  0  0  0  0
  2  3  1  0  0  0  0
  2  4  1  0  0  0  0
  2  5  1  0  0  0  0
  1  2  1  0  0  0  0
 22 23  2  0  0  0  0
 22 24  1  0  0  0  0
 20 21  1  0  0  0  0
 19 20  1  0  0  0  0
 17 18  1  0  0  0  0
 17 19  2  0  0  0  0
 15 16  1  0  0  0  0
 15 17  1  0  0  0  0
 14 15  1  0  0  0  0
 14 20  2  0  0  0  0
 11 12  1  0  0  0  0
 11 13  1  0  0  0  0
 11 14  1  0  0  0  0
  9 10  1  0  0  0  0
  9 11  1  0  0  0  0
  9 22  1  0  0  0  0
  7  8  1  0  0  0  0
  7  9  1  0  0  0  0
 26 27  1  0  0  0  0
 26 28  1  0  0  0  0
 26 29  1  0  0  0  0
 24 25  1  0  0  0  0
 24 26  1  0  0  0  0
M  END
$$$$
default_name
  -OEChem-02102213163D

 29 29  0     1  0  0  0  0  0999 V2000
   -3.6042   -3.5728    1.4576 H   0  0  0  0  0  0  0  0  0  0  0  0
   -3.5202   -2.6488    0.8866 C   0  0  0  0  0  0  0  0  0  0  0  0
   -4.2052   -1.9048    1.2896 H   0  0  0  0  0  0  0  0  0  0  0  0
   -3.7552   -2.8428   -0.1584 H   0  0  0  0  0  0  0  0  0  0  0  0
   -2.1052   -2.1358    0.9946 C   0  0  0  0  0  0  0  0  0  0  0  0
   -1.2852   -2.7288    1.6826 O   0  0  0  0  0  0  0  0  0  0  0  0
   -1.8202   -1.0288    0.3146 N   0  0  0  0  0  0  0  0  0  0  0  0
   -2.5542   -0.5788   -0.2104 H   0  0  0  0  0  0  0  0  0  0  0  0
   -0.5102   -0.3728    0.3086 C   0  0  1  0  0  0  0  0  0  0  0  0
    0.2354   -1.0844   -0.0490 H   0  0  0  0  0  0  0  0  0  0  0  0
   -0.5452    0.8158   -0.6698 C   0  0  0  0  0  0  0  0  0  0  0  0
   -0.3051    1.7321   -0.1276 H   0  0  0  0  0  0  0  0  0  0  0  0
    0.2189    0.6689   -1.4354 H   0  0  0  0  0  0  0  0  0  0  0  0
   -1.8764    0.9973   -1.3518 C   0  0  0  0  0  0  0  0  0  0  0  0
   -2.6829    2.1130   -1.2831 N   0  0  0  0  0  0  0  0  0  0  0  0
   -2.5260    2.9259   -0.7062 H   0  0  0  0  0  0  0  0  0  0  0  0
   -3.7207    1.9276   -2.1161 C   0  0  0  0  0  0  0  0  0  0  0  0
   -4.5292    2.6307   -2.2751 H   0  0  0  0  0  0  0  0  0  0  0  0
   -3.6150    0.7416   -2.7329 N   0  0  0  0  0  0  0  0  0  0  0  0
   -2.4493    0.1393   -2.2523 C   0  0  0  0  0  0  0  0  0  0  0  0
   -2.0498   -0.8176   -2.5626 H   0  0  0  0  0  0  0  0  0  0  0  0
   -0.1073    0.0565    1.7296 C   0  0  0  0  0  0  0  0  0  0  0  0
    1.0285   -0.1699    2.1459 O   0  0  0  0  0  0  0  0  0  0  0  0
   -1.0395    0.6588    2.4785 N   0  0  0  0  0  0  0  0  0  0  0  0
   -1.9636    0.7597    2.0849 H   0  0  0  0  0  0  0  0  0  0  0  0
   -0.8222    1.1334    3.8425 C   0  0  0  0  0  0  0  0  0  0  0  0
   -0.0212    1.8761    3.8521 H   0  0  0  0  0  0  0  0  0  0  0  0
   -1.7349    1.5853    4.2320 H   0  0  0  0  0  0  0  0  0  0  0  0
   -0.5312    0.2997    4.4834 H   0  0  0  0  0  0  0  0  0  0  0  0
  5  6  2  0  0  0  0
  5  7  1  0  0  0  0
  2  3  1  0  0  0  0
  2  4  1  0  0  0  0
  2  5  1  0  0  0  0
  1  2  1  0  0  0  0
 22 23  2  0  0  0  0
 22 24  1  0  0  0  0
 20 21  1  0  0  0  0
 19 20  1  0  0  0  0
 17 18  1  0  0  0  0
 17 19  2  0  0  0  0
 15 16  1  0  0  0  0
 15 17  1  0  0  0  0
 14 15  1  0  0  0  0
 14 20  2  0  0  0  0
 11 12  1  0  0  0  0
 11 13  1  0  0  0  0
 11 14  1  0  0  0  0
  9 10  1  0  0  0  0
  9 11  1  0  0  0  0
  9 22  1  0  0  0  0
  7  8  1  0  0  0  0
  7  9  1  0  0  0  0
 26 27  1  0  0  0  0
 26 28  1  0  0  0  0
 26 29  1  0  0  0  0
 24 25  1  0  0  0  0
 24 26  1  0  0  0  0
M  END
$$$$
default_name
  -OEChem-02102213163D

 29 29  0     1  0  0  0  0  0999 V2000
   -3.6042   -3.5728    1.4576 H   0  0  0  0  0  0  0  0  0  0  0  0
   -3.5202   -2.6488    0.8866 C   0  0  0  0  0  0  0  0  0  0  0  0
   -4.2052   -1.9048    1.2896 H   0  0  0  0  0  0  0  0  0  0  0  0
   -3.7552   -2.8428   -0.1584 H   0  0  0  0  0  0  0  0  0  0  0  0
   -2.1052   -2.1358    0.9946 C   0  0  0  0  0  0  0  0  0  0  0  0
   -1.2852   -2.7288    1.6826 O   0  0  0  0  0  0  0  0  0  0  0  0
   -1.8202   -1.0288    0.3146 N   0  0  0  0  0  0  0  0  0  0  0  0
   -2.5542   -0.5788   -0.2104 H   0  0  0  0  0  0  0  0  0  0  0  0
   -0.5102   -0.3728    0.3086 C   0  0  1  0  0  0  0  0  0  0  0  0
    0.2354   -1.0844   -0.0490 H   0  0  0  0  0  0  0  0  0  0  0  0
   -0.5452    0.8158   -0.6698 C   0  0  0  0  0  0  0  0  0  0  0  0
   -0.3051    1.7321   -0.1276 H   0  0  0  0  0  0  0  0  0  0  0  0
    0.2189    0.6689   -1.4354 H   0  0  0  0  0  0  0  0  0  0  0  0
   -1.8764    0.9973   -1.3518 C   0  0  0  0  0  0  0  0  0  0  0  0
   -2.5471    2.1886   -1.5280 N   0  0  0  0  0  0  0  0  0  0  0  0
   -2.2732    3.0860   -1.1569 H   0  0  0  0  0  0  0  0  0  0  0  0
   -3.6355    1.9458   -2.2775 C   0  0  0  0  0  0  0  0  0  0  0  0
   -4.3653    2.6868   -2.5801 H   0  0  0  0  0  0  0  0  0  0  0  0
   -3.6929    0.6469   -2.6060 N   0  0  0  0  0  0  0  0  0  0  0  0
   -2.5828    0.0330   -2.0201 C   0  0  0  0  0  0  0  0  0  0  0  0
   -2.3088   -1.0103   -2.1084 H   0  0  0  0  0  0  0  0  0  0  0  0
   -0.1073    0.0565    1.7296 C   0  0  0  0  0  0  0  0  0  0  0  0
    1.0285   -0.1699    2.1459 O   0  0  0  0  0  0  0  0  0  0  0  0
   -1.0395    0.6588    2.4785 N   0  0  0  0  0  0  0  0  0  0  0  0
   -1.9636    0.7597    2.0849 H   0  0  0  0  0  0  0  0  0  0  0  0
   -0.8222    1.1334    3.8425 C   0  0  0  0  0  0  0  0  0  0  0  0
   -0.0212    1.8761    3.8521 H   0  0  0  0  0  0  0  0  0  0  0  0
   -1.7349    1.5853    4.2320 H   0  0  0  0  0  0  0  0  0  0  0  0
   -0.5312    0.2997    4.4834 H   0  0  0  0  0  0  0  0  0  0  0  0
  5  6  2  0  0  0  0
  5  7  1  0  0  0  0
  2  3  1  0  0  0  0
  2  4  1  0  0  0  0
  2  5  1  0  0  0  0
  1  2  1  0  0  0  0
 22 23  2  0  0  0  0
 22 24  1  0  0  0  0
 20 21  1  0  0  0  0
 19 20  1  0  0  0  0
 17 18  1  0  0  0  0
 17 19  2  0  0  0  0
 15 16  1  0  0  0  0
 15 17  1  0  0  0  0
 14 15  1  0  0  0  0
 14 20  2  0  0  0  0
 11 12  1  0  0  0  0
 11 13  1  0  0  0  0
 11 14  1  0  0  0  0
  9 10  1  0  0  0  0
  9 11  1  0  0  0  0
  9 22  1  0  0  0  0
  7  8  1  0  0  0  0
  7  9  1  0  0  0  0
 26 27  1  0  0  0  0
 26 28  1  0  0  0  0
 26 29  1  0  0  0  0
 24 25  1  0  0  0  0
 24 26  1  0  0  0  0
M  END
$$$$
default_name
  -OEChem-02102213163D

 29 29  0     1  0  0  0  0  0999 V2000
   -3.6042   -3.5728    1.4576 H   0  0  0  0  0  0  0  0  0  0  0  0
   -3.5202   -2.6488    0.8866 C   0  0  0  0  0  0  0  0  0  0  0  0
   -4.2052   -1.9048    1.2896 H   0  0  0  0  0  0  0  0  0  0  0  0
   -3.7552   -2.8428   -0.1584 H   0  0  0  0  0  0  0  0  0  0  0  0
   -2.1052   -2.1358    0.9946 C   0  0  0  0  0  0  0  0  0  0  0  0
   -1.2852   -2.7288    1.6826 O   0  0  0  0  0  0  0  0  0  0  0  0
   -1.8202   -1.0288    0.3146 N   0  0  0  0  0  0  0  0  0  0  0  0
   -2.5542   -0.5788   -0.2104 H   0  0  0  0  0  0  0  0  0  0  0  0
   -0.5102   -0.3728    0.3086 C   0  0  1  0  0  0  0  0  0  0  0  0
    0.2354   -1.0844   -0.0490 H   0  0  0  0  0  0  0  0  0  0  0  0
   -0.5452    0.8158   -0.6698 C   0  0  0  0  0  0  0  0  0  0  0  0
   -0.3051    1.7321   -0.1276 H   0  0  0  0  0  0  0  0  0  0  0  0
    0.2189    0.6689   -1.4354 H   0  0  0  0  0  0  0  0  0  0  0  0
   -1.8764    0.9973   -1.3518 C   0  0  0  0  0  0  0  0  0  0  0  0
   -2.4147    2.1896   -1.7861 N   0  0  0  0  0  0  0  0  0  0  0  0
   -2.0244    3.1080   -1.6367 H   0  0  0  0  0  0  0  0  0  0  0  0
   -3.5562    1.9164   -2.4402 C   0  0  0  0  0  0  0  0  0  0  0  0
   -4.2099    2.6521   -2.8927 H   0  0  0  0  0  0  0  0  0  0  0  0
   -3.7753    0.5936   -2.4594 N   0  0  0  0  0  0  0  0  0  0  0  0
   -2.7169   -0.0009   -1.7673 C   0  0  0  0  0  0  0  0  0  0  0  0
   -2.5673   -1.0623   -1.6175 H   0  0  0  0  0  0  0  0  0  0  0  0
   -0.1073    0.0565    1.7296 C   0  0  0  0  0  0  0  0  0  0  0  0
    1.0285   -0.1699    2.1459 O   0  0  0  0  0  0  0  0  0  0  0  0
   -1.0395    0.6588    2.4785 N   0  0  0  0  0  0  0  0  0  0  0  0
   -1.9636    0.7597    2.0849 H   0  0  0  0  0  0  0  0  0  0  0  0
   -0.8222    1.1334    3.8425 C   0  0  0  0  0  0  0  0  0  0  0  0
   -0.0212    1.8761    3.8521 H   0  0  0  0  0  0  0  0  0  0  0  0
   -1.7349    1.5853    4.2320 H   0  0  0  0  0  0  0  0  0  0  0  0
   -0.5312    0.2997    4.4834 H   0  0  0  0  0  0  0  0  0  0  0  0
  5  6  2  0  0  0  0
  5  7  1  0  0  0  0
  2  3  1  0  0  0  0
  2  4  1  0  0  0  0
  2  5  1  0  0  0  0
  1  2  1  0  0  0  0
 22 23  2  0  0  0  0
 22 24  1  0  0  0  0
 20 21  1  0  0  0  0
 19 20  1  0  0  0  0
 17 18  1  0  0  0  0
 17 19  2  0  0  0  0
 15 16  1  0  0  0  0
 15 17  1  0  0  0  0
 14 15  1  0  0  0  0
 14 20  2  0  0  0  0
 11 12  1  0  0  0  0
 11 13  1  0  0  0  0
 11 14  1  0  0  0  0
  9 10  1  0  0  0  0
  9 11  1  0  0  0  0
  9 22  1  0  0  0  0
  7  8  1  0  0  0  0
  7  9  1  0  0  0  0
 26 27  1  0  0  0  0
 26 28  1  0  0  0  0
 26 29  1  0  0  0  0
 24 25  1  0  0  0  0
 24 26  1  0  0  0  0
M  END
$$$$
default_name
  -OEChem-02102213163D

 29 29  0     1  0  0  0  0  0999 V2000
   -3.6042   -3.5728    1.4576 H   0  0  0  0  0  0  0  0  0  0  0  0
   -3.5202   -2.6488    0.8866 C   0  0  0  0  0  0  0  0  0  0  0  0
   -4.2052   -1.9048    1.2896 H   0  0  0  0  0  0  0  0  0  0  0  0
   -3.7552   -2.8428   -0.1584 H   0  0  0  0  0  0  0  0  0  0  0  0
   -2.1052   -2.1358    0.9946 C   0  0  0  0  0  0  0  0  0  0  0  0
   -1.2852   -2.7288    1.6826 O   0  0  0  0  0  0  0  0  0  0  0  0
   -1.8202   -1.0288    0.3146 N   0  0  0  0  0  0  0  0  0  0  0  0
   -2.5542   -0.5788   -0.2104 H   0  0  0  0  0  0  0  0  0  0  0  0
   -0.5102   -0.3728    0.3086 C   0  0  1  0  0  0  0  0  0  0  0  0
    0.2354   -1.0844   -0.0490 H   0  0  0  0  0  0  0  0  0  0  0  0
   -0.5452    0.8158   -0.6698 C   0  0  0  0  0  0  0  0  0  0  0  0
   -0.3051    1.7321   -0.1276 H   0  0  0  0  0  0  0  0  0  0  0  0
    0.2189    0.6689   -1.4354 H   0  0  0  0  0  0  0  0  0  0  0  0
   -1.8764    0.9973   -1.3518 C   0  0  0  0  0  0  0  0  0  0  0  0
   -2.2948    2.1161   -2.0397 N   0  0  0  0  0  0  0  0  0  0  0  0
   -1.7964    2.9904   -2.1130 H   0  0  0  0  0  0  0  0  0  0  0  0
   -3.4880    1.8416   -2.5931 C   0  0  0  0  0  0  0  0  0  0  0  0
   -4.0736    2.5289   -3.1915 H   0  0  0  0  0  0  0  0  0  0  0  0
   -3.8565    0.5853   -2.3030 N   0  0  0  0  0  0  0  0  0  0  0  0
   -2.8425    0.0399   -1.5112 C   0  0  0  0  0  0  0  0  0  0  0  0
   -2.8079   -0.9699   -1.1234 H   0  0  0  0  0  0  0  0  0  0  0  0
   -0.1073    0.0565    1.7296 C   0  0  0  0  0  0  0  0  0  0  0  0
    1.0285   -0.1699    2.1459 O   0  0  0  0  0  0  0  0  0  0  0  0
   -1.0395    0.6588    2.4785 N   0  0  0  0  0  0  0  0  0  0  0  0
   -1.9636    0.7597    2.0849 H   0  0  0  0  0  0  0  0  0  0  0  0
   -0.8222    1.1334    3.8425 C   0  0  0  0  0  0  0  0  0  0  0  0
   -0.0212    1.8761    3.8521 H   0  0  0  0  0  0  0  0  0  0  0  0
   -1.7349    1.5853    4.2320 H   0  0  0  0  0  0  0  0  0  0  0  0
   -0.5312    0.2997    4.4834 H   0  0  0  0  0  0  0  0  0  0  0  0
  5  6  2  0  0  0  0
  5  7  1  0  0  0  0
  2  3  1  0  0  0  0
  2  4  1  0  0  0  0
  2  5  1  0  0  0  0
  1  2  1  0  0  0  0
 22 23  2  0  0  0  0
 22 24  1  0  0  0  0
 20 21  1  0  0  0  0
 19 20  1  0  0  0  0
 17 18  1  0  0  0  0
 17 19  2  0  0  0  0
 15 16  1  0  0  0  0
 15 17  1  0  0  0  0
 14 15  1  0  0  0  0
 14 20  2  0  0  0  0
 11 12  1  0  0  0  0
 11 13  1  0  0  0  0
 11 14  1  0  0  0  0
  9 10  1  0  0  0  0
  9 11  1  0  0  0  0
  9 22  1  0  0  0  0
  7  8  1  0  0  0  0
  7  9  1  0  0  0  0
 26 27  1  0  0  0  0
 26 28  1  0  0  0  0
 26 29  1  0  0  0  0
 24 25  1  0  0  0  0
 24 26  1  0  0  0  0
M  END
$$$$
default_name
  -OEChem-02102213163D

 29 29  0     1  0  0  0  0  0999 V2000
   -3.6042   -3.5728    1.4576 H   0  0  0  0  0  0  0  0  0  0  0  0
   -3.5202   -2.6488    0.8866 C   0  0  0  0  0  0  0  0  0  0  0  0
   -4.2052   -1.9048    1.2896 H   0  0  0  0  0  0  0  0  0  0  0  0
   -3.7552   -2.8428   -0.1584 H   0  0  0  0  0  0  0  0  0  0  0  0
   -2.1052   -2.1358    0.9946 C   0  0  0  0  0  0  0  0  0  0  0  0
   -1.2852   -2.7288    1.6826 O   0  0  0  0  0  0  0  0  0  0  0  0
   -1.8202   -1.0288    0.3146 N   0  0  0  0  0  0  0  0  0  0  0  0
   -2.5542   -0.5788   -0.2104 H   0  0  0  0  0  0  0  0  0  0  0  0
   -0.5102   -0.3728    0.3086 C   0  0  1  0  0  0  0  0  0  0  0  0
    0.2354   -1.0844   -0.0490 H   0  0  0  0  0  0  0  0  0  0  0  0
   -0.5452    0.8158   -0.6698 C   0  0  0  0  0  0  0  0  0  0  0  0
   -0.0546    1.6740   -0.2072 H   0  0  0  0  0  0  0  0  0  0  0  0
    0.0155    0.5532   -1.5688 H   0  0  0  0  0  0  0  0  0  0  0  0
   -1.9379    1.2219   -1.0768 C   0  0  0  0  0  0  0  0  0  0  0  0
   -2.2705    2.2468   -1.9364 N   0  0  0  0  0  0  0  0  0  0  0  0
   -1.6305    2.9100   -2.3473 H   0  0  0  0  0  0  0  0  0  0  0  0
   -3.5999    2.2131   -2.1286 C   0  0  0  0  0  0  0  0  0  0  0  0
   -4.1598    2.8995   -2.7520 H   0  0  0  0  0  0  0  0  0  0  0  0
   -4.1434    1.2000   -1.4384 N   0  0  0  0  0  0  0  0  0  0  0  0
   -3.0979    0.5653   -0.7626 C   0  0  0  0  0  0  0  0  0  0  0  0
   -3.1828   -0.3108   -0.1328 H   0  0  0  0  0  0  0  0  0  0  0  0
   -0.1073    0.0565    1.7296 C   0  0  0  0  0  0  0  0  0  0  0  0
    1.0285   -0.1699    2.1459 O   0  0  0  0  0  0  0  0  0  0  0  0
   -1.0395    0.6588    2.4785 N   0  0  0  0  0  0  0  0  0  0  0  0
   -1.9636    0.7597    2.0849 H   0  0  0  0  0  0  0  0  0  0  0  0
   -0.8222    1.1334    3.8425 C   0  0  0  0  0  0  0  0  0  0  0  0
   -0.0212    1.8761    3.8521 H   0  0  0  0  0  0  0  0  0  0  0  0
   -1.7349    1.5853    4.2320 H   0  0  0  0  0  0  0  0  0  0  0  0
   -0.5312    0.2997    4.4834 H   0  0  0  0  0  0  0  0  0  0  0  0
  5  6  2  0  0  0  0
  5  7  1  0  0  0  0
  2  3  1  0  0  0  0
  2  4  1  0  0  0  0
  2  5  1  0  0  0  0
  1  2  1  0  0  0  0
 22 23  2  0  0  0  0
 22 24  1  0  0  0  0
 20 21  1  0  0  0  0
 19 20  1  0  0  0  0
 17 18  1  0  0  0  0
 17 19  2  0  0  0  0
 15 16  1  0  0  0  0
 15 17  1  0  0  0  0
 14 15  1  0  0  0  0
 14 20  2  0  0  0  0
 11 12  1  0  0  0  0
 11 13  1  0  0  0  0
 11 14  1  0  0  0  0
  9 10  1  0  0  0  0
  9 11  1  0  0  0  0
  9 22  1  0  0  0  0
  7  8  1  0  0  0  0
  7  9  1  0  0  0  0
 26 27  1  0  0  0  0
 26 28  1  0  0  0  0
 26 29  1  0  0  0  0
 24 25  1  0  0  0  0
 24 26  1  0  0  0  0
M  END
$$$$
default_name
  -OEChem-02102213163D

 29 29  0     1  0  0  0  0  0999 V2000
   -3.6042   -3.5728    1.4576 H   0  0  0  0  0  0  0  0  0  0  0  0
   -3.5202   -2.6488    0.8866 C   0  0  0  0  0  0  0  0  0  0  0  0
   -4.2052   -1.9048    1.2896 H   0  0  0  0  0  0  0  0  0  0  0  0
   -3.7552   -2.8428   -0.1584 H   0  0  0  0  0  0  0  0  0  0  0  0
   -2.1052   -2.1358    0.9946 C   0  0  0  0  0  0  0  0  0  0  0  0
   -1.2852   -2.7288    1.6826 O   0  0  0  0  0  0  0  0  0  0  0  0
   -1.8202   -1.0288    0.3146 N   0  0  0  0  0  0  0  0  0  0  0  0
   -2.5542   -0.5788   -0.2104 H   0  0  0  0  0  0  0  0  0  0  0  0
   -0.5102   -0.3728    0.3086 C   0  0  1  0  0  0  0  0  0  0  0  0
    0.2354   -1.0844   -0.0490 H   0  0  0  0  0  0  0  0  0  0  0  0
   -0.5452    0.8158   -0.6698 C   0  0  0  0  0  0  0  0  0  0  0  0
   -0.0546    1.6740   -0.2072 H   0  0  0  0  0  0  0  0  0  0  0  0
    0.0155    0.5532   -1.5688 H   0  0  0  0  0  0  0  0  0  0  0  0
   -1.9379    1.2219   -1.0768 C   0  0  0  0  0  0  0  0  0  0  0  0
   -2.2731    2.0370   -2.1366 N   0  0  0  0  0  0  0  0  0  0  0  0
   -1.6278    2.5317   -2.7340 H   0  0  0  0  0  0  0  0  0  0  0  0
   -3.6131    2.0631   -2.2332 C   0  0  0  0  0  0  0  0  0  0  0  0
   -4.1769    2.6240   -2.9685 H   0  0  0  0  0  0  0  0  0  0  0  0
   -4.1621    1.2880   -1.2866 N   0  0  0  0  0  0  0  0  0  0  0  0
   -3.1079    0.7514   -0.5428 C   0  0  0  0  0  0  0  0  0  0  0  0
   -3.1969    0.0587    0.2841 H   0  0  0  0  0  0  0  0  0  0  0  0
   -0.1073    0.0565    1.7296 C   0  0  0  0  0  0  0  0  0  0  0  0
    1.0285   -0.1699    2.1459 O   0  0  0  0  0  0  0  0  0  0  0  0
   -1.0395    0.6588    2.4785 N   0  0  0  0  0  0  0  0  0  0  0  0
   -1.9636    0.7597    2.0849 H   0  0  0  0  0  0  0  0  0  0  0  0
   -0.8222    1.1334    3.8425 C   0  0  0  0  0  0  0  0  0  0  0  0
   -0.0212    1.8761    3.8521 H   0  0  0  0  0  0  0  0  0  0  0  0
   -1.7349    1.5853    4.2320 H   0  0  0  0  0  0  0  0  0  0  0  0
   -0.5312    0.2997    4.4834 H   0  0  0  0  0  0  0  0  0  0  0  0
  5  6  2  0  0  0  0
  5  7  1  0  0  0  0
  2  3  1  0  0  0  0
  2  4  1  0  0  0  0
  2  5  1  0  0  0  0
  1  2  1  0  0  0  0
 22 23  2  0  0  0  0
 22 24  1  0  0  0  0
 20 21  1  0  0  0  0
 19 20  1  0  0  0  0
 17 18  1  0  0  0  0
 17 19  2  0  0  0  0
 15 16  1  0  0  0  0
 15 17  1  0  0  0  0
 14 15  1  0  0  0  0
 14 20  2  0  0  0  0
 11 12  1  0  0  0  0
 11 13  1  0  0  0  0
 11 14  1  0  0  0  0
  9 10  1  0  0  0  0
  9 11  1  0  0  0  0
  9 22  1  0  0  0  0
  7  8  1  0  0  0  0
  7  9  1  0  0  0  0
 26 27  1  0  0  0  0
 26 28  1  0  0  0  0
 26 29  1  0  0  0  0
 24 25  1  0  0  0  0
 24 26  1  0  0  0  0
M  END
$$$$
default_name
  -OEChem-02102213163D

 29 29  0     1  0  0  0  0  0999 V2000
   -3.6042   -3.5728    1.4576 H   0  0  0  0  0  0  0  0  0  0  0  0
   -3.5202   -2.6488    0.8866 C   0  0  0  0  0  0  0  0  0  0  0  0
   -4.2052   -1.9048    1.2896 H   0  0  0  0  0  0  0  0  0  0  0  0
   -3.7552   -2.8428   -0.1584 H   0  0  0  0  0  0  0  0  0  0  0  0
   -2.1052   -2.1358    0.9946 C   0  0  0  0  0  0  0  0  0  0  0  0
   -1.2852   -2.7288    1.6826 O   0  0  0  0  0  0  0  0  0  0  0  0
   -1.8202   -1.0288    0.3146 N   0  0  0  0  0  0  0  0  0  0  0  0
   -2.5542   -0.5788   -0.2104 H   0  0  0  0  0  0  0  0  0  0  0  0
   -0.5102   -0.3728    0.3086 C   0  0  1  0  0  0  0  0  0  0  0  0
    0.2354   -1.0844   -0.0490 H   0  0  0  0  0  0  0  0  0  0  0  0
   -0.5452    0.8158   -0.6698 C   0  0  0  0  0  0  0  0  0  0  0  0
   -0.0546    1.6740   -0.2072 H   0  0  0  0  0  0  0  0  0  0  0  0
    0.0155    0.5532   -1.5688 H   0  0  0  0  0  0  0  0  0  0  0  0
   -1.9379    1.2219   -1.0768 C   0  0  0  0  0  0  0  0  0  0  0  0
   -2.3044    1.7866   -2.2796 N   0  0  0  0  0  0  0  0  0  0  0  0
   -1.6786    2.0736   -3.0173 H   0  0  0  0  0  0  0  0  0  0  0  0
   -3.6436    1.8940   -2.2974 C   0  0  0  0  0  0  0  0  0  0  0  0
   -4.2277    2.3074   -3.1105 H   0  0  0  0  0  0  0  0  0  0  0  0
   -4.1634    1.4106   -1.1597 N   0  0  0  0  0  0  0  0  0  0  0  0
   -3.0892    0.9844   -0.3743 C   0  0  0  0  0  0  0  0  0  0  0  0
   -3.1556    0.5164    0.5994 H   0  0  0  0  0  0  0  0  0  0  0  0
   -0.1073    0.0565    1.7296 C   0  0  0  0  0  0  0  0  0  0  0  0
    1.0285   -0.1699    2.1459 O   0  0  0  0  0  0  0  0  0  0  0  0
   -1.0395    0.6588    2.4785 N   0  0  0  0  0  0  0  0  0  0  0  0
   -1.9636    0.7597    2.0849 H   0  0  0  0  0  0  0  0  0  0  0  0
   -0.8222    1.1334    3.8425 C   0  0  0  0  0  0  0  0  0  0  0  0
   -0.0212    1.8761    3.8521 H   0  0  0  0  0  0  0  0  0  0  0  0
   -1.7349    1.5853    4.2320 H   0  0  0  0  0  0  0  0  0  0  0  0
   -0.5312    0.2997    4.4834 H   0  0  0  0  0  0  0  0  0  0  0  0
  5  6  2  0  0  0  0
  5  7  1  0  0  0  0
  2  3  1  0  0  0  0
  2  4  1  0  0  0  0
  2  5  1  0  0  0  0
  1  2  1  0  0  0  0
 22 23  2  0  0  0  0
 22 24  1  0  0  0  0
 20 21  1  0  0  0  0
 19 20  1  0  0  0  0
 17 18  1  0  0  0  0
 17 19  2  0  0  0  0
 15 16  1  0  0  0  0
 15 17  1  0  0  0  0
 14 15  1  0  0  0  0
 14 20  2  0  0  0  0
 11 12  1  0  0  0  0
 11 13  1  0  0  0  0
 11 14  1  0  0  0  0
  9 10  1  0  0  0  0
  9 11  1  0  0  0  0
  9 22  1  0  0  0  0
  7  8  1  0  0  0  0
  7  9  1  0  0  0  0
 26 27  1  0  0  0  0
 26 28  1  0  0  0  0
 26 29  1  0  0  0  0
 24 25  1  0  0  0  0
 24 26  1  0  0  0  0
M  END
$$$$
default_name
  -OEChem-02102213163D

 29 29  0     1  0  0  0  0  0999 V2000
   -3.6042   -3.5728    1.4576 H   0  0  0  0  0  0  0  0  0  0  0  0
   -3.5202   -2.6488    0.8866 C   0  0  0  0  0  0  0  0  0  0  0  0
   -4.2052   -1.9048    1.2896 H   0  0  0  0  0  0  0  0  0  0  0  0
   -3.7552   -2.8428   -0.1584 H   0  0  0  0  0  0  0  0  0  0  0  0
   -2.1052   -2.1358    0.9946 C   0  0  0  0  0  0  0  0  0  0  0  0
   -1.2852   -2.7288    1.6826 O   0  0  0  0  0  0  0  0  0  0  0  0
   -1.8202   -1.0288    0.3146 N   0  0  0  0  0  0  0  0  0  0  0  0
   -2.5542   -0.5788   -0.2104 H   0  0  0  0  0  0  0  0  0  0  0  0
   -0.5102   -0.3728    0.3086 C   0  0  1  0  0  0  0  0  0  0  0  0
    0.2354   -1.0844   -0.0490 H   0  0  0  0  0  0  0  0  0  0  0  0
   -0.5452    0.8158   -0.6698 C   0  0  0  0  0  0  0  0  0  0  0  0
   -0.0546    1.6740   -0.2072 H   0  0  0  0  0  0  0  0  0  0  0  0
    0.0155    0.5532   -1.5688 H   0  0  0  0  0  0  0  0  0  0  0  0
   -1.9379    1.2219   -1.0768 C   0  0  0  0  0  0  0  0  0  0  0  0
   -2.3620    1.5127   -2.3557 N   0  0  0  0  0  0  0  0  0  0  0  0
   -1.7794    1.5669   -3.1778 H   0  0  0  0  0  0  0  0  0  0  0  0
   -3.6894    1.7175   -2.3169 C   0  0  0  0  0  0  0  0  0  0  0  0
   -4.3088    1.9711   -3.1684 H   0  0  0  0  0  0  0  0  0  0  0  0
   -4.1473    1.5594   -1.0664 N   0  0  0  0  0  0  0  0  0  0  0  0
   -3.0431    1.2485   -0.2686 C   0  0  0  0  0  0  0  0  0  0  0  0
   -3.0617    1.0310    0.7915 H   0  0  0  0  0  0  0  0  0  0  0  0
   -0.1073    0.0565    1.7296 C   0  0  0  0  0  0  0  0  0  0  0  0
    1.0285   -0.1699    2.1459 O   0  0  0  0  0  0  0  0  0  0  0  0
   -1.0395    0.6588    2.4785 N   0  0  0  0  0  0  0  0  0  0  0  0
   -1.9636    0.7597    2.0849 H   0  0  0  0  0  0  0  0  0  0  0  0
   -0.8222    1.1334    3.8425 C   0  0  0  0  0  0  0  0  0  0  0  0
   -0.0212    1.8761    3.8521 H   0  0  0  0  0  0  0  0  0  0  0  0
   -1.7349    1.5853    4.2320 H   0  0  0  0  0  0  0  0  0  0  0  0
   -0.5312    0.2997    4.4834 H   0  0  0  0  0  0  0  0  0  0  0  0
  5  6  2  0  0  0  0
  5  7  1  0  0  0  0
  2  3  1  0  0  0  0
  2  4  1  0  0  0  0
  2  5  1  0  0  0  0
  1  2  1  0  0  0  0
 22 23  2  0  0  0  0
 22 24  1  0  0  0  0
 20 21  1  0  0  0  0
 19 20  1  0  0  0  0
 17 18  1  0  0  0  0
 17 19  2  0  0  0  0
 15 16  1  0  0  0  0
 15 17  1  0  0  0  0
 14 15  1  0  0  0  0
 14 20  2  0  0  0  0
 11 12  1  0  0  0  0
 11 13  1  0  0  0  0
 11 14  1  0  0  0  0
  9 10  1  0  0  0  0
  9 11  1  0  0  0  0
  9 22  1  0  0  0  0
  7  8  1  0  0  0  0
  7  9  1  0  0  0  0
 26 27  1  0  0  0  0
 26 28  1  0  0  0  0
 26 29  1  0  0  0  0
 24 25  1  0  0  0  0
 24 26  1  0  0  0  0
M  END
$$$$
default_name
  -OEChem-02102213163D

 29 29  0     1  0  0  0  0  0999 V2000
   -3.6042   -3.5728    1.4576 H   0  0  0  0  0  0  0  0  0  0  0  0
   -3.5202   -2.6488    0.8866 C   0  0  0  0  0  0  0  0  0  0  0  0
   -4.2052   -1.9048    1.2896 H   0  0  0  0  0  0  0  0  0  0  0  0
   -3.7552   -2.8428   -0.1584 H   0  0  0  0  0  0  0  0  0  0  0  0
   -2.1052   -2.1358    0.9946 C   0  0  0  0  0  0  0  0  0  0  0  0
   -1.2852   -2.7288    1.6826 O   0  0  0  0  0  0  0  0  0  0  0  0
   -1.8202   -1.0288    0.3146 N   0  0  0  0  0  0  0  0  0  0  0  0
   -2.5542   -0.5788   -0.2104 H   0  0  0  0  0  0  0  0  0  0  0  0
   -0.5102   -0.3728    0.3086 C   0  0  1  0  0  0  0  0  0  0  0  0
    0.2354   -1.0844   -0.0490 H   0  0  0  0  0  0  0  0  0  0  0  0
   -0.5452    0.8158   -0.6698 C   0  0  0  0  0  0  0  0  0  0  0  0
   -0.0546    1.6740   -0.2072 H   0  0  0  0  0  0  0  0  0  0  0  0
    0.0155    0.5532   -1.5688 H   0  0  0  0  0  0  0  0  0  0  0  0
   -1.9379    1.2219   -1.0768 C   0  0  0  0  0  0  0  0  0  0  0  0
   -2.4421    1.2339   -2.3596 N   0  0  0  0  0  0  0  0  0  0  0  0
   -1.9234    1.0462   -3.2045 H   0  0  0  0  0  0  0  0  0  0  0  0
   -3.7473    1.5455   -2.2902 C   0  0  0  0  0  0  0  0  0  0  0  0
   -4.4148    1.6380   -3.1382 H   0  0  0  0  0  0  0  0  0  0  0  0
   -4.1148    1.7244   -1.0130 N   0  0  0  0  0  0  0  0  0  0  0  0
   -2.9727    1.5256   -0.2328 C   0  0  0  0  0  0  0  0  0  0  0  0
   -2.9216    1.5674    0.8475 H   0  0  0  0  0  0  0  0  0  0  0  0
   -0.1073    0.0565    1.7296 C   0  0  0  0  0  0  0  0  0  0  0  0
    1.0285   -0.1699    2.1459 O   0  0  0  0  0  0  0  0  0  0  0  0
   -1.0395    0.6588    2.4785 N   0  0  0  0  0  0  0  0  0  0  0  0
   -1.9636    0.7597    2.0849 H   0  0  0  0  0  0  0  0  0  0  0  0
   -0.8222    1.1334    3.8425 C   0  0  0  0  0  0  0  0  0  0  0  0
   -0.0212    1.8761    3.8521 H   0  0  0  0  0  0  0  0  0  0  0  0
   -1.7349    1.5853    4.2320 H   0  0  0  0  0  0  0  0  0  0  0  0
   -0.5312    0.2997    4.4834 H   0  0  0  0  0  0  0  0  0  0  0  0
  5  6  2  0  0  0  0
  5  7  1  0  0  0  0
  2  3  1  0  0  0  0
  2  4  1  0  0  0  0
  2  5  1  0  0  0  0
  1  2  1  0  0  0  0
 22 23  2  0  0  0  0
 22 24  1  0  0  0  0
 20 21  1  0  0  0  0
 19 20  1  0  0  0  0
 17 18  1  0  0  0  0
 17 19  2  0  0  0  0
 15 16  1  0  0  0  0
 15 17  1  0  0  0  0
 14 15  1  0  0  0  0
 14 20  2  0  0  0  0
 11 12  1  0  0  0  0
 11 13  1  0  0  0  0
 11 14  1  0  0  0  0
  9 10  1  0  0  0  0
  9 11  1  0  0  0  0
  9 22  1  0  0  0  0
  7  8  1  0  0  0  0
  7  9  1  0  0  0  0
 26 27  1  0  0  0  0
 26 28  1  0  0  0  0
 26 29  1  0  0  0  0
 24 25  1  0  0  0  0
 24 26  1  0  0  0  0
M  END
$$$$
default_name
  -OEChem-02102213163D

 29 29  0     1  0  0  0  0  0999 V2000
   -3.6042   -3.5728    1.4576 H   0  0  0  0  0  0  0  0  0  0  0  0
   -3.5202   -2.6488    0.8866 C   0  0  0  0  0  0  0  0  0  0  0  0
   -4.2052   -1.9048    1.2896 H   0  0  0  0  0  0  0  0  0  0  0  0
   -3.7552   -2.8428   -0.1584 H   0  0  0  0  0  0  0  0  0  0  0  0
   -2.1052   -2.1358    0.9946 C   0  0  0  0  0  0  0  0  0  0  0  0
   -1.2852   -2.7288    1.6826 O   0  0  0  0  0  0  0  0  0  0  0  0
   -1.8202   -1.0288    0.3146 N   0  0  0  0  0  0  0  0  0  0  0  0
   -2.5542   -0.5788   -0.2104 H   0  0  0  0  0  0  0  0  0  0  0  0
   -0.5102   -0.3728    0.3086 C   0  0  1  0  0  0  0  0  0  0  0  0
    0.2354   -1.0844   -0.0490 H   0  0  0  0  0  0  0  0  0  0  0  0
   -0.5452    0.8158   -0.6698 C   0  0  0  0  0  0  0  0  0  0  0  0
   -0.0546    1.6740   -0.2072 H   0  0  0  0  0  0  0  0  0  0  0  0
    0.0155    0.5532   -1.5688 H   0  0  0  0  0  0  0  0  0  0  0  0
   -1.9379    1.2219   -1.0768 C   0  0  0  0  0  0  0  0  0  0  0  0
   -2.5393    0.9694   -2.2911 N   0  0  0  0  0  0  0  0  0  0  0  0
   -2.1008    0.5468   -3.0957 H   0  0  0  0  0  0  0  0  0  0  0  0
   -3.8134    1.3898   -2.2193 C   0  0  0  0  0  0  0  0  0  0  0  0
   -4.5383    1.3310   -3.0220 H   0  0  0  0  0  0  0  0  0  0  0  0
   -4.0681    1.8943   -1.0032 N   0  0  0  0  0  0  0  0  0  0  0  0
   -2.8829    1.7969   -0.2695 C   0  0  0  0  0  0  0  0  0  0  0  0
   -2.7449    2.0892    0.7634 H   0  0  0  0  0  0  0  0  0  0  0  0
   -0.1073    0.0565    1.7296 C   0  0  0  0  0  0  0  0  0  0  0  0
    1.0285   -0.1699    2.1459 O   0  0  0  0  0  0  0  0  0  0  0  0
   -1.0395    0.6588    2.4785 N   0  0  0  0  0  0  0  0  0  0  0  0
   -1.9636    0.7597    2.0849 H   0  0  0  0  0  0  0  0  0  0  0  0
   -0.8222    1.1334    3.8425 C   0  0  0  0  0  0  0  0  0  0  0  0
   -0.0212    1.8761    3.8521 H   0  0  0  0  0  0  0  0  0  0  0  0
   -1.7349    1.5853    4.2320 H   0  0  0  0  0  0  0  0  0  0  0  0
   -0.5312    0.2997    4.4834 H   0  0  0  0  0  0  0  0  0  0  0  0
  5  6  2  0  0  0  0
  5  7  1  0  0  0  0
  2  3  1  0  0  0  0
  2  4  1  0  0  0  0
  2  5  1  0  0  0  0
  1  2  1  0  0  0  0
 22 23  2  0  0  0  0
 22 24  1  0  0  0  0
 20 21  1  0  0  0  0
 19 20  1  0  0  0  0
 17 18  1  0  0  0  0
 17 19  2  0  0  0  0
 15 16  1  0  0  0  0
 15 17  1  0  0  0  0
 14 15  1  0  0  0  0
 14 20  2  0  0  0  0
 11 12  1  0  0  0  0
 11 13  1  0  0  0  0
 11 14  1  0  0  0  0
  9 10  1  0  0  0  0
  9 11  1  0  0  0  0
  9 22  1  0  0  0  0
  7  8  1  0  0  0  0
  7  9  1  0  0  0  0
 26 27  1  0  0  0  0
 26 28  1  0  0  0  0
 26 29  1  0  0  0  0
 24 25  1  0  0  0  0
 24 26  1  0  0  0  0
M  END
$$$$
default_name
  -OEChem-02102213163D

 29 29  0     1  0  0  0  0  0999 V2000
   -3.6042   -3.5728    1.4576 H   0  0  0  0  0  0  0  0  0  0  0  0
   -3.5202   -2.6488    0.8866 C   0  0  0  0  0  0  0  0  0  0  0  0
   -4.2052   -1.9048    1.2896 H   0  0  0  0  0  0  0  0  0  0  0  0
   -3.7552   -2.8428   -0.1584 H   0  0  0  0  0  0  0  0  0  0  0  0
   -2.1052   -2.1358    0.9946 C   0  0  0  0  0  0  0  0  0  0  0  0
   -1.2852   -2.7288    1.6826 O   0  0  0  0  0  0  0  0  0  0  0  0
   -1.8202   -1.0288    0.3146 N   0  0  0  0  0  0  0  0  0  0  0  0
   -2.5542   -0.5788   -0.2104 H   0  0  0  0  0  0  0  0  0  0  0  0
   -0.5102   -0.3728    0.3086 C   0  0  1  0  0  0  0  0  0  0  0  0
    0.2354   -1.0844   -0.0490 H   0  0  0  0  0  0  0  0  0  0  0  0
   -0.5452    0.8158   -0.6698 C   0  0  0  0  0  0  0  0  0  0  0  0
   -0.0546    1.6740   -0.2072 H   0  0  0  0  0  0  0  0  0  0  0  0
    0.0155    0.5532   -1.5688 H   0  0  0  0  0  0  0  0  0  0  0  0
   -1.9379    1.2219   -1.0768 C   0  0  0  0  0  0  0  0  0  0  0  0
   -2.6468    0.7370   -2.1549 N   0  0  0  0  0  0  0  0  0  0  0  0
   -2.2994    0.1029   -2.8588 H   0  0  0  0  0  0  0  0  0  0  0  0
   -3.8832    1.2611   -2.1089 C   0  0  0  0  0  0  0  0  0  0  0  0
   -4.6709    1.0708   -2.8277 H   0  0  0  0  0  0  0  0  0  0  0  0
   -4.0105    2.0575   -1.0376 N   0  0  0  0  0  0  0  0  0  0  0  0
   -2.7797    2.0440   -0.3762 C   0  0  0  0  0  0  0  0  0  0  0  0
   -2.5436    2.5607    0.5451 H   0  0  0  0  0  0  0  0  0  0  0  0
   -0.1073    0.0565    1.7296 C   0  0  0  0  0  0  0  0  0  0  0  0
    1.0285   -0.1699    2.1459 O   0  0  0  0  0  0  0  0  0  0  0  0
   -1.0395    0.6588    2.4785 N   0  0  0  0  0  0  0  0  0  0  0  0
   -1.9636    0.7597    2.0849 H   0  0  0  0  0  0  0  0  0  0  0  0
   -0.8222    1.1334    3.8425 C   0  0  0  0  0  0  0  0  0  0  0  0
   -0.0212    1.8761    3.8521 H   0  0  0  0  0  0  0  0  0  0  0  0
   -1.7349    1.5853    4.2320 H   0  0  0  0  0  0  0  0  0  0  0  0
   -0.5312    0.2997    4.4834 H   0  0  0  0  0  0  0  0  0  0  0  0
  5  6  2  0  0  0  0
  5  7  1  0  0  0  0
  2  3  1  0  0  0  0
  2  4  1  0  0  0  0
  2  5  1  0  0  0  0
  1  2  1  0  0  0  0
 22 23  2  0  0  0  0
 22 24  1  0  0  0  0
 20 21  1  0  0  0  0
 19 20  1  0  0  0  0
 17 18  1  0  0  0  0
 17 19  2  0  0  0  0
 15 16  1  0  0  0  0
 15 17  1  0  0  0  0
 14 15  1  0  0  0  0
 14 20  2  0  0  0  0
 11 12  1  0  0  0  0
 11 13  1  0  0  0  0
 11 14  1  0  0  0  0
  9 10  1  0  0  0  0
  9 11  1  0  0  0  0
  9 22  1  0  0  0  0
  7  8  1  0  0  0  0
  7  9  1  0  0  0  0
 26 27  1  0  0  0  0
 26 28  1  0  0  0  0
 26 29  1  0  0  0  0
 24 25  1  0  0  0  0
 24 26  1  0  0  0  0
M  END
$$$$
default_name
  -OEChem-02102213163D

 29 29  0     1  0  0  0  0  0999 V2000
   -3.6042   -3.5728    1.4576 H   0  0  0  0  0  0  0  0  0  0  0  0
   -3.5202   -2.6488    0.8866 C   0  0  0  0  0  0  0  0  0  0  0  0
   -4.2052   -1.9048    1.2896 H   0  0  0  0  0  0  0  0  0  0  0  0
   -3.7552   -2.8428   -0.1584 H   0  0  0  0  0  0  0  0  0  0  0  0
   -2.1052   -2.1358    0.9946 C   0  0  0  0  0  0  0  0  0  0  0  0
   -1.2852   -2.7288    1.6826 O   0  0  0  0  0  0  0  0  0  0  0  0
   -1.8202   -1.0288    0.3146 N   0  0  0  0  0  0  0  0  0  0  0  0
   -2.5542   -0.5788   -0.2104 H   0  0  0  0  0  0  0  0  0  0  0  0
   -0.5102   -0.3728    0.3086 C   0  0  1  0  0  0  0  0  0  0  0  0
    0.2354   -1.0844   -0.0490 H   0  0  0  0  0  0  0  0  0  0  0  0
   -0.5452    0.8158   -0.6698 C   0  0  0  0  0  0  0  0  0  0  0  0
   -0.0546    1.6740   -0.2072 H   0  0  0  0  0  0  0  0  0  0  0  0
    0.0155    0.5532   -1.5688 H   0  0  0  0  0  0  0  0  0  0  0  0
   -1.9379    1.2219   -1.0768 C   0  0  0  0  0  0  0  0  0  0  0  0
   -2.7575    0.5526   -1.9602 N   0  0  0  0  0  0  0  0  0  0  0  0
   -2.5058   -0.2553   -2.5099 H   0  0  0  0  0  0  0  0  0  0  0  0
   -3.9519    1.1679   -1.9667 C   0  0  0  0  0  0  0  0  0  0  0  0
   -4.8036    0.8753   -2.5685 H   0  0  0  0  0  0  0  0  0  0  0  0
   -3.9459    2.2028   -1.1139 N   0  0  0  0  0  0  0  0  0  0  0  0
   -2.6702    2.2499   -0.5455 C   0  0  0  0  0  0  0  0  0  0  0  0
   -2.3315    2.9499    0.2073 H   0  0  0  0  0  0  0  0  0  0  0  0
   -0.1073    0.0565    1.7296 C   0  0  0  0  0  0  0  0  0  0  0  0
    1.0285   -0.1699    2.1459 O   0  0  0  0  0  0  0  0  0  0  0  0
   -1.0395    0.6588    2.4785 N   0  0  0  0  0  0  0  0  0  0  0  0
   -1.9636    0.7597    2.0849 H   0  0  0  0  0  0  0  0  0  0  0  0
   -0.8222    1.1334    3.8425 C   0  0  0  0  0  0  0  0  0  0  0  0
   -0.0212    1.8761    3.8521 H   0  0  0  0  0  0  0  0  0  0  0  0
   -1.7349    1.5853    4.2320 H   0  0  0  0  0  0  0  0  0  0  0  0
   -0.5312    0.2997    4.4834 H   0  0  0  0  0  0  0  0  0  0  0  0
  5  6  2  0  0  0  0
  5  7  1  0  0  0  0
  2  3  1  0  0  0  0
  2  4  1  0  0  0  0
  2  5  1  0  0  0  0
  1  2  1  0  0  0  0
 22 23  2  0  0  0  0
 22 24  1  0  0  0  0
 20 21  1  0  0  0  0
 19 20  1  0  0  0  0
 17 18  1  0  0  0  0
 17 19  2  0  0  0  0
 15 16  1  0  0  0  0
 15 17  1  0  0  0  0
 14 15  1  0  0  0  0
 14 20  2  0  0  0  0
 11 12  1  0  0  0  0
 11 13  1  0  0  0  0
 11 14  1  0  0  0  0
  9 10  1  0  0  0  0
  9 11  1  0  0  0  0
  9 22  1  0  0  0  0
  7  8  1  0  0  0  0
  7  9  1  0  0  0  0
 26 27  1  0  0  0  0
 26 28  1  0  0  0  0
 26 29  1  0  0  0  0
 24 25  1  0  0  0  0
 24 26  1  0  0  0  0
M  END
$$$$
default_name
  -OEChem-02102213163D

 29 29  0     1  0  0  0  0  0999 V2000
   -3.6042   -3.5728    1.4576 H   0  0  0  0  0  0  0  0  0  0  0  0
   -3.5202   -2.6488    0.8866 C   0  0  0  0  0  0  0  0  0  0  0  0
   -4.2052   -1.9048    1.2896 H   0  0  0  0  0  0  0  0  0  0  0  0
   -3.7552   -2.8428   -0.1584 H   0  0  0  0  0  0  0  0  0  0  0  0
   -2.1052   -2.1358    0.9946 C   0  0  0  0  0  0  0  0  0  0  0  0
   -1.2852   -2.7288    1.6826 O   0  0  0  0  0  0  0  0  0  0  0  0
   -1.8202   -1.0288    0.3146 N   0  0  0  0  0  0  0  0  0  0  0  0
   -2.5542   -0.5788   -0.2104 H   0  0  0  0  0  0  0  0  0  0  0  0
   -0.5102   -0.3728    0.3086 C   0  0  1  0  0  0  0  0  0  0  0  0
    0.2354   -1.0844   -0.0490 H   0  0  0  0  0  0  0  0  0  0  0  0
   -0.5452    0.8158   -0.6698 C   0  0  0  0  0  0  0  0  0  0  0  0
   -0.0546    1.6740   -0.2072 H   0  0  0  0  0  0  0  0  0  0  0  0
    0.0155    0.5532   -1.5688 H   0  0  0  0  0  0  0  0  0  0  0  0
   -1.9379    1.2219   -1.0768 C   0  0  0  0  0  0  0  0  0  0  0  0
   -2.8637    0.4288   -1.7203 N   0  0  0  0  0  0  0  0  0  0  0  0
   -2.7059   -0.5034   -2.0728 H   0  0  0  0  0  0  0  0  0  0  0  0
   -4.0149    1.1168   -1.8022 C   0  0  0  0  0  0  0  0  0  0  0  0
   -4.9274    0.7577   -2.2621 H   0  0  0  0  0  0  0  0  0  0  0  0
   -3.8785    2.3205   -1.2268 N   0  0  0  0  0  0  0  0  0  0  0  0
   -2.5619    2.4006   -0.7659 C   0  0  0  0  0  0  0  0  0  0  0  0
   -2.1229    3.2302   -0.2269 H   0  0  0  0  0  0  0  0  0  0  0  0
   -0.1073    0.0565    1.7296 C   0  0  0  0  0  0  0  0  0  0  0  0
    1.0285   -0.1699    2.1459 O   0  0  0  0  0  0  0  0  0  0  0  0
   -1.0395    0.6588    2.4785 N   0  0  0  0  0  0  0  0  0  0  0  0
   -1.9636    0.7597    2.0849 H   0  0  0  0  0  0  0  0  0  0  0  0
   -0.8222    1.1334    3.8425 C   0  0  0  0  0  0  0  0  0  0  0  0
   -0.0212    1.8761    3.8521 H   0  0  0  0  0  0  0  0  0  0  0  0
   -1.7349    1.5853    4.2320 H   0  0  0  0  0  0  0  0  0  0  0  0
   -0.5312    0.2997    4.4834 H   0  0  0  0  0  0  0  0  0  0  0  0
  5  6  2  0  0  0  0
  5  7  1  0  0  0  0
  2  3  1  0  0  0  0
  2  4  1  0  0  0  0
  2  5  1  0  0  0  0
  1  2  1  0  0  0  0
 22 23  2  0  0  0  0
 22 24  1  0  0  0  0
 20 21  1  0  0  0  0
 19 20  1  0  0  0  0
 17 18  1  0  0  0  0
 17 19  2  0  0  0  0
 15 16  1  0  0  0  0
 15 17  1  0  0  0  0
 14 15  1  0  0  0  0
 14 20  2  0  0  0  0
 11 12  1  0  0  0  0
 11 13  1  0  0  0  0
 11 14  1  0  0  0  0
  9 10  1  0  0  0  0
  9 11  1  0  0  0  0
  9 22  1  0  0  0  0
  7  8  1  0  0  0  0
  7  9  1  0  0  0  0
 26 27  1  0  0  0  0
 26 28  1  0  0  0  0
 26 29  1  0  0  0  0
 24 25  1  0  0  0  0
 24 26  1  0  0  0  0
M  END
$$$$
default_name
  -OEChem-02102213163D

 29 29  0     1  0  0  0  0  0999 V2000
   -3.6042   -3.5728    1.4576 H   0  0  0  0  0  0  0  0  0  0  0  0
   -3.5202   -2.6488    0.8866 C   0  0  0  0  0  0  0  0  0  0  0  0
   -4.2052   -1.9048    1.2896 H   0  0  0  0  0  0  0  0  0  0  0  0
   -3.7552   -2.8428   -0.1584 H   0  0  0  0  0  0  0  0  0  0  0  0
   -2.1052   -2.1358    0.9946 C   0  0  0  0  0  0  0  0  0  0  0  0
   -1.2852   -2.7288    1.6826 O   0  0  0  0  0  0  0  0  0  0  0  0
   -1.8202   -1.0288    0.3146 N   0  0  0  0  0  0  0  0  0  0  0  0
   -2.5542   -0.5788   -0.2104 H   0  0  0  0  0  0  0  0  0  0  0  0
   -0.5102   -0.3728    0.3086 C   0  0  1  0  0  0  0  0  0  0  0  0
    0.2354   -1.0844   -0.0490 H   0  0  0  0  0  0  0  0  0  0  0  0
   -0.5452    0.8158   -0.6698 C   0  0  0  0  0  0  0  0  0  0  0  0
   -0.0546    1.6740   -0.2072 H   0  0  0  0  0  0  0  0  0  0  0  0
    0.0155    0.5532   -1.5688 H   0  0  0  0  0  0  0  0  0  0  0  0
   -1.9379    1.2219   -1.0768 C   0  0  0  0  0  0  0  0  0  0  0  0
   -2.9581    0.3741   -1.4516 N   0  0  0  0  0  0  0  0  0  0  0  0
   -2.8860   -0.6245   -1.5773 H   0  0  0  0  0  0  0  0  0  0  0  0
   -4.0678    1.1112   -1.6267 C   0  0  0  0  0  0  0  0  0  0  0  0
   -5.0339    0.7261   -1.9293 H   0  0  0  0  0  0  0  0  0  0  0  0
   -3.8132    2.4024   -1.3688 N   0  0  0  0  0  0  0  0  0  0  0  0
   -2.4621    2.4859   -1.0224 C   0  0  0  0  0  0  0  0  0  0  0  0
   -1.9321    3.3824   -0.7278 H   0  0  0  0  0  0  0  0  0  0  0  0
   -0.1073    0.0565    1.7296 C   0  0  0  0  0  0  0  0  0  0  0  0
    1.0285   -0.1699    2.1459 O   0  0  0  0  0  0  0  0  0  0  0  0
   -1.0395    0.6588    2.4785 N   0  0  0  0  0  0  0  0  0  0  0  0
   -1.9636    0.7597    2.0849 H   0  0  0  0  0  0  0  0  0  0  0  0
   -0.8222    1.1334    3.8425 C   0  0  0  0  0  0  0  0  0  0  0  0
   -0.0212    1.8761    3.8521 H   0  0  0  0  0  0  0  0  0  0  0  0
   -1.7349    1.5853    4.2320 H   0  0  0  0  0  0  0  0  0  0  0  0
   -0.5312    0.2997    4.4834 H   0  0  0  0  0  0  0  0  0  0  0  0
  5  6  2  0  0  0  0
  5  7  1  0  0  0  0
  2  3  1  0  0  0  0
  2  4  1  0  0  0  0
  2  5  1  0  0  0  0
  1  2  1  0  0  0  0
 22 23  2  0  0  0  0
 22 24  1  0  0  0  0
 20 21  1  0  0  0  0
 19 20  1  0  0  0  0
 17 18  1  0  0  0  0
 17 19  2  0  0  0  0
 15 16  1  0  0  0  0
 15 17  1  0  0  0  0
 14 15  1  0  0  0  0
 14 20  2  0  0  0  0
 11 12  1  0  0  0  0
 11 13  1  0  0  0  0
 11 14  1  0  0  0  0
  9 10  1  0  0  0  0
  9 11  1  0  0  0  0
  9 22  1  0  0  0  0
  7  8  1  0  0  0  0
  7  9  1  0  0  0  0
 26 27  1  0  0  0  0
 26 28  1  0  0  0  0
 26 29  1  0  0  0  0
 24 25  1  0  0  0  0
 24 26  1  0  0  0  0
M  END
$$$$
default_name
  -OEChem-02102213163D

 29 29  0     1  0  0  0  0  0999 V2000
   -3.6042   -3.5728    1.4576 H   0  0  0  0  0  0  0  0  0  0  0  0
   -3.5202   -2.6488    0.8866 C   0  0  0  0  0  0  0  0  0  0  0  0
   -4.2052   -1.9048    1.2896 H   0  0  0  0  0  0  0  0  0  0  0  0
   -3.7552   -2.8428   -0.1584 H   0  0  0  0  0  0  0  0  0  0  0  0
   -2.1052   -2.1358    0.9946 C   0  0  0  0  0  0  0  0  0  0  0  0
   -1.2852   -2.7288    1.6826 O   0  0  0  0  0  0  0  0  0  0  0  0
   -1.8202   -1.0288    0.3146 N   0  0  0  0  0  0  0  0  0  0  0  0
   -2.5542   -0.5788   -0.2104 H   0  0  0  0  0  0  0  0  0  0  0  0
   -0.5102   -0.3728    0.3086 C   0  0  1  0  0  0  0  0  0  0  0  0
    0.2354   -1.0844   -0.0490 H   0  0  0  0  0  0  0  0  0  0  0  0
   -0.5452    0.8158   -0.6698 C   0  0  0  0  0  0  0  0  0  0  0  0
   -0.0546    1.6740   -0.2072 H   0  0  0  0  0  0  0  0  0  0  0  0
    0.0155    0.5532   -1.5688 H   0  0  0  0  0  0  0  0  0  0  0  0
   -1.9379    1.2219   -1.0768 C   0  0  0  0  0  0  0  0  0  0  0  0
   -3.0345    0.3921   -1.1724 N   0  0  0  0  0  0  0  0  0  0  0  0
   -3.0338   -0.6103   -1.0571 H   0  0  0  0  0  0  0  0  0  0  0  0
   -4.1071    1.1515   -1.4521 C   0  0  0  0  0  0  0  0  0  0  0  0
   -5.1157    0.7826   -1.5930 H   0  0  0  0  0  0  0  0  0  0  0  0
   -3.7542    2.4429   -1.5300 N   0  0  0  0  0  0  0  0  0  0  0  0
   -2.3776    2.4999   -1.2975 C   0  0  0  0  0  0  0  0  0  0  0  0
   -1.7722    3.3963   -1.2614 H   0  0  0  0  0  0  0  0  0  0  0  0
   -0.1073    0.0565    1.7296 C   0  0  0  0  0  0  0  0  0  0  0  0
    1.0285   -0.1699    2.1459 O   0  0  0  0  0  0  0  0  0  0  0  0
   -1.0395    0.6588    2.4785 N   0  0  0  0  0  0  0  0  0  0  0  0
   -1.9636    0.7597    2.0849 H   0  0  0  0  0  0  0  0  0  0  0  0
   -0.8222    1.1334    3.8425 C   0  0  0  0  0  0  0  0  0  0  0  0
   -0.0212    1.8761    3.8521 H   0  0  0  0  0  0  0  0  0  0  0  0
   -1.7349    1.5853    4.2320 H   0  0  0  0  0  0  0  0  0  0  0  0
   -0.5312    0.2997    4.4834 H   0  0  0  0  0  0  0  0  0  0  0  0
  5  6  2  0  0  0  0
  5  7  1  0  0  0  0
  2  3  1  0  0  0  0
  2  4  1  0  0  0  0
  2  5  1  0  0  0  0
  1  2  1  0  0  0  0
 22 23  2  0  0  0  0
 22 24  1  0  0  0  0
 20 21  1  0  0  0  0
 19 20  1  0  0  0  0
 17 18  1  0  0  0  0
 17 19  2  0  0  0  0
 15 16  1  0  0  0  0
 15 17  1  0  0  0  0
 14 15  1  0  0  0  0
 14 20  2  0  0  0  0
 11 12  1  0  0  0  0
 11 13  1  0  0  0  0
 11 14  1  0  0  0  0
  9 10  1  0  0  0  0
  9 11  1  0  0  0  0
  9 22  1  0  0  0  0
  7  8  1  0  0  0  0
  7  9  1  0  0  0  0
 26 27  1  0  0  0  0
 26 28  1  0  0  0  0
 26 29  1  0  0  0  0
 24 25  1  0  0  0  0
 24 26  1  0  0  0  0
M  END
$$$$
default_name
  -OEChem-02102213163D

 29 29  0     1  0  0  0  0  0999 V2000
   -3.6042   -3.5728    1.4576 H   0  0  0  0  0  0  0  0  0  0  0  0
   -3.5202   -2.6488    0.8866 C   0  0  0  0  0  0  0  0  0  0  0  0
   -4.2052   -1.9048    1.2896 H   0  0  0  0  0  0  0  0  0  0  0  0
   -3.7552   -2.8428   -0.1584 H   0  0  0  0  0  0  0  0  0  0  0  0
   -2.1052   -2.1358    0.9946 C   0  0  0  0  0  0  0  0  0  0  0  0
   -1.2852   -2.7288    1.6826 O   0  0  0  0  0  0  0  0  0  0  0  0
   -1.8202   -1.0288    0.3146 N   0  0  0  0  0  0  0  0  0  0  0  0
   -2.5542   -0.5788   -0.2104 H   0  0  0  0  0  0  0  0  0  0  0  0
   -0.5102   -0.3728    0.3086 C   0  0  1  0  0  0  0  0  0  0  0  0
    0.2354   -1.0844   -0.0490 H   0  0  0  0  0  0  0  0  0  0  0  0
   -0.5452    0.8158   -0.6698 C   0  0  0  0  0  0  0  0  0  0  0  0
   -0.0546    1.6740   -0.2072 H   0  0  0  0  0  0  0  0  0  0  0  0
    0.0155    0.5532   -1.5688 H   0  0  0  0  0  0  0  0  0  0  0  0
   -1.9379    1.2219   -1.0768 C   0  0  0  0  0  0  0  0  0  0  0  0
   -3.0875    0.4817   -0.9016 N   0  0  0  0  0  0  0  0  0  0  0  0
   -3.1394   -0.4618   -0.5477 H   0  0  0  0  0  0  0  0  0  0  0  0
   -4.1300    1.2349   -1.2904 C   0  0  0  0  0  0  0  0  0  0  0  0
   -5.1673    0.9234   -1.2759 H   0  0  0  0  0  0  0  0  0  0  0  0
   -3.7057    2.4394   -1.6996 N   0  0  0  0  0  0  0  0  0  0  0  0
   -2.3142    2.4417   -1.5726 C   0  0  0  0  0  0  0  0  0  0  0  0
   -1.6539    3.2709   -1.7914 H   0  0  0  0  0  0  0  0  0  0  0  0
   -0.1073    0.0565    1.7296 C   0  0  0  0  0  0  0  0  0  0  0  0
    1.0285   -0.1699    2.1459 O   0  0  0  0  0  0  0  0  0  0  0  0
   -1.0395    0.6588    2.4785 N   0  0  0  0  0  0  0  0  0  0  0  0
   -1.9636    0.7597    2.0849 H   0  0  0  0  0  0  0  0  0  0  0  0
   -0.8222    1.1334    3.8425 C   0  0  0  0  0  0  0  0  0  0  0  0
   -0.0212    1.8761    3.8521 H   0  0  0  0  0  0  0  0  0  0  0  0
   -1.7349    1.5853    4.2320 H   0  0  0  0  0  0  0  0  0  0  0  0
   -0.5312    0.2997    4.4834 H   0  0  0  0  0  0  0  0  0  0  0  0
  5  6  2  0  0  0  0
  5  7  1  0  0  0  0
  2  3  1  0  0  0  0
  2  4  1  0  0  0  0
  2  5  1  0  0  0  0
  1  2  1  0  0  0  0
 22 23  2  0  0  0  0
 22 24  1  0  0  0  0
 20 21  1  0  0  0  0
 19 20  1  0  0  0  0
 17 18  1  0  0  0  0
 17 19  2  0  0  0  0
 15 16  1  0  0  0  0
 15 17  1  0  0  0  0
 14 15  1  0  0  0  0
 14 20  2  0  0  0  0
 11 12  1  0  0  0  0
 11 13  1  0  0  0  0
 11 14  1  0  0  0  0
  9 10  1  0  0  0  0
  9 11  1  0  0  0  0
  9 22  1  0  0  0  0
  7  8  1  0  0  0  0
  7  9  1  0  0  0  0
 26 27  1  0  0  0  0
 26 28  1  0  0  0  0
 26 29  1  0  0  0  0
 24 25  1  0  0  0  0
 24 26  1  0  0  0  0
M  END
$$$$
default_name
  -OEChem-02102213163D

 29 29  0     1  0  0  0  0  0999 V2000
   -3.6042   -3.5728    1.4576 H   0  0  0  0  0  0  0  0  0  0  0  0
   -3.5202   -2.6488    0.8866 C   0  0  0  0  0  0  0  0  0  0  0  0
   -4.2052   -1.9048    1.2896 H   0  0  0  0  0  0  0  0  0  0  0  0
   -3.7552   -2.8428   -0.1584 H   0  0  0  0  0  0  0  0  0  0  0  0
   -2.1052   -2.1358    0.9946 C   0  0  0  0  0  0  0  0  0  0  0  0
   -1.2852   -2.7288    1.6826 O   0  0  0  0  0  0  0  0  0  0  0  0
   -1.8202   -1.0288    0.3146 N   0  0  0  0  0  0  0  0  0  0  0  0
   -2.5542   -0.5788   -0.2104 H   0  0  0  0  0  0  0  0  0  0  0  0
   -0.5102   -0.3728    0.3086 C   0  0  1  0  0  0  0  0  0  0  0  0
    0.2354   -1.0844   -0.0490 H   0  0  0  0  0  0  0  0  0  0  0  0
   -0.5452    0.8158   -0.6698 C   0  0  0  0  0  0  0  0  0  0  0  0
   -0.0546    1.6740   -0.2072 H   0  0  0  0  0  0  0  0  0  0  0  0
    0.0155    0.5532   -1.5688 H   0  0  0  0  0  0  0  0  0  0  0  0
   -1.9379    1.2219   -1.0768 C   0  0  0  0  0  0  0  0  0  0  0  0
   -3.1135    0.6366   -0.6578 N   0  0  0  0  0  0  0  0  0  0  0  0
   -3.1954   -0.1892   -0.0839 H   0  0  0  0  0  0  0  0  0  0  0  0
   -4.1350    1.3558   -1.1525 C   0  0  0  0  0  0  0  0  0  0  0  0
   -5.1852    1.1389   -0.9996 H   0  0  0  0  0  0  0  0  0  0  0  0
   -3.6709    2.3921   -1.8660 N   0  0  0  0  0  0  0  0  0  0  0  0
   -2.2762    2.3153   -1.8287 C   0  0  0  0  0  0  0  0  0  0  0  0
   -1.5854    3.0147   -2.2815 H   0  0  0  0  0  0  0  0  0  0  0  0
   -0.1073    0.0565    1.7296 C   0  0  0  0  0  0  0  0  0  0  0  0
    1.0285   -0.1699    2.1459 O   0  0  0  0  0  0  0  0  0  0  0  0
   -1.0395    0.6588    2.4785 N   0  0  0  0  0  0  0  0  0  0  0  0
   -1.9636    0.7597    2.0849 H   0  0  0  0  0  0  0  0  0  0  0  0
   -0.8222    1.1334    3.8425 C   0  0  0  0  0  0  0  0  0  0  0  0
   -0.0212    1.8761    3.8521 H   0  0  0  0  0  0  0  0  0  0  0  0
   -1.7349    1.5853    4.2320 H   0  0  0  0  0  0  0  0  0  0  0  0
   -0.5312    0.2997    4.4834 H   0  0  0  0  0  0  0  0  0  0  0  0
  5  6  2  0  0  0  0
  5  7  1  0  0  0  0
  2  3  1  0  0  0  0
  2  4  1  0  0  0  0
  2  5  1  0  0  0  0
  1  2  1  0  0  0  0
 22 23  2  0  0  0  0
 22 24  1  0  0  0  0
 20 21  1  0  0  0  0
 19 20  1  0  0  0  0
 17 18  1  0  0  0  0
 17 19  2  0  0  0  0
 15 16  1  0  0  0  0
 15 17  1  0  0  0  0
 14 15  1  0  0  0  0
 14 20  2  0  0  0  0
 11 12  1  0  0  0  0
 11 13  1  0  0  0  0
 11 14  1  0  0  0  0
  9 10  1  0  0  0  0
  9 11  1  0  0  0  0
  9 22  1  0  0  0  0
  7  8  1  0  0  0  0
  7  9  1  0  0  0  0
 26 27  1  0  0  0  0
 26 28  1  0  0  0  0
 26 29  1  0  0  0  0
 24 25  1  0  0  0  0
 24 26  1  0  0  0  0
M  END
$$$$
default_name
  -OEChem-02102213163D

 29 29  0     1  0  0  0  0  0999 V2000
   -3.6042   -3.5728    1.4576 H   0  0  0  0  0  0  0  0  0  0  0  0
   -3.5202   -2.6488    0.8866 C   0  0  0  0  0  0  0  0  0  0  0  0
   -4.2052   -1.9048    1.2896 H   0  0  0  0  0  0  0  0  0  0  0  0
   -3.7552   -2.8428   -0.1584 H   0  0  0  0  0  0  0  0  0  0  0  0
   -2.1052   -2.1358    0.9946 C   0  0  0  0  0  0  0  0  0  0  0  0
   -1.2852   -2.7288    1.6826 O   0  0  0  0  0  0  0  0  0  0  0  0
   -1.8202   -1.0288    0.3146 N   0  0  0  0  0  0  0  0  0  0  0  0
   -2.5542   -0.5788   -0.2104 H   0  0  0  0  0  0  0  0  0  0  0  0
   -0.5102   -0.3728    0.3086 C   0  0  1  0  0  0  0  0  0  0  0  0
    0.2354   -1.0844   -0.0490 H   0  0  0  0  0  0  0  0  0  0  0  0
   -0.5452    0.8158   -0.6698 C   0  0  0  0  0  0  0  0  0  0  0  0
   -0.0546    1.6740   -0.2072 H   0  0  0  0  0  0  0  0  0  0  0  0
    0.0155    0.5532   -1.5688 H   0  0  0  0  0  0  0  0  0  0  0  0
   -1.9379    1.2219   -1.0768 C   0  0  0  0  0  0  0  0  0  0  0  0
   -3.1109    0.8465   -0.4576 N   0  0  0  0  0  0  0  0  0  0  0  0
   -3.1982    0.1891    0.3029 H   0  0  0  0  0  0  0  0  0  0  0  0
   -4.1219    1.5058   -1.0479 C   0  0  0  0  0  0  0  0  0  0  0  0
   -5.1682    1.4143   -0.7831 H   0  0  0  0  0  0  0  0  0  0  0  0
   -3.6522    2.3041   -2.0178 N   0  0  0  0  0  0  0  0  0  0  0  0
   -2.2662    2.1292   -2.0485 C   0  0  0  0  0  0  0  0  0  0  0  0
   -1.5713    2.6452   -2.6984 H   0  0  0  0  0  0  0  0  0  0  0  0
   -0.1073    0.0565    1.7296 C   0  0  0  0  0  0  0  0  0  0  0  0
    1.0285   -0.1699    2.1459 O   0  0  0  0  0  0  0  0  0  0  0  0
   -1.0395    0.6588    2.4785 N   0  0  0  0  0  0  0  0  0  0  0  0
   -1.9636    0.7597    2.0849 H   0  0  0  0  0  0  0  0  0  0  0  0
   -0.8222    1.1334    3.8425 C   0  0  0  0  0  0  0  0  0  0  0  0
   -0.0212    1.8761    3.8521 H   0  0  0  0  0  0  0  0  0  0  0  0
   -1.7349    1.5853    4.2320 H   0  0  0  0  0  0  0  0  0  0  0  0
   -0.5312    0.2997    4.4834 H   0  0  0  0  0  0  0  0  0  0  0  0
  5  6  2  0  0  0  0
  5  7  1  0  0  0  0
  2  3  1  0  0  0  0
  2  4  1  0  0  0  0
  2  5  1  0  0  0  0
  1  2  1  0  0  0  0
 22 23  2  0  0  0  0
 22 24  1  0  0  0  0
 20 21  1  0  0  0  0
 19 20  1  0  0  0  0
 17 18  1  0  0  0  0
 17 19  2  0  0  0  0
 15 16  1  0  0  0  0
 15 17  1  0  0  0  0
 14 15  1  0  0  0  0
 14 20  2  0  0  0  0
 11 12  1  0  0  0  0
 11 13  1  0  0  0  0
 11 14  1  0  0  0  0
  9 10  1  0  0  0  0
  9 11  1  0  0  0  0
  9 22  1  0  0  0  0
  7  8  1  0  0  0  0
  7  9  1  0  0  0  0
 26 27  1  0  0  0  0
 26 28  1  0  0  0  0
 26 29  1  0  0  0  0
 24 25  1  0  0  0  0
 24 26  1  0  0  0  0
M  END
$$$$
default_name
  -OEChem-02102213163D

 29 29  0     1  0  0  0  0  0999 V2000
   -3.6042   -3.5728    1.4576 H   0  0  0  0  0  0  0  0  0  0  0  0
   -3.5202   -2.6488    0.8866 C   0  0  0  0  0  0  0  0  0  0  0  0
   -4.2052   -1.9048    1.2896 H   0  0  0  0  0  0  0  0  0  0  0  0
   -3.7552   -2.8428   -0.1584 H   0  0  0  0  0  0  0  0  0  0  0  0
   -2.1052   -2.1358    0.9946 C   0  0  0  0  0  0  0  0  0  0  0  0
   -1.2852   -2.7288    1.6826 O   0  0  0  0  0  0  0  0  0  0  0  0
   -1.8202   -1.0288    0.3146 N   0  0  0  0  0  0  0  0  0  0  0  0
   -2.5542   -0.5788   -0.2104 H   0  0  0  0  0  0  0  0  0  0  0  0
   -0.5102   -0.3728    0.3086 C   0  0  1  0  0  0  0  0  0  0  0  0
    0.2354   -1.0844   -0.0490 H   0  0  0  0  0  0  0  0  0  0  0  0
   -0.5452    0.8158   -0.6698 C   0  0  0  0  0  0  0  0  0  0  0  0
   -0.0546    1.6740   -0.2072 H   0  0  0  0  0  0  0  0  0  0  0  0
    0.0155    0.5532   -1.5688 H   0  0  0  0  0  0  0  0  0  0  0  0
   -1.9379    1.2219   -1.0768 C   0  0  0  0  0  0  0  0  0  0  0  0
   -3.0796    1.0969   -0.3146 N   0  0  0  0  0  0  0  0  0  0  0  0
   -3.1474    0.6471    0.5861 H   0  0  0  0  0  0  0  0  0  0  0  0
   -4.0913    1.6749   -0.9837 C   0  0  0  0  0  0  0  0  0  0  0  0
   -5.1173    1.7310   -0.6411 H   0  0  0  0  0  0  0  0  0  0  0  0
   -3.6509    2.1815   -2.1446 N   0  0  0  0  0  0  0  0  0  0  0  0
   -2.2849    1.8962   -2.2170 C   0  0  0  0  0  0  0  0  0  0  0  0
   -1.6126    2.1875   -3.0136 H   0  0  0  0  0  0  0  0  0  0  0  0
   -0.1073    0.0565    1.7296 C   0  0  0  0  0  0  0  0  0  0  0  0
    1.0285   -0.1699    2.1459 O   0  0  0  0  0  0  0  0  0  0  0  0
   -1.0395    0.6588    2.4785 N   0  0  0  0  0  0  0  0  0  0  0  0
   -1.9636    0.7597    2.0849 H   0  0  0  0  0  0  0  0  0  0  0  0
   -0.8222    1.1334    3.8425 C   0  0  0  0  0  0  0  0  0  0  0  0
   -0.0212    1.8761    3.8521 H   0  0  0  0  0  0  0  0  0  0  0  0
   -1.7349    1.5853    4.2320 H   0  0  0  0  0  0  0  0  0  0  0  0
   -0.5312    0.2997    4.4834 H   0  0  0  0  0  0  0  0  0  0  0  0
  5  6  2  0  0  0  0
  5  7  1  0  0  0  0
  2  3  1  0  0  0  0
  2  4  1  0  0  0  0
  2  5  1  0  0  0  0
  1  2  1  0  0  0  0
 22 23  2  0  0  0  0
 22 24  1  0  0  0  0
 20 21  1  0  0  0  0
 19 20  1  0  0  0  0
 17 18  1  0  0  0  0
 17 19  2  0  0  0  0
 15 16  1  0  0  0  0
 15 17  1  0  0  0  0
 14 15  1  0  0  0  0
 14 20  2  0  0  0  0
 11 12  1  0  0  0  0
 11 13  1  0  0  0  0
 11 14  1  0  0  0  0
  9 10  1  0  0  0  0
  9 11  1  0  0  0  0
  9 22  1  0  0  0  0
  7  8  1  0  0  0  0
  7  9  1  0  0  0  0
 26 27  1  0  0  0  0
 26 28  1  0  0  0  0
 26 29  1  0  0  0  0
 24 25  1  0  0  0  0
 24 26  1  0  0  0  0
M  END
$$$$
default_name
  -OEChem-02102213163D

 29 29  0     1  0  0  0  0  0999 V2000
   -3.6042   -3.5728    1.4576 H   0  0  0  0  0  0  0  0  0  0  0  0
   -3.5202   -2.6488    0.8866 C   0  0  0  0  0  0  0  0  0  0  0  0
   -4.2052   -1.9048    1.2896 H   0  0  0  0  0  0  0  0  0  0  0  0
   -3.7552   -2.8428   -0.1584 H   0  0  0  0  0  0  0  0  0  0  0  0
   -2.1052   -2.1358    0.9946 C   0  0  0  0  0  0  0  0  0  0  0  0
   -1.2852   -2.7288    1.6826 O   0  0  0  0  0  0  0  0  0  0  0  0
   -1.8202   -1.0288    0.3146 N   0  0  0  0  0  0  0  0  0  0  0  0
   -2.5542   -0.5788   -0.2104 H   0  0  0  0  0  0  0  0  0  0  0  0
   -0.5102   -0.3728    0.3086 C   0  0  1  0  0  0  0  0  0  0  0  0
    0.2354   -1.0844   -0.0490 H   0  0  0  0  0  0  0  0  0  0  0  0
   -0.5452    0.8158   -0.6698 C   0  0  0  0  0  0  0  0  0  0  0  0
   -0.0546    1.6740   -0.2072 H   0  0  0  0  0  0  0  0  0  0  0  0
    0.0155    0.5532   -1.5688 H   0  0  0  0  0  0  0  0  0  0  0  0
   -1.9379    1.2219   -1.0768 C   0  0  0  0  0  0  0  0  0  0  0  0
   -3.0220    1.3708   -0.2385 N   0  0  0  0  0  0  0  0  0  0  0  0
   -3.0465    1.1538    0.7466 H   0  0  0  0  0  0  0  0  0  0  0  0
   -4.0455    1.8514   -0.9643 C   0  0  0  0  0  0  0  0  0  0  0  0
   -5.0362    2.0673   -0.5832 H   0  0  0  0  0  0  0  0  0  0  0  0
   -3.6670    2.0326   -2.2380 N   0  0  0  0  0  0  0  0  0  0  0  0
   -2.3310    1.6321   -2.3228 C   0  0  0  0  0  0  0  0  0  0  0  0
   -1.7065    1.6730   -3.2058 H   0  0  0  0  0  0  0  0  0  0  0  0
   -0.1073    0.0565    1.7296 C   0  0  0  0  0  0  0  0  0  0  0  0
    1.0285   -0.1699    2.1459 O   0  0  0  0  0  0  0  0  0  0  0  0
   -1.0395    0.6588    2.4785 N   0  0  0  0  0  0  0  0  0  0  0  0
   -1.9636    0.7597    2.0849 H   0  0  0  0  0  0  0  0  0  0  0  0
   -0.8222    1.1334    3.8425 C   0  0  0  0  0  0  0  0  0  0  0  0
   -0.0212    1.8761    3.8521 H   0  0  0  0  0  0  0  0  0  0  0  0
   -1.7349    1.5853    4.2320 H   0  0  0  0  0  0  0  0  0  0  0  0
   -0.5312    0.2997    4.4834 H   0  0  0  0  0  0  0  0  0  0  0  0
  5  6  2  0  0  0  0
  5  7  1  0  0  0  0
  2  3  1  0  0  0  0
  2  4  1  0  0  0  0
  2  5  1  0  0  0  0
  1  2  1  0  0  0  0
 22 23  2  0  0  0  0
 22 24  1  0  0  0  0
 20 21  1  0  0  0  0
 19 20  1  0  0  0  0
 17 18  1  0  0  0  0
 17 19  2  0  0  0  0
 15 16  1  0  0  0  0
 15 17  1  0  0  0  0
 14 15  1  0  0  0  0
 14 20  2  0  0  0  0
 11 12  1  0  0  0  0
 11 13  1  0  0  0  0
 11 14  1  0  0  0  0
  9 10  1  0  0  0  0
  9 11  1  0  0  0  0
  9 22  1  0  0  0  0
  7  8  1  0  0  0  0
  7  9  1  0  0  0  0
 26 27  1  0  0  0  0
 26 28  1  0  0  0  0
 26 29  1  0  0  0  0
 24 25  1  0  0  0  0
 24 26  1  0  0  0  0
M  END
$$$$
default_name
  -OEChem-02102213163D

 29 29  0     1  0  0  0  0  0999 V2000
   -3.6042   -3.5728    1.4576 H   0  0  0  0  0  0  0  0  0  0  0  0
   -3.5202   -2.6488    0.8866 C   0  0  0  0  0  0  0  0  0  0  0  0
   -4.2052   -1.9048    1.2896 H   0  0  0  0  0  0  0  0  0  0  0  0
   -3.7552   -2.8428   -0.1584 H   0  0  0  0  0  0  0  0  0  0  0  0
   -2.1052   -2.1358    0.9946 C   0  0  0  0  0  0  0  0  0  0  0  0
   -1.2852   -2.7288    1.6826 O   0  0  0  0  0  0  0  0  0  0  0  0
   -1.8202   -1.0288    0.3146 N   0  0  0  0  0  0  0  0  0  0  0  0
   -2.5542   -0.5788   -0.2104 H   0  0  0  0  0  0  0  0  0  0  0  0
   -0.5102   -0.3728    0.3086 C   0  0  1  0  0  0  0  0  0  0  0  0
    0.2354   -1.0844   -0.0490 H   0  0  0  0  0  0  0  0  0  0  0  0
   -0.5452    0.8158   -0.6698 C   0  0  0  0  0  0  0  0  0  0  0  0
   -0.0546    1.6740   -0.2072 H   0  0  0  0  0  0  0  0  0  0  0  0
    0.0155    0.5532   -1.5688 H   0  0  0  0  0  0  0  0  0  0  0  0
   -1.9379    1.2219   -1.0768 C   0  0  0  0  0  0  0  0  0  0  0  0
   -2.9419    1.6495   -0.2346 N   0  0  0  0  0  0  0  0  0  0  0  0
   -2.9025    1.6746    0.7734 H   0  0  0  0  0  0  0  0  0  0  0  0
   -3.9876    2.0234   -0.9909 C   0  0  0  0  0  0  0  0  0  0  0  0
   -4.9303    2.4003   -0.6134 H   0  0  0  0  0  0  0  0  0  0  0  0
   -3.6995    1.8676   -2.2913 N   0  0  0  0  0  0  0  0  0  0  0  0
   -2.4014    1.3550   -2.3585 C   0  0  0  0  0  0  0  0  0  0  0  0
   -1.8465    1.1365   -3.2617 H   0  0  0  0  0  0  0  0  0  0  0  0
   -0.1073    0.0565    1.7296 C   0  0  0  0  0  0  0  0  0  0  0  0
    1.0285   -0.1699    2.1459 O   0  0  0  0  0  0  0  0  0  0  0  0
   -1.0395    0.6588    2.4785 N   0  0  0  0  0  0  0  0  0  0  0  0
   -1.9636    0.7597    2.0849 H   0  0  0  0  0  0  0  0  0  0  0  0
   -0.8222    1.1334    3.8425 C   0  0  0  0  0  0  0  0  0  0  0  0
   -0.0212    1.8761    3.8521 H   0  0  0  0  0  0  0  0  0  0  0  0
   -1.7349    1.5853    4.2320 H   0  0  0  0  0  0  0  0  0  0  0  0
   -0.5312    0.2997    4.4834 H   0  0  0  0  0  0  0  0  0  0  0  0
  5  6  2  0  0  0  0
  5  7  1  0  0  0  0
  2  3  1  0  0  0  0
  2  4  1  0  0  0  0
  2  5  1  0  0  0  0
  1  2  1  0  0  0  0
 22 23  2  0  0  0  0
 22 24  1  0  0  0  0
 20 21  1  0  0  0  0
 19 20  1  0  0  0  0
 17 18  1  0  0  0  0
 17 19  2  0  0  0  0
 15 16  1  0  0  0  0
 15 17  1  0  0  0  0
 14 15  1  0  0  0  0
 14 20  2  0  0  0  0
 11 12  1  0  0  0  0
 11 13  1  0  0  0  0
 11 14  1  0  0  0  0
  9 10  1  0  0  0  0
  9 11  1  0  0  0  0
  9 22  1  0  0  0  0
  7  8  1  0  0  0  0
  7  9  1  0  0  0  0
 26 27  1  0  0  0  0
 26 28  1  0  0  0  0
 26 29  1  0  0  0  0
 24 25  1  0  0  0  0
 24 26  1  0  0  0  0
M  END
$$$$
default_name
  -OEChem-02102213163D

 29 29  0     1  0  0  0  0  0999 V2000
   -3.6042   -3.5728    1.4576 H   0  0  0  0  0  0  0  0  0  0  0  0
   -3.5202   -2.6488    0.8866 C   0  0  0  0  0  0  0  0  0  0  0  0
   -4.2052   -1.9048    1.2896 H   0  0  0  0  0  0  0  0  0  0  0  0
   -3.7552   -2.8428   -0.1584 H   0  0  0  0  0  0  0  0  0  0  0  0
   -2.1052   -2.1358    0.9946 C   0  0  0  0  0  0  0  0  0  0  0  0
   -1.2852   -2.7288    1.6826 O   0  0  0  0  0  0  0  0  0  0  0  0
   -1.8202   -1.0288    0.3146 N   0  0  0  0  0  0  0  0  0  0  0  0
   -2.5542   -0.5788   -0.2104 H   0  0  0  0  0  0  0  0  0  0  0  0
   -0.5102   -0.3728    0.3086 C   0  0  1  0  0  0  0  0  0  0  0  0
    0.2354   -1.0844   -0.0490 H   0  0  0  0  0  0  0  0  0  0  0  0
   -0.5452    0.8158   -0.6698 C   0  0  0  0  0  0  0  0  0  0  0  0
   -0.0546    1.6740   -0.2072 H   0  0  0  0  0  0  0  0  0  0  0  0
    0.0155    0.5532   -1.5688 H   0  0  0  0  0  0  0  0  0  0  0  0
   -1.9379    1.2219   -1.0768 C   0  0  0  0  0  0  0  0  0  0  0  0
   -2.8447    1.9141   -0.3031 N   0  0  0  0  0  0  0  0  0  0  0  0
   -2.7251    2.1739    0.6646 H   0  0  0  0  0  0  0  0  0  0  0  0
   -3.9215    2.1791   -1.0619 C   0  0  0  0  0  0  0  0  0  0  0  0
   -4.8068    2.7074   -0.7296 H   0  0  0  0  0  0  0  0  0  0  0  0
   -3.7462    1.6977   -2.3012 N   0  0  0  0  0  0  0  0  0  0  0  0
   -2.4912    1.0836   -2.3218 C   0  0  0  0  0  0  0  0  0  0  0  0
   -2.0232    0.6147   -3.1777 H   0  0  0  0  0  0  0  0  0  0  0  0
   -0.1073    0.0565    1.7296 C   0  0  0  0  0  0  0  0  0  0  0  0
    1.0285   -0.1699    2.1459 O   0  0  0  0  0  0  0  0  0  0  0  0
   -1.0395    0.6588    2.4785 N   0  0  0  0  0  0  0  0  0  0  0  0
   -1.9636    0.7597    2.0849 H   0  0  0  0  0  0  0  0  0  0  0  0
   -0.8222    1.1334    3.8425 C   0  0  0  0  0  0  0  0  0  0  0  0
   -0.0212    1.8761    3.8521 H   0  0  0  0  0  0  0  0  0  0  0  0
   -1.7349    1.5853    4.2320 H   0  0  0  0  0  0  0  0  0  0  0  0
   -0.5312    0.2997    4.4834 H   0  0  0  0  0  0  0  0  0  0  0  0
  5  6  2  0  0  0  0
  5  7  1  0  0  0  0
  2  3  1  0  0  0  0
  2  4  1  0  0  0  0
  2  5  1  0  0  0  0
  1  2  1  0  0  0  0
 22 23  2  0  0  0  0
 22 24  1  0  0  0  0
 20 21  1  0  0  0  0
 19 20  1  0  0  0  0
 17 18  1  0  0  0  0
 17 19  2  0  0  0  0
 15 16  1  0  0  0  0
 15 17  1  0  0  0  0
 14 15  1  0  0  0  0
 14 20  2  0  0  0  0
 11 12  1  0  0  0  0
 11 13  1  0  0  0  0
 11 14  1  0  0  0  0
  9 10  1  0  0  0  0
  9 11  1  0  0  0  0
  9 22  1  0  0  0  0
  7  8  1  0  0  0  0
  7  9  1  0  0  0  0
 26 27  1  0  0  0  0
 26 28  1  0  0  0  0
 26 29  1  0  0  0  0
 24 25  1  0  0  0  0
 24 26  1  0  0  0  0
M  END
$$$$
default_name
  -OEChem-02102213163D

 29 29  0     1  0  0  0  0  0999 V2000
   -3.6042   -3.5728    1.4576 H   0  0  0  0  0  0  0  0  0  0  0  0
   -3.5202   -2.6488    0.8866 C   0  0  0  0  0  0  0  0  0  0  0  0
   -4.2052   -1.9048    1.2896 H   0  0  0  0  0  0  0  0  0  0  0  0
   -3.7552   -2.8428   -0.1584 H   0  0  0  0  0  0  0  0  0  0  0  0
   -2.1052   -2.1358    0.9946 C   0  0  0  0  0  0  0  0  0  0  0  0
   -1.2852   -2.7288    1.6826 O   0  0  0  0  0  0  0  0  0  0  0  0
   -1.8202   -1.0288    0.3146 N   0  0  0  0  0  0  0  0  0  0  0  0
   -2.5542   -0.5788   -0.2104 H   0  0  0  0  0  0  0  0  0  0  0  0
   -0.5102   -0.3728    0.3086 C   0  0  1  0  0  0  0  0  0  0  0  0
    0.2354   -1.0844   -0.0490 H   0  0  0  0  0  0  0  0  0  0  0  0
   -0.5452    0.8158   -0.6698 C   0  0  0  0  0  0  0  0  0  0  0  0
   -0.0546    1.6740   -0.2072 H   0  0  0  0  0  0  0  0  0  0  0  0
    0.0155    0.5532   -1.5688 H   0  0  0  0  0  0  0  0  0  0  0  0
   -1.9379    1.2219   -1.0768 C   0  0  0  0  0  0  0  0  0  0  0  0
   -2.7372    2.1465   -0.4393 N   0  0  0  0  0  0  0  0  0  0  0  0
   -2.5265    2.6178    0.4276 H   0  0  0  0  0  0  0  0  0  0  0  0
   -3.8517    2.3079   -1.1722 C   0  0  0  0  0  0  0  0  0  0  0  0
   -4.6742    2.9675   -0.9239 H   0  0  0  0  0  0  0  0  0  0  0  0
   -3.8038    1.5346   -2.2668 N   0  0  0  0  0  0  0  0  0  0  0  0
   -2.5944    0.8366   -2.2152 C   0  0  0  0  0  0  0  0  0  0  0  0
   -2.2245    0.1432   -2.9593 H   0  0  0  0  0  0  0  0  0  0  0  0
   -0.1073    0.0565    1.7296 C   0  0  0  0  0  0  0  0  0  0  0  0
    1.0285   -0.1699    2.1459 O   0  0  0  0  0  0  0  0  0  0  0  0
   -1.0395    0.6588    2.4785 N   0  0  0  0  0  0  0  0  0  0  0  0
   -1.9636    0.7597    2.0849 H   0  0  0  0  0  0  0  0  0  0  0  0
   -0.8222    1.1334    3.8425 C   0  0  0  0  0  0  0  0  0  0  0  0
   -0.0212    1.8761    3.8521 H   0  0  0  0  0  0  0  0  0  0  0  0
   -1.7349    1.5853    4.2320 H   0  0  0  0  0  0  0  0  0  0  0  0
   -0.5312    0.2997    4.4834 H   0  0  0  0  0  0  0  0  0  0  0  0
  5  6  2  0  0  0  0
  5  7  1  0  0  0  0
  2  3  1  0  0  0  0
  2  4  1  0  0  0  0
  2  5  1  0  0  0  0
  1  2  1  0  0  0  0
 22 23  2  0  0  0  0
 22 24  1  0  0  0  0
 20 21  1  0  0  0  0
 19 20  1  0  0  0  0
 17 18  1  0  0  0  0
 17 19  2  0  0  0  0
 15 16  1  0  0  0  0
 15 17  1  0  0  0  0
 14 15  1  0  0  0  0
 14 20  2  0  0  0  0
 11 12  1  0  0  0  0
 11 13  1  0  0  0  0
 11 14  1  0  0  0  0
  9 10  1  0  0  0  0
  9 11  1  0  0  0  0
  9 22  1  0  0  0  0
  7  8  1  0  0  0  0
  7  9  1  0  0  0  0
 26 27  1  0  0  0  0
 26 28  1  0  0  0  0
 26 29  1  0  0  0  0
 24 25  1  0  0  0  0
 24 26  1  0  0  0  0
M  END
$$$$
default_name
  -OEChem-02102213163D

 29 29  0     1  0  0  0  0  0999 V2000
   -3.6042   -3.5728    1.4576 H   0  0  0  0  0  0  0  0  0  0  0  0
   -3.5202   -2.6488    0.8866 C   0  0  0  0  0  0  0  0  0  0  0  0
   -4.2052   -1.9048    1.2896 H   0  0  0  0  0  0  0  0  0  0  0  0
   -3.7552   -2.8428   -0.1584 H   0  0  0  0  0  0  0  0  0  0  0  0
   -2.1052   -2.1358    0.9946 C   0  0  0  0  0  0  0  0  0  0  0  0
   -1.2852   -2.7288    1.6826 O   0  0  0  0  0  0  0  0  0  0  0  0
   -1.8202   -1.0288    0.3146 N   0  0  0  0  0  0  0  0  0  0  0  0
   -2.5542   -0.5788   -0.2104 H   0  0  0  0  0  0  0  0  0  0  0  0
   -0.5102   -0.3728    0.3086 C   0  0  1  0  0  0  0  0  0  0  0  0
    0.2354   -1.0844   -0.0490 H   0  0  0  0  0  0  0  0  0  0  0  0
   -0.5452    0.8158   -0.6698 C   0  0  0  0  0  0  0  0  0  0  0  0
   -0.0546    1.6740   -0.2072 H   0  0  0  0  0  0  0  0  0  0  0  0
    0.0155    0.5532   -1.5688 H   0  0  0  0  0  0  0  0  0  0  0  0
   -1.9379    1.2219   -1.0768 C   0  0  0  0  0  0  0  0  0  0  0  0
   -2.6265    2.3309   -0.6340 N   0  0  0  0  0  0  0  0  0  0  0  0
   -2.3201    2.9760    0.0787 H   0  0  0  0  0  0  0  0  0  0  0  0
   -3.7830    2.4010   -1.3145 C   0  0  0  0  0  0  0  0  0  0  0  0
   -4.5414    3.1631   -1.1831 H   0  0  0  0  0  0  0  0  0  0  0  0
   -3.8685    1.3892   -2.1905 N   0  0  0  0  0  0  0  0  0  0  0  0
   -2.7039    0.6307   -2.0459 C   0  0  0  0  0  0  0  0  0  0  0  0
   -2.4367   -0.2460   -2.6216 H   0  0  0  0  0  0  0  0  0  0  0  0
   -0.1073    0.0565    1.7296 C   0  0  0  0  0  0  0  0  0  0  0  0
    1.0285   -0.1699    2.1459 O   0  0  0  0  0  0  0  0  0  0  0  0
   -1.0395    0.6588    2.4785 N   0  0  0  0  0  0  0  0  0  0  0  0
   -1.9636    0.7597    2.0849 H   0  0  0  0  0  0  0  0  0  0  0  0
   -0.8222    1.1334    3.8425 C   0  0  0  0  0  0  0  0  0  0  0  0
   -0.0212    1.8761    3.8521 H   0  0  0  0  0  0  0  0  0  0  0  0
   -1.7349    1.5853    4.2320 H   0  0  0  0  0  0  0  0  0  0  0  0
   -0.5312    0.2997    4.4834 H   0  0  0  0  0  0  0  0  0  0  0  0
  5  6  2  0  0  0  0
  5  7  1  0  0  0  0
  2  3  1  0  0  0  0
  2  4  1  0  0  0  0
  2  5  1  0  0  0  0
  1  2  1  0  0  0  0
 22 23  2  0  0  0  0
 22 24  1  0  0  0  0
 20 21  1  0  0  0  0
 19 20  1  0  0  0  0
 17 18  1  0  0  0  0
 17 19  2  0  0  0  0
 15 16  1  0  0  0  0
 15 17  1  0  0  0  0
 14 15  1  0  0  0  0
 14 20  2  0  0  0  0
 11 12  1  0  0  0  0
 11 13  1  0  0  0  0
 11 14  1  0  0  0  0
  9 10  1  0  0  0  0
  9 11  1  0  0  0  0
  9 22  1  0  0  0  0
  7  8  1  0  0  0  0
  7  9  1  0  0  0  0
 26 27  1  0  0  0  0
 26 28  1  0  0  0  0
 26 29  1  0  0  0  0
 24 25  1  0  0  0  0
 24 26  1  0  0  0  0
M  END
$$$$
default_name
  -OEChem-02102213163D

 29 29  0     1  0  0  0  0  0999 V2000
   -3.6042   -3.5728    1.4576 H   0  0  0  0  0  0  0  0  0  0  0  0
   -3.5202   -2.6488    0.8866 C   0  0  0  0  0  0  0  0  0  0  0  0
   -4.2052   -1.9048    1.2896 H   0  0  0  0  0  0  0  0  0  0  0  0
   -3.7552   -2.8428   -0.1584 H   0  0  0  0  0  0  0  0  0  0  0  0
   -2.1052   -2.1358    0.9946 C   0  0  0  0  0  0  0  0  0  0  0  0
   -1.2852   -2.7288    1.6826 O   0  0  0  0  0  0  0  0  0  0  0  0
   -1.8202   -1.0288    0.3146 N   0  0  0  0  0  0  0  0  0  0  0  0
   -2.5542   -0.5788   -0.2104 H   0  0  0  0  0  0  0  0  0  0  0  0
   -0.5102   -0.3728    0.3086 C   0  0  1  0  0  0  0  0  0  0  0  0
    0.2354   -1.0844   -0.0490 H   0  0  0  0  0  0  0  0  0  0  0  0
   -0.5452    0.8158   -0.6698 C   0  0  0  0  0  0  0  0  0  0  0  0
   -0.0546    1.6740   -0.2072 H   0  0  0  0  0  0  0  0  0  0  0  0
    0.0155    0.5532   -1.5688 H   0  0  0  0  0  0  0  0  0  0  0  0
   -1.9379    1.2219   -1.0768 C   0  0  0  0  0  0  0  0  0  0  0  0
   -2.5203    2.4546   -0.8739 N   0  0  0  0  0  0  0  0  0  0  0  0
   -2.1200    3.2241   -0.3584 H   0  0  0  0  0  0  0  0  0  0  0  0
   -3.7200    2.4521   -1.4790 C   0  0  0  0  0  0  0  0  0  0  0  0
   -4.4176    3.2806   -1.4896 H   0  0  0  0  0  0  0  0  0  0  0  0
   -3.9358    1.2716   -2.0775 N   0  0  0  0  0  0  0  0  0  0  0  0
   -2.8122    0.4800   -1.8255 C   0  0  0  0  0  0  0  0  0  0  0  0
   -2.6452   -0.5262   -2.1874 H   0  0  0  0  0  0  0  0  0  0  0  0
   -0.1073    0.0565    1.7296 C   0  0  0  0  0  0  0  0  0  0  0  0
    1.0285   -0.1699    2.1459 O   0  0  0  0  0  0  0  0  0  0  0  0
   -1.0395    0.6588    2.4785 N   0  0  0  0  0  0  0  0  0  0  0  0
   -1.9636    0.7597    2.0849 H   0  0  0  0  0  0  0  0  0  0  0  0
   -0.8222    1.1334    3.8425 C   0  0  0  0  0  0  0  0  0  0  0  0
   -0.0212    1.8761    3.8521 H   0  0  0  0  0  0  0  0  0  0  0  0
   -1.7349    1.5853    4.2320 H   0  0  0  0  0  0  0  0  0  0  0  0
   -0.5312    0.2997    4.4834 H   0  0  0  0  0  0  0  0  0  0  0  0
  5  6  2  0  0  0  0
  5  7  1  0  0  0  0
  2  3  1  0  0  0  0
  2  4  1  0  0  0  0
  2  5  1  0  0  0  0
  1  2  1  0  0  0  0
 22 23  2  0  0  0  0
 22 24  1  0  0  0  0
 20 21  1  0  0  0  0
 19 20  1  0  0  0  0
 17 18  1  0  0  0  0
 17 19  2  0  0  0  0
 15 16  1  0  0  0  0
 15 17  1  0  0  0  0
 14 15  1  0  0  0  0
 14 20  2  0  0  0  0
 11 12  1  0  0  0  0
 11 13  1  0  0  0  0
 11 14  1  0  0  0  0
  9 10  1  0  0  0  0
  9 11  1  0  0  0  0
  9 22  1  0  0  0  0
  7  8  1  0  0  0  0
  7  9  1  0  0  0  0
 26 27  1  0  0  0  0
 26 28  1  0  0  0  0
 26 29  1  0  0  0  0
 24 25  1  0  0  0  0
 24 26  1  0  0  0  0
M  END
$$$$
default_name
  -OEChem-02102213163D

 29 29  0     1  0  0  0  0  0999 V2000
   -3.6042   -3.5728    1.4576 H   0  0  0  0  0  0  0  0  0  0  0  0
   -3.5202   -2.6488    0.8866 C   0  0  0  0  0  0  0  0  0  0  0  0
   -4.2052   -1.9048    1.2896 H   0  0  0  0  0  0  0  0  0  0  0  0
   -3.7552   -2.8428   -0.1584 H   0  0  0  0  0  0  0  0  0  0  0  0
   -2.1052   -2.1358    0.9946 C   0  0  0  0  0  0  0  0  0  0  0  0
   -1.2852   -2.7288    1.6826 O   0  0  0  0  0  0  0  0  0  0  0  0
   -1.8202   -1.0288    0.3146 N   0  0  0  0  0  0  0  0  0  0  0  0
   -2.5542   -0.5788   -0.2104 H   0  0  0  0  0  0  0  0  0  0  0  0
   -0.5102   -0.3728    0.3086 C   0  0  1  0  0  0  0  0  0  0  0  0
    0.2354   -1.0844   -0.0490 H   0  0  0  0  0  0  0  0  0  0  0  0
   -0.5452    0.8158   -0.6698 C   0  0  0  0  0  0  0  0  0  0  0  0
   -0.0546    1.6740   -0.2072 H   0  0  0  0  0  0  0  0  0  0  0  0
    0.0155    0.5532   -1.5688 H   0  0  0  0  0  0  0  0  0  0  0  0
   -1.9379    1.2219   -1.0768 C   0  0  0  0  0  0  0  0  0  0  0  0
   -2.4259    2.5094   -1.1426 N   0  0  0  0  0  0  0  0  0  0  0  0
   -1.9400    3.3452   -0.8539 H   0  0  0  0  0  0  0  0  0  0  0  0
   -3.6671    2.4577   -1.6545 C   0  0  0  0  0  0  0  0  0  0  0  0
   -4.3112    3.3122   -1.8223 H   0  0  0  0  0  0  0  0  0  0  0  0
   -4.0011    1.1897   -1.9356 N   0  0  0  0  0  0  0  0  0  0  0  0
   -2.9121    0.3947   -1.5689 C   0  0  0  0  0  0  0  0  0  0  0  0
   -2.8360   -0.6785   -1.6865 H   0  0  0  0  0  0  0  0  0  0  0  0
   -0.1073    0.0565    1.7296 C   0  0  0  0  0  0  0  0  0  0  0  0
    1.0285   -0.1699    2.1459 O   0  0  0  0  0  0  0  0  0  0  0  0
   -1.0395    0.6588    2.4785 N   0  0  0  0  0  0  0  0  0  0  0  0
   -1.9636    0.7597    2.0849 H   0  0  0  0  0  0  0  0  0  0  0  0
   -0.8222    1.1334    3.8425 C   0  0  0  0  0  0  0  0  0  0  0  0
   -0.0212    1.8761    3.8521 H   0  0  0  0  0  0  0  0  0  0  0  0
   -1.7349    1.5853    4.2320 H   0  0  0  0  0  0  0  0  0  0  0  0
   -0.5312    0.2997    4.4834 H   0  0  0  0  0  0  0  0  0  0  0  0
  5  6  2  0  0  0  0
  5  7  1  0  0  0  0
  2  3  1  0  0  0  0
  2  4  1  0  0  0  0
  2  5  1  0  0  0  0
  1  2  1  0  0  0  0
 22 23  2  0  0  0  0
 22 24  1  0  0  0  0
 20 21  1  0  0  0  0
 19 20  1  0  0  0  0
 17 18  1  0  0  0  0
 17 19  2  0  0  0  0
 15 16  1  0  0  0  0
 15 17  1  0  0  0  0
 14 15  1  0  0  0  0
 14 20  2  0  0  0  0
 11 12  1  0  0  0  0
 11 13  1  0  0  0  0
 11 14  1  0  0  0  0
  9 10  1  0  0  0  0
  9 11  1  0  0  0  0
  9 22  1  0  0  0  0
  7  8  1  0  0  0  0
  7  9  1  0  0  0  0
 26 27  1  0  0  0  0
 26 28  1  0  0  0  0
 26 29  1  0  0  0  0
 24 25  1  0  0  0  0
 24 26  1  0  0  0  0
M  END
$$$$
default_name
  -OEChem-02102213163D

 29 29  0     1  0  0  0  0  0999 V2000
   -3.6042   -3.5728    1.4576 H   0  0  0  0  0  0  0  0  0  0  0  0
   -3.5202   -2.6488    0.8866 C   0  0  0  0  0  0  0  0  0  0  0  0
   -4.2052   -1.9048    1.2896 H   0  0  0  0  0  0  0  0  0  0  0  0
   -3.7552   -2.8428   -0.1584 H   0  0  0  0  0  0  0  0  0  0  0  0
   -2.1052   -2.1358    0.9946 C   0  0  0  0  0  0  0  0  0  0  0  0
   -1.2852   -2.7288    1.6826 O   0  0  0  0  0  0  0  0  0  0  0  0
   -1.8202   -1.0288    0.3146 N   0  0  0  0  0  0  0  0  0  0  0  0
   -2.5542   -0.5788   -0.2104 H   0  0  0  0  0  0  0  0  0  0  0  0
   -0.5102   -0.3728    0.3086 C   0  0  1  0  0  0  0  0  0  0  0  0
    0.2354   -1.0844   -0.0490 H   0  0  0  0  0  0  0  0  0  0  0  0
   -0.5452    0.8158   -0.6698 C   0  0  0  0  0  0  0  0  0  0  0  0
   -0.0546    1.6740   -0.2072 H   0  0  0  0  0  0  0  0  0  0  0  0
    0.0155    0.5532   -1.5688 H   0  0  0  0  0  0  0  0  0  0  0  0
   -1.9379    1.2219   -1.0768 C   0  0  0  0  0  0  0  0  0  0  0  0
   -2.3495    2.4913   -1.4219 N   0  0  0  0  0  0  0  0  0  0  0  0
   -1.7921    3.3311   -1.3741 H   0  0  0  0  0  0  0  0  0  0  0  0
   -3.6278    2.4174   -1.8291 C   0  0  0  0  0  0  0  0  0  0  0  0
   -4.2293    3.2557   -2.1587 H   0  0  0  0  0  0  0  0  0  0  0  0
   -4.0601    1.1491   -1.7743 N   0  0  0  0  0  0  0  0  0  0  0  0
   -2.9965    0.3807   -1.2938 C   0  0  0  0  0  0  0  0  0  0  0  0
   -2.9960   -0.6924   -1.1528 H   0  0  0  0  0  0  0  0  0  0  0  0
   -0.1073    0.0565    1.7296 C   0  0  0  0  0  0  0  0  0  0  0  0
    1.0285   -0.1699    2.1459 O   0  0  0  0  0  0  0  0  0  0  0  0
   -1.0395    0.6588    2.4785 N   0  0  0  0  0  0  0  0  0  0  0  0
   -1.9636    0.7597    2.0849 H   0  0  0  0  0  0  0  0  0  0  0  0
   -0.8222    1.1334    3.8425 C   0  0  0  0  0  0  0  0  0  0  0  0
   -0.0212    1.8761    3.8521 H   0  0  0  0  0  0  0  0  0  0  0  0
   -1.7349    1.5853    4.2320 H   0  0  0  0  0  0  0  0  0  0  0  0
   -0.5312    0.2997    4.4834 H   0  0  0  0  0  0  0  0  0  0  0  0
  5  6  2  0  0  0  0
  5  7  1  0  0  0  0
  2  3  1  0  0  0  0
  2  4  1  0  0  0  0
  2  5  1  0  0  0  0
  1  2  1  0  0  0  0
 22 23  2  0  0  0  0
 22 24  1  0  0  0  0
 20 21  1  0  0  0  0
 19 20  1  0  0  0  0
 17 18  1  0  0  0  0
 17 19  2  0  0  0  0
 15 16  1  0  0  0  0
 15 17  1  0  0  0  0
 14 15  1  0  0  0  0
 14 20  2  0  0  0  0
 11 12  1  0  0  0  0
 11 13  1  0  0  0  0
 11 14  1  0  0  0  0
  9 10  1  0  0  0  0
  9 11  1  0  0  0  0
  9 22  1  0  0  0  0
  7  8  1  0  0  0  0
  7  9  1  0  0  0  0
 26 27  1  0  0  0  0
 26 28  1  0  0  0  0
 26 29  1  0  0  0  0
 24 25  1  0  0  0  0
 24 26  1  0  0  0  0
M  END
$$$$
default_name
  -OEChem-02102213163D

 29 29  0     1  0  0  0  0  0999 V2000
   -3.6042   -3.5728    1.4576 H   0  0  0  0  0  0  0  0  0  0  0  0
   -3.5202   -2.6488    0.8866 C   0  0  0  0  0  0  0  0  0  0  0  0
   -4.2052   -1.9048    1.2896 H   0  0  0  0  0  0  0  0  0  0  0  0
   -3.7552   -2.8428   -0.1584 H   0  0  0  0  0  0  0  0  0  0  0  0
   -2.1052   -2.1358    0.9946 C   0  0  0  0  0  0  0  0  0  0  0  0
   -1.2852   -2.7288    1.6826 O   0  0  0  0  0  0  0  0  0  0  0  0
   -1.8202   -1.0288    0.3146 N   0  0  0  0  0  0  0  0  0  0  0  0
   -2.5542   -0.5788   -0.2104 H   0  0  0  0  0  0  0  0  0  0  0  0
   -0.5102   -0.3728    0.3086 C   0  0  1  0  0  0  0  0  0  0  0  0
    0.2354   -1.0844   -0.0490 H   0  0  0  0  0  0  0  0  0  0  0  0
   -0.5452    0.8158   -0.6698 C   0  0  0  0  0  0  0  0  0  0  0  0
   -0.0546    1.6740   -0.2072 H   0  0  0  0  0  0  0  0  0  0  0  0
    0.0155    0.5532   -1.5688 H   0  0  0  0  0  0  0  0  0  0  0  0
   -1.9379    1.2219   -1.0768 C   0  0  0  0  0  0  0  0  0  0  0  0
   -2.2965    2.4018   -1.6926 N   0  0  0  0  0  0  0  0  0  0  0  0
   -1.6865    3.1826   -1.8834 H   0  0  0  0  0  0  0  0  0  0  0  0
   -3.6049    2.3340   -1.9908 C   0  0  0  0  0  0  0  0  0  0  0  0
   -4.1777    3.1149   -2.4758 H   0  0  0  0  0  0  0  0  0  0  0  0
   -4.1086    1.1526   -1.6047 N   0  0  0  0  0  0  0  0  0  0  0  0
   -3.0599    0.4389   -1.0188 C   0  0  0  0  0  0  0  0  0  0  0  0
   -3.1143   -0.5670   -0.6229 H   0  0  0  0  0  0  0  0  0  0  0  0
   -0.1073    0.0565    1.7296 C   0  0  0  0  0  0  0  0  0  0  0  0
    1.0285   -0.1699    2.1459 O   0  0  0  0  0  0  0  0  0  0  0  0
   -1.0395    0.6588    2.4785 N   0  0  0  0  0  0  0  0  0  0  0  0
   -1.9636    0.7597    2.0849 H   0  0  0  0  0  0  0  0  0  0  0  0
   -0.8222    1.1334    3.8425 C   0  0  0  0  0  0  0  0  0  0  0  0
   -0.0212    1.8761    3.8521 H   0  0  0  0  0  0  0  0  0  0  0  0
   -1.7349    1.5853    4.2320 H   0  0  0  0  0  0  0  0  0  0  0  0
   -0.5312    0.2997    4.4834 H   0  0  0  0  0  0  0  0  0  0  0  0
  5  6  2  0  0  0  0
  5  7  1  0  0  0  0
  2  3  1  0  0  0  0
  2  4  1  0  0  0  0
  2  5  1  0  0  0  0
  1  2  1  0  0  0  0
 22 23  2  0  0  0  0
 22 24  1  0  0  0  0
 20 21  1  0  0  0  0
 19 20  1  0  0  0  0
 17 18  1  0  0  0  0
 17 19  2  0  0  0  0
 15 16  1  0  0  0  0
 15 17  1  0  0  0  0
 14 15  1  0  0  0  0
 14 20  2  0  0  0  0
 11 12  1  0  0  0  0
 11 13  1  0  0  0  0
 11 14  1  0  0  0  0
  9 10  1  0  0  0  0
  9 11  1  0  0  0  0
  9 22  1  0  0  0  0
  7  8  1  0  0  0  0
  7  9  1  0  0  0  0
 26 27  1  0  0  0  0
 26 28  1  0  0  0  0
 26 29  1  0  0  0  0
 24 25  1  0  0  0  0
 24 26  1  0  0  0  0
M  END
$$$$
default_name
  -OEChem-02102213163D

 29 29  0     1  0  0  0  0  0999 V2000
   -3.6042   -3.5728    1.4576 H   0  0  0  0  0  0  0  0  0  0  0  0
   -3.5202   -2.6488    0.8866 C   0  0  0  0  0  0  0  0  0  0  0  0
   -4.2052   -1.9048    1.2896 H   0  0  0  0  0  0  0  0  0  0  0  0
   -3.7552   -2.8428   -0.1584 H   0  0  0  0  0  0  0  0  0  0  0  0
   -2.1052   -2.1358    0.9946 C   0  0  0  0  0  0  0  0  0  0  0  0
   -1.2852   -2.7288    1.6826 O   0  0  0  0  0  0  0  0  0  0  0  0
   -1.8202   -1.0288    0.3146 N   0  0  0  0  0  0  0  0  0  0  0  0
   -2.5542   -0.5788   -0.2104 H   0  0  0  0  0  0  0  0  0  0  0  0
   -0.5102   -0.3728    0.3086 C   0  0  1  0  0  0  0  0  0  0  0  0
    0.2354   -1.0844   -0.0490 H   0  0  0  0  0  0  0  0  0  0  0  0
   -0.5452    0.8158   -0.6698 C   0  0  0  0  0  0  0  0  0  0  0  0
    0.1620    1.5762   -0.3337 H   0  0  0  0  0  0  0  0  0  0  0  0
   -0.2267    0.4740   -1.6563 H   0  0  0  0  0  0  0  0  0  0  0  0
   -1.9055    1.4506   -0.8001 C   0  0  0  0  0  0  0  0  0  0  0  0
   -2.2309    2.5256   -1.5992 N   0  0  0  0  0  0  0  0  0  0  0  0
   -1.5863    3.0784   -2.1442 H   0  0  0  0  0  0  0  0  0  0  0  0
   -3.5590    2.7139   -1.5218 C   0  0  0  0  0  0  0  0  0  0  0  0
   -4.1123    3.4899   -2.0364 H   0  0  0  0  0  0  0  0  0  0  0  0
   -4.1118    1.7969   -0.7144 N   0  0  0  0  0  0  0  0  0  0  0  0
   -3.0706    0.9911   -0.2464 C   0  0  0  0  0  0  0  0  0  0  0  0
   -3.1700    0.1342    0.4074 H   0  0  0  0  0  0  0  0  0  0  0  0
   -0.1073    0.0565    1.7296 C   0  0  0  0  0  0  0  0  0  0  0  0
    1.0285   -0.1699    2.1459 O   0  0  0  0  0  0  0  0  0  0  0  0
   -1.0395    0.6588    2.4785 N   0  0  0  0  0  0  0  0  0  0  0  0
   -1.9636    0.7597    2.0849 H   0  0  0  0  0  0  0  0  0  0  0  0
   -0.8222    1.1334    3.8425 C   0  0  0  0  0  0  0  0  0  0  0  0
   -0.0212    1.8761    3.8521 H   0  0  0  0  0  0  0  0  0  0  0  0
   -1.7349    1.5853    4.2320 H   0  0  0  0  0  0  0  0  0  0  0  0
   -0.5312    0.2997    4.4834 H   0  0  0  0  0  0  0  0  0  0  0  0
  5  6  2  0  0  0  0
  5  7  1  0  0  0  0
  2  3  1  0  0  0  0
  2  4  1  0  0  0  0
  2  5  1  0  0  0  0
  1  2  1  0  0  0  0
 22 23  2  0  0  0  0
 22 24  1  0  0  0  0
 20 21  1  0  0  0  0
 19 20  1  0  0  0  0
 17 18  1  0  0  0  0
 17 19  2  0  0  0  0
 15 16  1  0  0  0  0
 15 17  1  0  0  0  0
 14 15  1  0  0  0  0
 14 20  2  0  0  0  0
 11 12  1  0  0  0  0
 11 13  1  0  0  0  0
 11 14  1  0  0  0  0
  9 10  1  0  0  0  0
  9 11  1  0  0  0  0
  9 22  1  0  0  0  0
  7  8  1  0  0  0  0
  7  9  1  0  0  0  0
 26 27  1  0  0  0  0
 26 28  1  0  0  0  0
 26 29  1  0  0  0  0
 24 25  1  0  0  0  0
 24 26  1  0  0  0  0
M  END
$$$$
default_name
  -OEChem-02102213163D

 29 29  0     1  0  0  0  0  0999 V2000
   -3.6042   -3.5728    1.4576 H   0  0  0  0  0  0  0  0  0  0  0  0
   -3.5202   -2.6488    0.8866 C   0  0  0  0  0  0  0  0  0  0  0  0
   -4.2052   -1.9048    1.2896 H   0  0  0  0  0  0  0  0  0  0  0  0
   -3.7552   -2.8428   -0.1584 H   0  0  0  0  0  0  0  0  0  0  0  0
   -2.1052   -2.1358    0.9946 C   0  0  0  0  0  0  0  0  0  0  0  0
   -1.2852   -2.7288    1.6826 O   0  0  0  0  0  0  0  0  0  0  0  0
   -1.8202   -1.0288    0.3146 N   0  0  0  0  0  0  0  0  0  0  0  0
   -2.5542   -0.5788   -0.2104 H   0  0  0  0  0  0  0  0  0  0  0  0
   -0.5102   -0.3728    0.3086 C   0  0  1  0  0  0  0  0  0  0  0  0
    0.2354   -1.0844   -0.0490 H   0  0  0  0  0  0  0  0  0  0  0  0
   -0.5452    0.8158   -0.6698 C   0  0  0  0  0  0  0  0  0  0  0  0
    0.1620    1.5762   -0.3337 H   0  0  0  0  0  0  0  0  0  0  0  0
   -0.2267    0.4740   -1.6563 H   0  0  0  0  0  0  0  0  0  0  0  0
   -1.9055    1.4506   -0.8001 C   0  0  0  0  0  0  0  0  0  0  0  0
   -2.3080    2.3213   -1.7900 N   0  0  0  0  0  0  0  0  0  0  0  0
   -1.7231    2.7091   -2.5151 H   0  0  0  0  0  0  0  0  0  0  0  0
   -3.6173    2.5692   -1.6182 C   0  0  0  0  0  0  0  0  0  0  0  0
   -4.2173    3.2234   -2.2389 H   0  0  0  0  0  0  0  0  0  0  0  0
   -4.0851    1.8851   -0.5639 N   0  0  0  0  0  0  0  0  0  0  0  0
   -3.0057    1.1739   -0.0332 C   0  0  0  0  0  0  0  0  0  0  0  0
   -3.0396    0.4965    0.8102 H   0  0  0  0  0  0  0  0  0  0  0  0
   -0.1073    0.0565    1.7296 C   0  0  0  0  0  0  0  0  0  0  0  0
    1.0285   -0.1699    2.1459 O   0  0  0  0  0  0  0  0  0  0  0  0
   -1.0395    0.6588    2.4785 N   0  0  0  0  0  0  0  0  0  0  0  0
   -1.9636    0.7597    2.0849 H   0  0  0  0  0  0  0  0  0  0  0  0
   -0.8222    1.1334    3.8425 C   0  0  0  0  0  0  0  0  0  0  0  0
   -0.0212    1.8761    3.8521 H   0  0  0  0  0  0  0  0  0  0  0  0
   -1.7349    1.5853    4.2320 H   0  0  0  0  0  0  0  0  0  0  0  0
   -0.5312    0.2997    4.4834 H   0  0  0  0  0  0  0  0  0  0  0  0
  5  6  2  0  0  0  0
  5  7  1  0  0  0  0
  2  3  1  0  0  0  0
  2  4  1  0  0  0  0
  2  5  1  0  0  0  0
  1  2  1  0  0  0  0
 22 23  2  0  0  0  0
 22 24  1  0  0  0  0
 20 21  1  0  0  0  0
 19 20  1  0  0  0  0
 17 18  1  0  0  0  0
 17 19  2  0  0  0  0
 15 16  1  0  0  0  0
 15 17  1  0  0  0  0
 14 15  1  0  0  0  0
 14 20  2  0  0  0  0
 11 12  1  0  0  0  0
 11 13  1  0  0  0  0
 11 14  1  0  0  0  0
  9 10  1  0  0  0  0
  9 11  1  0  0  0  0
  9 22  1  0  0  0  0
  7  8  1  0  0  0  0
  7  9  1  0  0  0  0
 26 27  1  0  0  0  0
 26 28  1  0  0  0  0
 26 29  1  0  0  0  0
 24 25  1  0  0  0  0
 24 26  1  0  0  0  0
M  END
$$$$
default_name
  -OEChem-02102213163D

 29 29  0     1  0  0  0  0  0999 V2000
   -3.6042   -3.5728    1.4576 H   0  0  0  0  0  0  0  0  0  0  0  0
   -3.5202   -2.6488    0.8866 C   0  0  0  0  0  0  0  0  0  0  0  0
   -4.2052   -1.9048    1.2896 H   0  0  0  0  0  0  0  0  0  0  0  0
   -3.7552   -2.8428   -0.1584 H   0  0  0  0  0  0  0  0  0  0  0  0
   -2.1052   -2.1358    0.9946 C   0  0  0  0  0  0  0  0  0  0  0  0
   -1.2852   -2.7288    1.6826 O   0  0  0  0  0  0  0  0  0  0  0  0
   -1.8202   -1.0288    0.3146 N   0  0  0  0  0  0  0  0  0  0  0  0
   -2.5542   -0.5788   -0.2104 H   0  0  0  0  0  0  0  0  0  0  0  0
   -0.5102   -0.3728    0.3086 C   0  0  1  0  0  0  0  0  0  0  0  0
    0.2354   -1.0844   -0.0490 H   0  0  0  0  0  0  0  0  0  0  0  0
   -0.5452    0.8158   -0.6698 C   0  0  0  0  0  0  0  0  0  0  0  0
    0.1620    1.5762   -0.3337 H   0  0  0  0  0  0  0  0  0  0  0  0
   -0.2267    0.4740   -1.6563 H   0  0  0  0  0  0  0  0  0  0  0  0
   -1.9055    1.4506   -0.8001 C   0  0  0  0  0  0  0  0  0  0  0  0
   -2.4078    2.0810   -1.9183 N   0  0  0  0  0  0  0  0  0  0  0  0
   -1.9040    2.2688   -2.7721 H   0  0  0  0  0  0  0  0  0  0  0  0
   -3.6874    2.4082   -1.6712 C   0  0  0  0  0  0  0  0  0  0  0  0
   -4.3467    2.9211   -2.3608 H   0  0  0  0  0  0  0  0  0  0  0  0
   -4.0409    2.0049   -0.4421 N   0  0  0  0  0  0  0  0  0  0  0  0
   -2.9158    1.3987    0.1229 C   0  0  0  0  0  0  0  0  0  0  0  0
   -2.8615    0.9376    1.1005 H   0  0  0  0  0  0  0  0  0  0  0  0
   -0.1073    0.0565    1.7296 C   0  0  0  0  0  0  0  0  0  0  0  0
    1.0285   -0.1699    2.1459 O   0  0  0  0  0  0  0  0  0  0  0  0
   -1.0395    0.6588    2.4785 N   0  0  0  0  0  0  0  0  0  0  0  0
   -1.9636    0.7597    2.0849 H   0  0  0  0  0  0  0  0  0  0  0  0
   -0.8222    1.1334    3.8425 C   0  0  0  0  0  0  0  0  0  0  0  0
   -0.0212    1.8761    3.8521 H   0  0  0  0  0  0  0  0  0  0  0  0
   -1.7349    1.5853    4.2320 H   0  0  0  0  0  0  0  0  0  0  0  0
   -0.5312    0.2997    4.4834 H   0  0  0  0  0  0  0  0  0  0  0  0
  5  6  2  0  0  0  0
  5  7  1  0  0  0  0
  2  3  1  0  0  0  0
  2  4  1  0  0  0  0
  2  5  1  0  0  0  0
  1  2  1  0  0  0  0
 22 23  2  0  0  0  0
 22 24  1  0  0  0  0
 20 21  1  0  0  0  0
 19 20  1  0  0  0  0
 17 18  1  0  0  0  0
 17 19  2  0  0  0  0
 15 16  1  0  0  0  0
 15 17  1  0  0  0  0
 14 15  1  0  0  0  0
 14 20  2  0  0  0  0
 11 12  1  0  0  0  0
 11 13  1  0  0  0  0
 11 14  1  0  0  0  0
  9 10  1  0  0  0  0
  9 11  1  0  0  0  0
  9 22  1  0  0  0  0
  7  8  1  0  0  0  0
  7  9  1  0  0  0  0
 26 27  1  0  0  0  0
 26 28  1  0  0  0  0
 26 29  1  0  0  0  0
 24 25  1  0  0  0  0
 24 26  1  0  0  0  0
M  END
$$$$
default_name
  -OEChem-02102213163D

 29 29  0     1  0  0  0  0  0999 V2000
   -3.6042   -3.5728    1.4576 H   0  0  0  0  0  0  0  0  0  0  0  0
   -3.5202   -2.6488    0.8866 C   0  0  0  0  0  0  0  0  0  0  0  0
   -4.2052   -1.9048    1.2896 H   0  0  0  0  0  0  0  0  0  0  0  0
   -3.7552   -2.8428   -0.1584 H   0  0  0  0  0  0  0  0  0  0  0  0
   -2.1052   -2.1358    0.9946 C   0  0  0  0  0  0  0  0  0  0  0  0
   -1.2852   -2.7288    1.6826 O   0  0  0  0  0  0  0  0  0  0  0  0
   -1.8202   -1.0288    0.3146 N   0  0  0  0  0  0  0  0  0  0  0  0
   -2.5542   -0.5788   -0.2104 H   0  0  0  0  0  0  0  0  0  0  0  0
   -0.5102   -0.3728    0.3086 C   0  0  1  0  0  0  0  0  0  0  0  0
    0.2354   -1.0844   -0.0490 H   0  0  0  0  0  0  0  0  0  0  0  0
   -0.5452    0.8158   -0.6698 C   0  0  0  0  0  0  0  0  0  0  0  0
    0.1620    1.5762   -0.3337 H   0  0  0  0  0  0  0  0  0  0  0  0
   -0.2267    0.4740   -1.6563 H   0  0  0  0  0  0  0  0  0  0  0  0
   -1.9055    1.4506   -0.8001 C   0  0  0  0  0  0  0  0  0  0  0  0
   -2.5236    1.8212   -1.9751 N   0  0  0  0  0  0  0  0  0  0  0  0
   -2.1165    1.7875   -2.8978 H   0  0  0  0  0  0  0  0  0  0  0  0
   -3.7644    2.2418   -1.6772 C   0  0  0  0  0  0  0  0  0  0  0  0
   -4.4918    2.6034   -2.3937 H   0  0  0  0  0  0  0  0  0  0  0  0
   -3.9822    2.1480   -0.3573 N   0  0  0  0  0  0  0  0  0  0  0  0
   -2.8068    1.6504    0.2113 C   0  0  0  0  0  0  0  0  0  0  0  0
   -2.6481    1.4275    1.2585 H   0  0  0  0  0  0  0  0  0  0  0  0
   -0.1073    0.0565    1.7296 C   0  0  0  0  0  0  0  0  0  0  0  0
    1.0285   -0.1699    2.1459 O   0  0  0  0  0  0  0  0  0  0  0  0
   -1.0395    0.6588    2.4785 N   0  0  0  0  0  0  0  0  0  0  0  0
   -1.9636    0.7597    2.0849 H   0  0  0  0  0  0  0  0  0  0  0  0
   -0.8222    1.1334    3.8425 C   0  0  0  0  0  0  0  0  0  0  0  0
   -0.0212    1.8761    3.8521 H   0  0  0  0  0  0  0  0  0  0  0  0
   -1.7349    1.5853    4.2320 H   0  0  0  0  0  0  0  0  0  0  0  0
   -0.5312    0.2997    4.4834 H   0  0  0  0  0  0  0  0  0  0  0  0
  5  6  2  0  0  0  0
  5  7  1  0  0  0  0
  2  3  1  0  0  0  0
  2  4  1  0  0  0  0
  2  5  1  0  0  0  0
  1  2  1  0  0  0  0
 22 23  2  0  0  0  0
 22 24  1  0  0  0  0
 20 21  1  0  0  0  0
 19 20  1  0  0  0  0
 17 18  1  0  0  0  0
 17 19  2  0  0  0  0
 15 16  1  0  0  0  0
 15 17  1  0  0  0  0
 14 15  1  0  0  0  0
 14 20  2  0  0  0  0
 11 12  1  0  0  0  0
 11 13  1  0  0  0  0
 11 14  1  0  0  0  0
  9 10  1  0  0  0  0
  9 11  1  0  0  0  0
  9 22  1  0  0  0  0
  7  8  1  0  0  0  0
  7  9  1  0  0  0  0
 26 27  1  0  0  0  0
 26 28  1  0  0  0  0
 26 29  1  0  0  0  0
 24 25  1  0  0  0  0
 24 26  1  0  0  0  0
M  END
$$$$
default_name
  -OEChem-02102213163D

 29 29  0     1  0  0  0  0  0999 V2000
   -3.6042   -3.5728    1.4576 H   0  0  0  0  0  0  0  0  0  0  0  0
   -3.5202   -2.6488    0.8866 C   0  0  0  0  0  0  0  0  0  0  0  0
   -4.2052   -1.9048    1.2896 H   0  0  0  0  0  0  0  0  0  0  0  0
   -3.7552   -2.8428   -0.1584 H   0  0  0  0  0  0  0  0  0  0  0  0
   -2.1052   -2.1358    0.9946 C   0  0  0  0  0  0  0  0  0  0  0  0
   -1.2852   -2.7288    1.6826 O   0  0  0  0  0  0  0  0  0  0  0  0
   -1.8202   -1.0288    0.3146 N   0  0  0  0  0  0  0  0  0  0  0  0
   -2.5542   -0.5788   -0.2104 H   0  0  0  0  0  0  0  0  0  0  0  0
   -0.5102   -0.3728    0.3086 C   0  0  1  0  0  0  0  0  0  0  0  0
    0.2354   -1.0844   -0.0490 H   0  0  0  0  0  0  0  0  0  0  0  0
   -0.5452    0.8158   -0.6698 C   0  0  0  0  0  0  0  0  0  0  0  0
    0.1620    1.5762   -0.3337 H   0  0  0  0  0  0  0  0  0  0  0  0
   -0.2267    0.4740   -1.6563 H   0  0  0  0  0  0  0  0  0  0  0  0
   -1.9055    1.4506   -0.8001 C   0  0  0  0  0  0  0  0  0  0  0  0
   -2.6474    1.5596   -1.9567 N   0  0  0  0  0  0  0  0  0  0  0  0
   -2.3463    1.2980   -2.8835 H   0  0  0  0  0  0  0  0  0  0  0  0
   -3.8432    2.0815   -1.6356 C   0  0  0  0  0  0  0  0  0  0  0  0
   -4.6426    2.2921   -2.3355 H   0  0  0  0  0  0  0  0  0  0  0  0
   -3.9131    2.3048   -0.3152 N   0  0  0  0  0  0  0  0  0  0  0  0
   -2.6863    1.9118    0.2260 C   0  0  0  0  0  0  0  0  0  0  0  0
   -2.4137    1.9328    1.2733 H   0  0  0  0  0  0  0  0  0  0  0  0
   -0.1073    0.0565    1.7296 C   0  0  0  0  0  0  0  0  0  0  0  0
    1.0285   -0.1699    2.1459 O   0  0  0  0  0  0  0  0  0  0  0  0
   -1.0395    0.6588    2.4785 N   0  0  0  0  0  0  0  0  0  0  0  0
   -1.9636    0.7597    2.0849 H   0  0  0  0  0  0  0  0  0  0  0  0
   -0.8222    1.1334    3.8425 C   0  0  0  0  0  0  0  0  0  0  0  0
   -0.0212    1.8761    3.8521 H   0  0  0  0  0  0  0  0  0  0  0  0
   -1.7349    1.5853    4.2320 H   0  0  0  0  0  0  0  0  0  0  0  0
   -0.5312    0.2997    4.4834 H   0  0  0  0  0  0  0  0  0  0  0  0
  5  6  2  0  0  0  0
  5  7  1  0  0  0  0
  2  3  1  0  0  0  0
  2  4  1  0  0  0  0
  2  5  1  0  0  0  0
  1  2  1  0  0  0  0
 22 23  2  0  0  0  0
 22 24  1  0  0  0  0
 20 21  1  0  0  0  0
 19 20  1  0  0  0  0
 17 18  1  0  0  0  0
 17 19  2  0  0  0  0
 15 16  1  0  0  0  0
 15 17  1  0  0  0  0
 14 15  1  0  0  0  0
 14 20  2  0  0  0  0
 11 12  1  0  0  0  0
 11 13  1  0  0  0  0
 11 14  1  0  0  0  0
  9 10  1  0  0  0  0
  9 11  1  0  0  0  0
  9 22  1  0  0  0  0
  7  8  1  0  0  0  0
  7  9  1  0  0  0  0
 26 27  1  0  0  0  0
 26 28  1  0  0  0  0
 26 29  1  0  0  0  0
 24 25  1  0  0  0  0
 24 26  1  0  0  0  0
M  END
$$$$
default_name
  -OEChem-02102213163D

 29 29  0     1  0  0  0  0  0999 V2000
   -3.6042   -3.5728    1.4576 H   0  0  0  0  0  0  0  0  0  0  0  0
   -3.5202   -2.6488    0.8866 C   0  0  0  0  0  0  0  0  0  0  0  0
   -4.2052   -1.9048    1.2896 H   0  0  0  0  0  0  0  0  0  0  0  0
   -3.7552   -2.8428   -0.1584 H   0  0  0  0  0  0  0  0  0  0  0  0
   -2.1052   -2.1358    0.9946 C   0  0  0  0  0  0  0  0  0  0  0  0
   -1.2852   -2.7288    1.6826 O   0  0  0  0  0  0  0  0  0  0  0  0
   -1.8202   -1.0288    0.3146 N   0  0  0  0  0  0  0  0  0  0  0  0
   -2.5542   -0.5788   -0.2104 H   0  0  0  0  0  0  0  0  0  0  0  0
   -0.5102   -0.3728    0.3086 C   0  0  1  0  0  0  0  0  0  0  0  0
    0.2354   -1.0844   -0.0490 H   0  0  0  0  0  0  0  0  0  0  0  0
   -0.5452    0.8158   -0.6698 C   0  0  0  0  0  0  0  0  0  0  0  0
    0.1620    1.5762   -0.3337 H   0  0  0  0  0  0  0  0  0  0  0  0
   -0.2267    0.4740   -1.6563 H   0  0  0  0  0  0  0  0  0  0  0  0
   -1.9055    1.4506   -0.8001 C   0  0  0  0  0  0  0  0  0  0  0  0
   -2.7709    1.3139   -1.8643 N   0  0  0  0  0  0  0  0  0  0  0  0
   -2.5777    0.8336   -2.7303 H   0  0  0  0  0  0  0  0  0  0  0  0
   -3.9184    1.9381   -1.5495 C   0  0  0  0  0  0  0  0  0  0  0  0
   -4.7889    2.0084   -2.1901 H   0  0  0  0  0  0  0  0  0  0  0  0
   -3.8382    2.4645   -0.3187 N   0  0  0  0  0  0  0  0  0  0  0  0
   -2.5624    2.1649    0.1660 C   0  0  0  0  0  0  0  0  0  0  0  0
   -2.1743    2.4192    1.1439 H   0  0  0  0  0  0  0  0  0  0  0  0
   -0.1073    0.0565    1.7296 C   0  0  0  0  0  0  0  0  0  0  0  0
    1.0285   -0.1699    2.1459 O   0  0  0  0  0  0  0  0  0  0  0  0
   -1.0395    0.6588    2.4785 N   0  0  0  0  0  0  0  0  0  0  0  0
   -1.9636    0.7597    2.0849 H   0  0  0  0  0  0  0  0  0  0  0  0
   -0.8222    1.1334    3.8425 C   0  0  0  0  0  0  0  0  0  0  0  0
   -0.0212    1.8761    3.8521 H   0  0  0  0  0  0  0  0  0  0  0  0
   -1.7349    1.5853    4.2320 H   0  0  0  0  0  0  0  0  0  0  0  0
   -0.5312    0.2997    4.4834 H   0  0  0  0  0  0  0  0  0  0  0  0
  5  6  2  0  0  0  0
  5  7  1  0  0  0  0
  2  3  1  0  0  0  0
  2  4  1  0  0  0  0
  2  5  1  0  0  0  0
  1  2  1  0  0  0  0
 22 23  2  0  0  0  0
 22 24  1  0  0  0  0
 20 21  1  0  0  0  0
 19 20  1  0  0  0  0
 17 18  1  0  0  0  0
 17 19  2  0  0  0  0
 15 16  1  0  0  0  0
 15 17  1  0  0  0  0
 14 15  1  0  0  0  0
 14 20  2  0  0  0  0
 11 12  1  0  0  0  0
 11 13  1  0  0  0  0
 11 14  1  0  0  0  0
  9 10  1  0  0  0  0
  9 11  1  0  0  0  0
  9 22  1  0  0  0  0
  7  8  1  0  0  0  0
  7  9  1  0  0  0  0
 26 27  1  0  0  0  0
 26 28  1  0  0  0  0
 26 29  1  0  0  0  0
 24 25  1  0  0  0  0
 24 26  1  0  0  0  0
M  END
$$$$
default_name
  -OEChem-02102213163D

 29 29  0     1  0  0  0  0  0999 V2000
   -3.6042   -3.5728    1.4576 H   0  0  0  0  0  0  0  0  0  0  0  0
   -3.5202   -2.6488    0.8866 C   0  0  0  0  0  0  0  0  0  0  0  0
   -4.2052   -1.9048    1.2896 H   0  0  0  0  0  0  0  0  0  0  0  0
   -3.7552   -2.8428   -0.1584 H   0  0  0  0  0  0  0  0  0  0  0  0
   -2.1052   -2.1358    0.9946 C   0  0  0  0  0  0  0  0  0  0  0  0
   -1.2852   -2.7288    1.6826 O   0  0  0  0  0  0  0  0  0  0  0  0
   -1.8202   -1.0288    0.3146 N   0  0  0  0  0  0  0  0  0  0  0  0
   -2.5542   -0.5788   -0.2104 H   0  0  0  0  0  0  0  0  0  0  0  0
   -0.5102   -0.3728    0.3086 C   0  0  1  0  0  0  0  0  0  0  0  0
    0.2354   -1.0844   -0.0490 H   0  0  0  0  0  0  0  0  0  0  0  0
   -0.5452    0.8158   -0.6698 C   0  0  0  0  0  0  0  0  0  0  0  0
    0.1620    1.5762   -0.3337 H   0  0  0  0  0  0  0  0  0  0  0  0
   -0.2267    0.4740   -1.6563 H   0  0  0  0  0  0  0  0  0  0  0  0
   -1.9055    1.4506   -0.8001 C   0  0  0  0  0  0  0  0  0  0  0  0
   -2.8856    1.1010   -1.7041 N   0  0  0  0  0  0  0  0  0  0  0  0
   -2.7949    0.4260   -2.4486 H   0  0  0  0  0  0  0  0  0  0  0  0
   -3.9848    1.8214   -1.4245 C   0  0  0  0  0  0  0  0  0  0  0  0
   -4.9207    1.7716   -1.9674 H   0  0  0  0  0  0  0  0  0  0  0  0
   -3.7627    2.6163   -0.3676 N   0  0  0  0  0  0  0  0  0  0  0  0
   -2.4436    2.3927    0.0354 C   0  0  0  0  0  0  0  0  0  0  0  0
   -1.9464    2.8534    0.8792 H   0  0  0  0  0  0  0  0  0  0  0  0
   -0.1073    0.0565    1.7296 C   0  0  0  0  0  0  0  0  0  0  0  0
    1.0285   -0.1699    2.1459 O   0  0  0  0  0  0  0  0  0  0  0  0
   -1.0395    0.6588    2.4785 N   0  0  0  0  0  0  0  0  0  0  0  0
   -1.9636    0.7597    2.0849 H   0  0  0  0  0  0  0  0  0  0  0  0
   -0.8222    1.1334    3.8425 C   0  0  0  0  0  0  0  0  0  0  0  0
   -0.0212    1.8761    3.8521 H   0  0  0  0  0  0  0  0  0  0  0  0
   -1.7349    1.5853    4.2320 H   0  0  0  0  0  0  0  0  0  0  0  0
   -0.5312    0.2997    4.4834 H   0  0  0  0  0  0  0  0  0  0  0  0
  5  6  2  0  0  0  0
  5  7  1  0  0  0  0
  2  3  1  0  0  0  0
  2  4  1  0  0  0  0
  2  5  1  0  0  0  0
  1  2  1  0  0  0  0
 22 23  2  0  0  0  0
 22 24  1  0  0  0  0
 20 21  1  0  0  0  0
 19 20  1  0  0  0  0
 17 18  1  0  0  0  0
 17 19  2  0  0  0  0
 15 16  1  0  0  0  0
 15 17  1  0  0  0  0
 14 15  1  0  0  0  0
 14 20  2  0  0  0  0
 11 12  1  0  0  0  0
 11 13  1  0  0  0  0
 11 14  1  0  0  0  0
  9 10  1  0  0  0  0
  9 11  1  0  0  0  0
  9 22  1  0  0  0  0
  7  8  1  0  0  0  0
  7  9  1  0  0  0  0
 26 27  1  0  0  0  0
 26 28  1  0  0  0  0
 26 29  1  0  0  0  0
 24 25  1  0  0  0  0
 24 26  1  0  0  0  0
M  END
$$$$
default_name
  -OEChem-02102213163D

 29 29  0     1  0  0  0  0  0999 V2000
   -3.6042   -3.5728    1.4576 H   0  0  0  0  0  0  0  0  0  0  0  0
   -3.5202   -2.6488    0.8866 C   0  0  0  0  0  0  0  0  0  0  0  0
   -4.2052   -1.9048    1.2896 H   0  0  0  0  0  0  0  0  0  0  0  0
   -3.7552   -2.8428   -0.1584 H   0  0  0  0  0  0  0  0  0  0  0  0
   -2.1052   -2.1358    0.9946 C   0  0  0  0  0  0  0  0  0  0  0  0
   -1.2852   -2.7288    1.6826 O   0  0  0  0  0  0  0  0  0  0  0  0
   -1.8202   -1.0288    0.3146 N   0  0  0  0  0  0  0  0  0  0  0  0
   -2.5542   -0.5788   -0.2104 H   0  0  0  0  0  0  0  0  0  0  0  0
   -0.5102   -0.3728    0.3086 C   0  0  1  0  0  0  0  0  0  0  0  0
    0.2354   -1.0844   -0.0490 H   0  0  0  0  0  0  0  0  0  0  0  0
   -0.5452    0.8158   -0.6698 C   0  0  0  0  0  0  0  0  0  0  0  0
    0.1620    1.5762   -0.3337 H   0  0  0  0  0  0  0  0  0  0  0  0
   -0.2267    0.4740   -1.6563 H   0  0  0  0  0  0  0  0  0  0  0  0
   -1.9055    1.4506   -0.8001 C   0  0  0  0  0  0  0  0  0  0  0  0
   -2.9837    0.9353   -1.4872 N   0  0  0  0  0  0  0  0  0  0  0  0
   -2.9831    0.1030   -2.0576 H   0  0  0  0  0  0  0  0  0  0  0  0
   -4.0379    1.7394   -1.2694 C   0  0  0  0  0  0  0  0  0  0  0  0
   -5.0291    1.5979   -1.6826 H   0  0  0  0  0  0  0  0  0  0  0  0
   -3.6917    2.7498   -0.4585 N   0  0  0  0  0  0  0  0  0  0  0  0
   -2.3380    2.5795   -0.1569 C   0  0  0  0  0  0  0  0  0  0  0  0
   -1.7453    3.2058    0.4973 H   0  0  0  0  0  0  0  0  0  0  0  0
   -0.1073    0.0565    1.7296 C   0  0  0  0  0  0  0  0  0  0  0  0
    1.0285   -0.1699    2.1459 O   0  0  0  0  0  0  0  0  0  0  0  0
   -1.0395    0.6588    2.4785 N   0  0  0  0  0  0  0  0  0  0  0  0
   -1.9636    0.7597    2.0849 H   0  0  0  0  0  0  0  0  0  0  0  0
   -0.8222    1.1334    3.8425 C   0  0  0  0  0  0  0  0  0  0  0  0
   -0.0212    1.8761    3.8521 H   0  0  0  0  0  0  0  0  0  0  0  0
   -1.7349    1.5853    4.2320 H   0  0  0  0  0  0  0  0  0  0  0  0
   -0.5312    0.2997    4.4834 H   0  0  0  0  0  0  0  0  0  0  0  0
  5  6  2  0  0  0  0
  5  7  1  0  0  0  0
  2  3  1  0  0  0  0
  2  4  1  0  0  0  0
  2  5  1  0  0  0  0
  1  2  1  0  0  0  0
 22 23  2  0  0  0  0
 22 24  1  0  0  0  0
 20 21  1  0  0  0  0
 19 20  1  0  0  0  0
 17 18  1  0  0  0  0
 17 19  2  0  0  0  0
 15 16  1  0  0  0  0
 15 17  1  0  0  0  0
 14 15  1  0  0  0  0
 14 20  2  0  0  0  0
 11 12  1  0  0  0  0
 11 13  1  0  0  0  0
 11 14  1  0  0  0  0
  9 10  1  0  0  0  0
  9 11  1  0  0  0  0
  9 22  1  0  0  0  0
  7  8  1  0  0  0  0
  7  9  1  0  0  0  0
 26 27  1  0  0  0  0
 26 28  1  0  0  0  0
 26 29  1  0  0  0  0
 24 25  1  0  0  0  0
 24 26  1  0  0  0  0
M  END
$$$$
default_name
  -OEChem-02102213163D

 29 29  0     1  0  0  0  0  0999 V2000
   -3.6042   -3.5728    1.4576 H   0  0  0  0  0  0  0  0  0  0  0  0
   -3.5202   -2.6488    0.8866 C   0  0  0  0  0  0  0  0  0  0  0  0
   -4.2052   -1.9048    1.2896 H   0  0  0  0  0  0  0  0  0  0  0  0
   -3.7552   -2.8428   -0.1584 H   0  0  0  0  0  0  0  0  0  0  0  0
   -2.1052   -2.1358    0.9946 C   0  0  0  0  0  0  0  0  0  0  0  0
   -1.2852   -2.7288    1.6826 O   0  0  0  0  0  0  0  0  0  0  0  0
   -1.8202   -1.0288    0.3146 N   0  0  0  0  0  0  0  0  0  0  0  0
   -2.5542   -0.5788   -0.2104 H   0  0  0  0  0  0  0  0  0  0  0  0
   -0.5102   -0.3728    0.3086 C   0  0  1  0  0  0  0  0  0  0  0  0
    0.2354   -1.0844   -0.0490 H   0  0  0  0  0  0  0  0  0  0  0  0
   -0.5452    0.8158   -0.6698 C   0  0  0  0  0  0  0  0  0  0  0  0
    0.1620    1.5762   -0.3337 H   0  0  0  0  0  0  0  0  0  0  0  0
   -0.2267    0.4740   -1.6563 H   0  0  0  0  0  0  0  0  0  0  0  0
   -1.9055    1.4506   -0.8001 C   0  0  0  0  0  0  0  0  0  0  0  0
   -3.0585    0.8282   -1.2282 N   0  0  0  0  0  0  0  0  0  0  0  0
   -3.1294   -0.1134   -1.5839 H   0  0  0  0  0  0  0  0  0  0  0  0
   -4.0742    1.6976   -1.0945 C   0  0  0  0  0  0  0  0  0  0  0  0
   -5.1066    1.4990   -1.3551 H   0  0  0  0  0  0  0  0  0  0  0  0
   -3.6300    2.8559   -0.5852 N   0  0  0  0  0  0  0  0  0  0  0  0
   -2.2528    2.7126   -0.3978 C   0  0  0  0  0  0  0  0  0  0  0  0
   -1.5849    3.4525    0.0240 H   0  0  0  0  0  0  0  0  0  0  0  0
   -0.1073    0.0565    1.7296 C   0  0  0  0  0  0  0  0  0  0  0  0
    1.0285   -0.1699    2.1459 O   0  0  0  0  0  0  0  0  0  0  0  0
   -1.0395    0.6588    2.4785 N   0  0  0  0  0  0  0  0  0  0  0  0
   -1.9636    0.7597    2.0849 H   0  0  0  0  0  0  0  0  0  0  0  0
   -0.8222    1.1334    3.8425 C   0  0  0  0  0  0  0  0  0  0  0  0
   -0.0212    1.8761    3.8521 H   0  0  0  0  0  0  0  0  0  0  0  0
   -1.7349    1.5853    4.2320 H   0  0  0  0  0  0  0  0  0  0  0  0
   -0.5312    0.2997    4.4834 H   0  0  0  0  0  0  0  0  0  0  0  0
  5  6  2  0  0  0  0
  5  7  1  0  0  0  0
  2  3  1  0  0  0  0
  2  4  1  0  0  0  0
  2  5  1  0  0  0  0
  1  2  1  0  0  0  0
 22 23  2  0  0  0  0
 22 24  1  0  0  0  0
 20 21  1  0  0  0  0
 19 20  1  0  0  0  0
 17 18  1  0  0  0  0
 17 19  2  0  0  0  0
 15 16  1  0  0  0  0
 15 17  1  0  0  0  0
 14 15  1  0  0  0  0
 14 20  2  0  0  0  0
 11 12  1  0  0  0  0
 11 13  1  0  0  0  0
 11 14  1  0  0  0  0
  9 10  1  0  0  0  0
  9 11  1  0  0  0  0
  9 22  1  0  0  0  0
  7  8  1  0  0  0  0
  7  9  1  0  0  0  0
 26 27  1  0  0  0  0
 26 28  1  0  0  0  0
 26 29  1  0  0  0  0
 24 25  1  0  0  0  0
 24 26  1  0  0  0  0
M  END
$$$$
default_name
  -OEChem-02102213163D

 29 29  0     1  0  0  0  0  0999 V2000
   -3.6042   -3.5728    1.4576 H   0  0  0  0  0  0  0  0  0  0  0  0
   -3.5202   -2.6488    0.8866 C   0  0  0  0  0  0  0  0  0  0  0  0
   -4.2052   -1.9048    1.2896 H   0  0  0  0  0  0  0  0  0  0  0  0
   -3.7552   -2.8428   -0.1584 H   0  0  0  0  0  0  0  0  0  0  0  0
   -2.1052   -2.1358    0.9946 C   0  0  0  0  0  0  0  0  0  0  0  0
   -1.2852   -2.7288    1.6826 O   0  0  0  0  0  0  0  0  0  0  0  0
   -1.8202   -1.0288    0.3146 N   0  0  0  0  0  0  0  0  0  0  0  0
   -2.5542   -0.5788   -0.2104 H   0  0  0  0  0  0  0  0  0  0  0  0
   -0.5102   -0.3728    0.3086 C   0  0  1  0  0  0  0  0  0  0  0  0
    0.2354   -1.0844   -0.0490 H   0  0  0  0  0  0  0  0  0  0  0  0
   -0.5452    0.8158   -0.6698 C   0  0  0  0  0  0  0  0  0  0  0  0
    0.1620    1.5762   -0.3337 H   0  0  0  0  0  0  0  0  0  0  0  0
   -0.2267    0.4740   -1.6563 H   0  0  0  0  0  0  0  0  0  0  0  0
   -1.9055    1.4506   -0.8001 C   0  0  0  0  0  0  0  0  0  0  0  0
   -3.1049    0.7869   -0.9449 N   0  0  0  0  0  0  0  0  0  0  0  0
   -3.2240   -0.2085   -1.0598 H   0  0  0  0  0  0  0  0  0  0  0  0
   -4.0911    1.6989   -0.9119 C   0  0  0  0  0  0  0  0  0  0  0  0
   -5.1480    1.4818   -1.0072 H   0  0  0  0  0  0  0  0  0  0  0  0
   -3.5819    2.9274   -0.7391 N   0  0  0  0  0  0  0  0  0  0  0  0
   -2.1938    2.7830   -0.6709 C   0  0  0  0  0  0  0  0  0  0  0  0
   -1.4760    3.5766   -0.5082 H   0  0  0  0  0  0  0  0  0  0  0  0
   -0.1073    0.0565    1.7296 C   0  0  0  0  0  0  0  0  0  0  0  0
    1.0285   -0.1699    2.1459 O   0  0  0  0  0  0  0  0  0  0  0  0
   -1.0395    0.6588    2.4785 N   0  0  0  0  0  0  0  0  0  0  0  0
   -1.9636    0.7597    2.0849 H   0  0  0  0  0  0  0  0  0  0  0  0
   -0.8222    1.1334    3.8425 C   0  0  0  0  0  0  0  0  0  0  0  0
   -0.0212    1.8761    3.8521 H   0  0  0  0  0  0  0  0  0  0  0  0
   -1.7349    1.5853    4.2320 H   0  0  0  0  0  0  0  0  0  0  0  0
   -0.5312    0.2997    4.4834 H   0  0  0  0  0  0  0  0  0  0  0  0
  5  6  2  0  0  0  0
  5  7  1  0  0  0  0
  2  3  1  0  0  0  0
  2  4  1  0  0  0  0
  2  5  1  0  0  0  0
  1  2  1  0  0  0  0
 22 23  2  0  0  0  0
 22 24  1  0  0  0  0
 20 21  1  0  0  0  0
 19 20  1  0  0  0  0
 17 18  1  0  0  0  0
 17 19  2  0  0  0  0
 15 16  1  0  0  0  0
 15 17  1  0  0  0  0
 14 15  1  0  0  0  0
 14 20  2  0  0  0  0
 11 12  1  0  0  0  0
 11 13  1  0  0  0  0
 11 14  1  0  0  0  0
  9 10  1  0  0  0  0
  9 11  1  0  0  0  0
  9 22  1  0  0  0  0
  7  8  1  0  0  0  0
  7  9  1  0  0  0  0
 26 27  1  0  0  0  0
 26 28  1  0  0  0  0
 26 29  1  0  0  0  0
 24 25  1  0  0  0  0
 24 26  1  0  0  0  0
M  END
$$$$
default_name
  -OEChem-02102213163D

 29 29  0     1  0  0  0  0  0999 V2000
   -3.6042   -3.5728    1.4576 H   0  0  0  0  0  0  0  0  0  0  0  0
   -3.5202   -2.6488    0.8866 C   0  0  0  0  0  0  0  0  0  0  0  0
   -4.2052   -1.9048    1.2896 H   0  0  0  0  0  0  0  0  0  0  0  0
   -3.7552   -2.8428   -0.1584 H   0  0  0  0  0  0  0  0  0  0  0  0
   -2.1052   -2.1358    0.9946 C   0  0  0  0  0  0  0  0  0  0  0  0
   -1.2852   -2.7288    1.6826 O   0  0  0  0  0  0  0  0  0  0  0  0
   -1.8202   -1.0288    0.3146 N   0  0  0  0  0  0  0  0  0  0  0  0
   -2.5542   -0.5788   -0.2104 H   0  0  0  0  0  0  0  0  0  0  0  0
   -0.5102   -0.3728    0.3086 C   0  0  1  0  0  0  0  0  0  0  0  0
    0.2354   -1.0844   -0.0490 H   0  0  0  0  0  0  0  0  0  0  0  0
   -0.5452    0.8158   -0.6698 C   0  0  0  0  0  0  0  0  0  0  0  0
    0.1620    1.5762   -0.3337 H   0  0  0  0  0  0  0  0  0  0  0  0
   -0.2267    0.4740   -1.6563 H   0  0  0  0  0  0  0  0  0  0  0  0
   -1.9055    1.4506   -0.8001 C   0  0  0  0  0  0  0  0  0  0  0  0
   -3.1198    0.8143   -0.6565 N   0  0  0  0  0  0  0  0  0  0  0  0
   -3.2603   -0.1757   -0.5211 H   0  0  0  0  0  0  0  0  0  0  0  0
   -4.0874    1.7432   -0.7340 C   0  0  0  0  0  0  0  0  0  0  0  0
   -5.1504    1.5474   -0.6626 H   0  0  0  0  0  0  0  0  0  0  0  0
   -3.5506    2.9595   -0.9098 N   0  0  0  0  0  0  0  0  0  0  0  0
   -2.1650    2.7859   -0.9577 C   0  0  0  0  0  0  0  0  0  0  0  0
   -1.4260    3.5697   -1.0632 H   0  0  0  0  0  0  0  0  0  0  0  0
   -0.1073    0.0565    1.7296 C   0  0  0  0  0  0  0  0  0  0  0  0
    1.0285   -0.1699    2.1459 O   0  0  0  0  0  0  0  0  0  0  0  0
   -1.0395    0.6588    2.4785 N   0  0  0  0  0  0  0  0  0  0  0  0
   -1.9636    0.7597    2.0849 H   0  0  0  0  0  0  0  0  0  0  0  0
   -0.8222    1.1334    3.8425 C   0  0  0  0  0  0  0  0  0  0  0  0
   -0.0212    1.8761    3.8521 H   0  0  0  0  0  0  0  0  0  0  0  0
   -1.7349    1.5853    4.2320 H   0  0  0  0  0  0  0  0  0  0  0  0
   -0.5312    0.2997    4.4834 H   0  0  0  0  0  0  0  0  0  0  0  0
  5  6  2  0  0  0  0
  5  7  1  0  0  0  0
  2  3  1  0  0  0  0
  2  4  1  0  0  0  0
  2  5  1  0  0  0  0
  1  2  1  0  0  0  0
 22 23  2  0  0  0  0
 22 24  1  0  0  0  0
 20 21  1  0  0  0  0
 19 20  1  0  0  0  0
 17 18  1  0  0  0  0
 17 19  2  0  0  0  0
 15 16  1  0  0  0  0
 15 17  1  0  0  0  0
 14 15  1  0  0  0  0
 14 20  2  0  0  0  0
 11 12  1  0  0  0  0
 11 13  1  0  0  0  0
 11 14  1  0  0  0  0
  9 10  1  0  0  0  0
  9 11  1  0  0  0  0
  9 22  1  0  0  0  0
  7  8  1  0  0  0  0
  7  9  1  0  0  0  0
 26 27  1  0  0  0  0
 26 28  1  0  0  0  0
 26 29  1  0  0  0  0
 24 25  1  0  0  0  0
 24 26  1  0  0  0  0
M  END
$$$$
default_name
  -OEChem-02102213163D

 29 29  0     1  0  0  0  0  0999 V2000
   -3.6042   -3.5728    1.4576 H   0  0  0  0  0  0  0  0  0  0  0  0
   -3.5202   -2.6488    0.8866 C   0  0  0  0  0  0  0  0  0  0  0  0
   -4.2052   -1.9048    1.2896 H   0  0  0  0  0  0  0  0  0  0  0  0
   -3.7552   -2.8428   -0.1584 H   0  0  0  0  0  0  0  0  0  0  0  0
   -2.1052   -2.1358    0.9946 C   0  0  0  0  0  0  0  0  0  0  0  0
   -1.2852   -2.7288    1.6826 O   0  0  0  0  0  0  0  0  0  0  0  0
   -1.8202   -1.0288    0.3146 N   0  0  0  0  0  0  0  0  0  0  0  0
   -2.5542   -0.5788   -0.2104 H   0  0  0  0  0  0  0  0  0  0  0  0
   -0.5102   -0.3728    0.3086 C   0  0  1  0  0  0  0  0  0  0  0  0
    0.2354   -1.0844   -0.0490 H   0  0  0  0  0  0  0  0  0  0  0  0
   -0.5452    0.8158   -0.6698 C   0  0  0  0  0  0  0  0  0  0  0  0
    0.1620    1.5762   -0.3337 H   0  0  0  0  0  0  0  0  0  0  0  0
   -0.2267    0.4740   -1.6563 H   0  0  0  0  0  0  0  0  0  0  0  0
   -1.9055    1.4506   -0.8001 C   0  0  0  0  0  0  0  0  0  0  0  0
   -3.1021    0.9084   -0.3827 N   0  0  0  0  0  0  0  0  0  0  0  0
   -3.2359   -0.0174   -0.0044 H   0  0  0  0  0  0  0  0  0  0  0  0
   -4.0635    1.8275   -0.5728 C   0  0  0  0  0  0  0  0  0  0  0  0
   -5.1136    1.6914   -0.3449 H   0  0  0  0  0  0  0  0  0  0  0  0
   -3.5383    2.9498   -1.0855 N   0  0  0  0  0  0  0  0  0  0  0  0
   -2.1683    2.7210   -1.2384 C   0  0  0  0  0  0  0  0  0  0  0  0
   -1.4385    3.4322   -1.6031 H   0  0  0  0  0  0  0  0  0  0  0  0
   -0.1073    0.0565    1.7296 C   0  0  0  0  0  0  0  0  0  0  0  0
    1.0285   -0.1699    2.1459 O   0  0  0  0  0  0  0  0  0  0  0  0
   -1.0395    0.6588    2.4785 N   0  0  0  0  0  0  0  0  0  0  0  0
   -1.9636    0.7597    2.0849 H   0  0  0  0  0  0  0  0  0  0  0  0
   -0.8222    1.1334    3.8425 C   0  0  0  0  0  0  0  0  0  0  0  0
   -0.0212    1.8761    3.8521 H   0  0  0  0  0  0  0  0  0  0  0  0
   -1.7349    1.5853    4.2320 H   0  0  0  0  0  0  0  0  0  0  0  0
   -0.5312    0.2997    4.4834 H   0  0  0  0  0  0  0  0  0  0  0  0
  5  6  2  0  0  0  0
  5  7  1  0  0  0  0
  2  3  1  0  0  0  0
  2  4  1  0  0  0  0
  2  5  1  0  0  0  0
  1  2  1  0  0  0  0
 22 23  2  0  0  0  0
 22 24  1  0  0  0  0
 20 21  1  0  0  0  0
 19 20  1  0  0  0  0
 17 18  1  0  0  0  0
 17 19  2  0  0  0  0
 15 16  1  0  0  0  0
 15 17  1  0  0  0  0
 14 15  1  0  0  0  0
 14 20  2  0  0  0  0
 11 12  1  0  0  0  0
 11 13  1  0  0  0  0
 11 14  1  0  0  0  0
  9 10  1  0  0  0  0
  9 11  1  0  0  0  0
  9 22  1  0  0  0  0
  7  8  1  0  0  0  0
  7  9  1  0  0  0  0
 26 27  1  0  0  0  0
 26 28  1  0  0  0  0
 26 29  1  0  0  0  0
 24 25  1  0  0  0  0
 24 26  1  0  0  0  0
M  END
$$$$
default_name
  -OEChem-02102213163D

 29 29  0     1  0  0  0  0  0999 V2000
   -3.6042   -3.5728    1.4576 H   0  0  0  0  0  0  0  0  0  0  0  0
   -3.5202   -2.6488    0.8866 C   0  0  0  0  0  0  0  0  0  0  0  0
   -4.2052   -1.9048    1.2896 H   0  0  0  0  0  0  0  0  0  0  0  0
   -3.7552   -2.8428   -0.1584 H   0  0  0  0  0  0  0  0  0  0  0  0
   -2.1052   -2.1358    0.9946 C   0  0  0  0  0  0  0  0  0  0  0  0
   -1.2852   -2.7288    1.6826 O   0  0  0  0  0  0  0  0  0  0  0  0
   -1.8202   -1.0288    0.3146 N   0  0  0  0  0  0  0  0  0  0  0  0
   -2.5542   -0.5788   -0.2104 H   0  0  0  0  0  0  0  0  0  0  0  0
   -0.5102   -0.3728    0.3086 C   0  0  1  0  0  0  0  0  0  0  0  0
    0.2354   -1.0844   -0.0490 H   0  0  0  0  0  0  0  0  0  0  0  0
   -0.5452    0.8158   -0.6698 C   0  0  0  0  0  0  0  0  0  0  0  0
    0.1620    1.5762   -0.3337 H   0  0  0  0  0  0  0  0  0  0  0  0
   -0.2267    0.4740   -1.6563 H   0  0  0  0  0  0  0  0  0  0  0  0
   -1.9055    1.4506   -0.8001 C   0  0  0  0  0  0  0  0  0  0  0  0
   -3.0530    1.0629   -0.1422 N   0  0  0  0  0  0  0  0  0  0  0  0
   -3.1525    0.2557    0.4551 H   0  0  0  0  0  0  0  0  0  0  0  0
   -4.0210    1.9461   -0.4395 C   0  0  0  0  0  0  0  0  0  0  0  0
   -5.0403    1.9038   -0.0756 H   0  0  0  0  0  0  0  0  0  0  0  0
   -3.5457    2.8992   -1.2544 N   0  0  0  0  0  0  0  0  0  0  0  0
   -2.2036    2.5929   -1.4941 C   0  0  0  0  0  0  0  0  0  0  0  0
   -1.5124    3.1736   -2.0911 H   0  0  0  0  0  0  0  0  0  0  0  0
   -0.1073    0.0565    1.7296 C   0  0  0  0  0  0  0  0  0  0  0  0
    1.0285   -0.1699    2.1459 O   0  0  0  0  0  0  0  0  0  0  0  0
   -1.0395    0.6588    2.4785 N   0  0  0  0  0  0  0  0  0  0  0  0
   -1.9636    0.7597    2.0849 H   0  0  0  0  0  0  0  0  0  0  0  0
   -0.8222    1.1334    3.8425 C   0  0  0  0  0  0  0  0  0  0  0  0
   -0.0212    1.8761    3.8521 H   0  0  0  0  0  0  0  0  0  0  0  0
   -1.7349    1.5853    4.2320 H   0  0  0  0  0  0  0  0  0  0  0  0
   -0.5312    0.2997    4.4834 H   0  0  0  0  0  0  0  0  0  0  0  0
  5  6  2  0  0  0  0
  5  7  1  0  0  0  0
  2  3  1  0  0  0  0
  2  4  1  0  0  0  0
  2  5  1  0  0  0  0
  1  2  1  0  0  0  0
 22 23  2  0  0  0  0
 22 24  1  0  0  0  0
 20 21  1  0  0  0  0
 19 20  1  0  0  0  0
 17 18  1  0  0  0  0
 17 19  2  0  0  0  0
 15 16  1  0  0  0  0
 15 17  1  0  0  0  0
 14 15  1  0  0  0  0
 14 20  2  0  0  0  0
 11 12  1  0  0  0  0
 11 13  1  0  0  0  0
 11 14  1  0  0  0  0
  9 10  1  0  0  0  0
  9 11  1  0  0  0  0
  9 22  1  0  0  0  0
  7  8  1  0  0  0  0
  7  9  1  0  0  0  0
 26 27  1  0  0  0  0
 26 28  1  0  0  0  0
 26 29  1  0  0  0  0
 24 25  1  0  0  0  0
 24 26  1  0  0  0  0
M  END
$$$$
default_name
  -OEChem-02102213163D

 29 29  0     1  0  0  0  0  0999 V2000
   -3.6042   -3.5728    1.4576 H   0  0  0  0  0  0  0  0  0  0  0  0
   -3.5202   -2.6488    0.8866 C   0  0  0  0  0  0  0  0  0  0  0  0
   -4.2052   -1.9048    1.2896 H   0  0  0  0  0  0  0  0  0  0  0  0
   -3.7552   -2.8428   -0.1584 H   0  0  0  0  0  0  0  0  0  0  0  0
   -2.1052   -2.1358    0.9946 C   0  0  0  0  0  0  0  0  0  0  0  0
   -1.2852   -2.7288    1.6826 O   0  0  0  0  0  0  0  0  0  0  0  0
   -1.8202   -1.0288    0.3146 N   0  0  0  0  0  0  0  0  0  0  0  0
   -2.5542   -0.5788   -0.2104 H   0  0  0  0  0  0  0  0  0  0  0  0
   -0.5102   -0.3728    0.3086 C   0  0  1  0  0  0  0  0  0  0  0  0
    0.2354   -1.0844   -0.0490 H   0  0  0  0  0  0  0  0  0  0  0  0
   -0.5452    0.8158   -0.6698 C   0  0  0  0  0  0  0  0  0  0  0  0
    0.1620    1.5762   -0.3337 H   0  0  0  0  0  0  0  0  0  0  0  0
   -0.2267    0.4740   -1.6563 H   0  0  0  0  0  0  0  0  0  0  0  0
   -1.9055    1.4506   -0.8001 C   0  0  0  0  0  0  0  0  0  0  0  0
   -2.9759    1.2672    0.0487 N   0  0  0  0  0  0  0  0  0  0  0  0
   -3.0157    0.6250    0.8260 H   0  0  0  0  0  0  0  0  0  0  0  0
   -3.9627    2.0908   -0.3431 C   0  0  0  0  0  0  0  0  0  0  0  0
   -4.9353    2.1703    0.1269 H   0  0  0  0  0  0  0  0  0  0  0  0
   -3.5725    2.8110   -1.4048 N   0  0  0  0  0  0  0  0  0  0  0  0
   -2.2685    2.4101   -1.7072 C   0  0  0  0  0  0  0  0  0  0  0  0
   -1.6429    2.8113   -2.4940 H   0  0  0  0  0  0  0  0  0  0  0  0
   -0.1073    0.0565    1.7296 C   0  0  0  0  0  0  0  0  0  0  0  0
    1.0285   -0.1699    2.1459 O   0  0  0  0  0  0  0  0  0  0  0  0
   -1.0395    0.6588    2.4785 N   0  0  0  0  0  0  0  0  0  0  0  0
   -1.9636    0.7597    2.0849 H   0  0  0  0  0  0  0  0  0  0  0  0
   -0.8222    1.1334    3.8425 C   0  0  0  0  0  0  0  0  0  0  0  0
   -0.0212    1.8761    3.8521 H   0  0  0  0  0  0  0  0  0  0  0  0
   -1.7349    1.5853    4.2320 H   0  0  0  0  0  0  0  0  0  0  0  0
   -0.5312    0.2997    4.4834 H   0  0  0  0  0  0  0  0  0  0  0  0
  5  6  2  0  0  0  0
  5  7  1  0  0  0  0
  2  3  1  0  0  0  0
  2  4  1  0  0  0  0
  2  5  1  0  0  0  0
  1  2  1  0  0  0  0
 22 23  2  0  0  0  0
 22 24  1  0  0  0  0
 20 21  1  0  0  0  0
 19 20  1  0  0  0  0
 17 18  1  0  0  0  0
 17 19  2  0  0  0  0
 15 16  1  0  0  0  0
 15 17  1  0  0  0  0
 14 15  1  0  0  0  0
 14 20  2  0  0  0  0
 11 12  1  0  0  0  0
 11 13  1  0  0  0  0
 11 14  1  0  0  0  0
  9 10  1  0  0  0  0
  9 11  1  0  0  0  0
  9 22  1  0  0  0  0
  7  8  1  0  0  0  0
  7  9  1  0  0  0  0
 26 27  1  0  0  0  0
 26 28  1  0  0  0  0
 26 29  1  0  0  0  0
 24 25  1  0  0  0  0
 24 26  1  0  0  0  0
M  END
$$$$
default_name
  -OEChem-02102213163D

 29 29  0     1  0  0  0  0  0999 V2000
   -3.6042   -3.5728    1.4576 H   0  0  0  0  0  0  0  0  0  0  0  0
   -3.5202   -2.6488    0.8866 C   0  0  0  0  0  0  0  0  0  0  0  0
   -4.2052   -1.9048    1.2896 H   0  0  0  0  0  0  0  0  0  0  0  0
   -3.7552   -2.8428   -0.1584 H   0  0  0  0  0  0  0  0  0  0  0  0
   -2.1052   -2.1358    0.9946 C   0  0  0  0  0  0  0  0  0  0  0  0
   -1.2852   -2.7288    1.6826 O   0  0  0  0  0  0  0  0  0  0  0  0
   -1.8202   -1.0288    0.3146 N   0  0  0  0  0  0  0  0  0  0  0  0
   -2.5542   -0.5788   -0.2104 H   0  0  0  0  0  0  0  0  0  0  0  0
   -0.5102   -0.3728    0.3086 C   0  0  1  0  0  0  0  0  0  0  0  0
    0.2354   -1.0844   -0.0490 H   0  0  0  0  0  0  0  0  0  0  0  0
   -0.5452    0.8158   -0.6698 C   0  0  0  0  0  0  0  0  0  0  0  0
    0.1620    1.5762   -0.3337 H   0  0  0  0  0  0  0  0  0  0  0  0
   -0.2267    0.4740   -1.6563 H   0  0  0  0  0  0  0  0  0  0  0  0
   -1.9055    1.4506   -0.8001 C   0  0  0  0  0  0  0  0  0  0  0  0
   -2.8761    1.5075    0.1769 N   0  0  0  0  0  0  0  0  0  0  0  0
   -2.8349    1.0653    1.0830 H   0  0  0  0  0  0  0  0  0  0  0  0
   -3.8927    2.2517   -0.2901 C   0  0  0  0  0  0  0  0  0  0  0  0
   -4.8059    2.4727    0.2488 H   0  0  0  0  0  0  0  0  0  0  0  0
   -3.6167    2.6912   -1.5266 N   0  0  0  0  0  0  0  0  0  0  0  0
   -2.3585    2.1852   -1.8633 C   0  0  0  0  0  0  0  0  0  0  0  0
   -1.8209    2.3702   -2.7843 H   0  0  0  0  0  0  0  0  0  0  0  0
   -0.1073    0.0565    1.7296 C   0  0  0  0  0  0  0  0  0  0  0  0
    1.0285   -0.1699    2.1459 O   0  0  0  0  0  0  0  0  0  0  0  0
   -1.0395    0.6588    2.4785 N   0  0  0  0  0  0  0  0  0  0  0  0
   -1.9636    0.7597    2.0849 H   0  0  0  0  0  0  0  0  0  0  0  0
   -0.8222    1.1334    3.8425 C   0  0  0  0  0  0  0  0  0  0  0  0
   -0.0212    1.8761    3.8521 H   0  0  0  0  0  0  0  0  0  0  0  0
   -1.7349    1.5853    4.2320 H   0  0  0  0  0  0  0  0  0  0  0  0
   -0.5312    0.2997    4.4834 H   0  0  0  0  0  0  0  0  0  0  0  0
  5  6  2  0  0  0  0
  5  7  1  0  0  0  0
  2  3  1  0  0  0  0
  2  4  1  0  0  0  0
  2  5  1  0  0  0  0
  1  2  1  0  0  0  0
 22 23  2  0  0  0  0
 22 24  1  0  0  0  0
 20 21  1  0  0  0  0
 19 20  1  0  0  0  0
 17 18  1  0  0  0  0
 17 19  2  0  0  0  0
 15 16  1  0  0  0  0
 15 17  1  0  0  0  0
 14 15  1  0  0  0  0
 14 20  2  0  0  0  0
 11 12  1  0  0  0  0
 11 13  1  0  0  0  0
 11 14  1  0  0  0  0
  9 10  1  0  0  0  0
  9 11  1  0  0  0  0
  9 22  1  0  0  0  0
  7  8  1  0  0  0  0
  7  9  1  0  0  0  0
 26 27  1  0  0  0  0
 26 28  1  0  0  0  0
 26 29  1  0  0  0  0
 24 25  1  0  0  0  0
 24 26  1  0  0  0  0
M  END
$$$$
default_name
  -OEChem-02102213163D

 29 29  0     1  0  0  0  0  0999 V2000
   -3.6042   -3.5728    1.4576 H   0  0  0  0  0  0  0  0  0  0  0  0
   -3.5202   -2.6488    0.8866 C   0  0  0  0  0  0  0  0  0  0  0  0
   -4.2052   -1.9048    1.2896 H   0  0  0  0  0  0  0  0  0  0  0  0
   -3.7552   -2.8428   -0.1584 H   0  0  0  0  0  0  0  0  0  0  0  0
   -2.1052   -2.1358    0.9946 C   0  0  0  0  0  0  0  0  0  0  0  0
   -1.2852   -2.7288    1.6826 O   0  0  0  0  0  0  0  0  0  0  0  0
   -1.8202   -1.0288    0.3146 N   0  0  0  0  0  0  0  0  0  0  0  0
   -2.5542   -0.5788   -0.2104 H   0  0  0  0  0  0  0  0  0  0  0  0
   -0.5102   -0.3728    0.3086 C   0  0  1  0  0  0  0  0  0  0  0  0
    0.2354   -1.0844   -0.0490 H   0  0  0  0  0  0  0  0  0  0  0  0
   -0.5452    0.8158   -0.6698 C   0  0  0  0  0  0  0  0  0  0  0  0
    0.1620    1.5762   -0.3337 H   0  0  0  0  0  0  0  0  0  0  0  0
   -0.2267    0.4740   -1.6563 H   0  0  0  0  0  0  0  0  0  0  0  0
   -1.9055    1.4506   -0.8001 C   0  0  0  0  0  0  0  0  0  0  0  0
   -2.7603    1.7673    0.2338 N   0  0  0  0  0  0  0  0  0  0  0  0
   -2.6223    1.5466    1.2087 H   0  0  0  0  0  0  0  0  0  0  0  0
   -3.8156    2.4181   -0.2841 C   0  0  0  0  0  0  0  0  0  0  0  0
   -4.6608    2.7903    0.2818 H   0  0  0  0  0  0  0  0  0  0  0  0
   -3.6754    2.5481   -1.6114 N   0  0  0  0  0  0  0  0  0  0  0  0
   -2.4675    1.9335   -1.9517 C   0  0  0  0  0  0  0  0  0  0  0  0
   -2.0344    1.8803   -2.9422 H   0  0  0  0  0  0  0  0  0  0  0  0
   -0.1073    0.0565    1.7296 C   0  0  0  0  0  0  0  0  0  0  0  0
    1.0285   -0.1699    2.1459 O   0  0  0  0  0  0  0  0  0  0  0  0
   -1.0395    0.6588    2.4785 N   0  0  0  0  0  0  0  0  0  0  0  0
   -1.9636    0.7597    2.0849 H   0  0  0  0  0  0  0  0  0  0  0  0
   -0.8222    1.1334    3.8425 C   0  0  0  0  0  0  0  0  0  0  0  0
   -0.0212    1.8761    3.8521 H   0  0  0  0  0  0  0  0  0  0  0  0
   -1.7349    1.5853    4.2320 H   0  0  0  0  0  0  0  0  0  0  0  0
   -0.5312    0.2997    4.4834 H   0  0  0  0  0  0  0  0  0  0  0  0
  5  6  2  0  0  0  0
  5  7  1  0  0  0  0
  2  3  1  0  0  0  0
  2  4  1  0  0  0  0
  2  5  1  0  0  0  0
  1  2  1  0  0  0  0
 22 23  2  0  0  0  0
 22 24  1  0  0  0  0
 20 21  1  0  0  0  0
 19 20  1  0  0  0  0
 17 18  1  0  0  0  0
 17 19  2  0  0  0  0
 15 16  1  0  0  0  0
 15 17  1  0  0  0  0
 14 15  1  0  0  0  0
 14 20  2  0  0  0  0
 11 12  1  0  0  0  0
 11 13  1  0  0  0  0
 11 14  1  0  0  0  0
  9 10  1  0  0  0  0
  9 11  1  0  0  0  0
  9 22  1  0  0  0  0
  7  8  1  0  0  0  0
  7  9  1  0  0  0  0
 26 27  1  0  0  0  0
 26 28  1  0  0  0  0
 26 29  1  0  0  0  0
 24 25  1  0  0  0  0
 24 26  1  0  0  0  0
M  END
$$$$
default_name
  -OEChem-02102213163D

 29 29  0     1  0  0  0  0  0999 V2000
   -3.6042   -3.5728    1.4576 H   0  0  0  0  0  0  0  0  0  0  0  0
   -3.5202   -2.6488    0.8866 C   0  0  0  0  0  0  0  0  0  0  0  0
   -4.2052   -1.9048    1.2896 H   0  0  0  0  0  0  0  0  0  0  0  0
   -3.7552   -2.8428   -0.1584 H   0  0  0  0  0  0  0  0  0  0  0  0
   -2.1052   -2.1358    0.9946 C   0  0  0  0  0  0  0  0  0  0  0  0
   -1.2852   -2.7288    1.6826 O   0  0  0  0  0  0  0  0  0  0  0  0
   -1.8202   -1.0288    0.3146 N   0  0  0  0  0  0  0  0  0  0  0  0
   -2.5542   -0.5788   -0.2104 H   0  0  0  0  0  0  0  0  0  0  0  0
   -0.5102   -0.3728    0.3086 C   0  0  1  0  0  0  0  0  0  0  0  0
    0.2354   -1.0844   -0.0490 H   0  0  0  0  0  0  0  0  0  0  0  0
   -0.5452    0.8158   -0.6698 C   0  0  0  0  0  0  0  0  0  0  0  0
    0.1620    1.5762   -0.3337 H   0  0  0  0  0  0  0  0  0  0  0  0
   -0.2267    0.4740   -1.6563 H   0  0  0  0  0  0  0  0  0  0  0  0
   -1.9055    1.4506   -0.8001 C   0  0  0  0  0  0  0  0  0  0  0  0
   -2.6365    2.0289    0.2153 N   0  0  0  0  0  0  0  0  0  0  0  0
   -2.3925    2.0362    1.1944 H   0  0  0  0  0  0  0  0  0  0  0  0
   -3.7368    2.5784   -0.3257 C   0  0  0  0  0  0  0  0  0  0  0  0
   -4.5100    3.1016    0.2236 H   0  0  0  0  0  0  0  0  0  0  0  0
   -3.7445    2.3913   -1.6535 N   0  0  0  0  0  0  0  0  0  0  0  0
   -2.5880    1.6722   -1.9665 C   0  0  0  0  0  0  0  0  0  0  0  0
   -2.2688    1.3749   -2.9570 H   0  0  0  0  0  0  0  0  0  0  0  0
   -0.1073    0.0565    1.7296 C   0  0  0  0  0  0  0  0  0  0  0  0
    1.0285   -0.1699    2.1459 O   0  0  0  0  0  0  0  0  0  0  0  0
   -1.0395    0.6588    2.4785 N   0  0  0  0  0  0  0  0  0  0  0  0
   -1.9636    0.7597    2.0849 H   0  0  0  0  0  0  0  0  0  0  0  0
   -0.8222    1.1334    3.8425 C   0  0  0  0  0  0  0  0  0  0  0  0
   -0.0212    1.8761    3.8521 H   0  0  0  0  0  0  0  0  0  0  0  0
   -1.7349    1.5853    4.2320 H   0  0  0  0  0  0  0  0  0  0  0  0
   -0.5312    0.2997    4.4834 H   0  0  0  0  0  0  0  0  0  0  0  0
  5  6  2  0  0  0  0
  5  7  1  0  0  0  0
  2  3  1  0  0  0  0
  2  4  1  0  0  0  0
  2  5  1  0  0  0  0
  1  2  1  0  0  0  0
 22 23  2  0  0  0  0
 22 24  1  0  0  0  0
 20 21  1  0  0  0  0
 19 20  1  0  0  0  0
 17 18  1  0  0  0  0
 17 19  2  0  0  0  0
 15 16  1  0  0  0  0
 15 17  1  0  0  0  0
 14 15  1  0  0  0  0
 14 20  2  0  0  0  0
 11 12  1  0  0  0  0
 11 13  1  0  0  0  0
 11 14  1  0  0  0  0
  9 10  1  0  0  0  0
  9 11  1  0  0  0  0
  9 22  1  0  0  0  0
  7  8  1  0  0  0  0
  7  9  1  0  0  0  0
 26 27  1  0  0  0  0
 26 28  1  0  0  0  0
 26 29  1  0  0  0  0
 24 25  1  0  0  0  0
 24 26  1  0  0  0  0
M  END
$$$$
default_name
  -OEChem-02102213163D

 29 29  0     1  0  0  0  0  0999 V2000
   -3.6042   -3.5728    1.4576 H   0  0  0  0  0  0  0  0  0  0  0  0
   -3.5202   -2.6488    0.8866 C   0  0  0  0  0  0  0  0  0  0  0  0
   -4.2052   -1.9048    1.2896 H   0  0  0  0  0  0  0  0  0  0  0  0
   -3.7552   -2.8428   -0.1584 H   0  0  0  0  0  0  0  0  0  0  0  0
   -2.1052   -2.1358    0.9946 C   0  0  0  0  0  0  0  0  0  0  0  0
   -1.2852   -2.7288    1.6826 O   0  0  0  0  0  0  0  0  0  0  0  0
   -1.8202   -1.0288    0.3146 N   0  0  0  0  0  0  0  0  0  0  0  0
   -2.5542   -0.5788   -0.2104 H   0  0  0  0  0  0  0  0  0  0  0  0
   -0.5102   -0.3728    0.3086 C   0  0  1  0  0  0  0  0  0  0  0  0
    0.2354   -1.0844   -0.0490 H   0  0  0  0  0  0  0  0  0  0  0  0
   -0.5452    0.8158   -0.6698 C   0  0  0  0  0  0  0  0  0  0  0  0
    0.1620    1.5762   -0.3337 H   0  0  0  0  0  0  0  0  0  0  0  0
   -0.2267    0.4740   -1.6563 H   0  0  0  0  0  0  0  0  0  0  0  0
   -1.9055    1.4506   -0.8001 C   0  0  0  0  0  0  0  0  0  0  0  0
   -2.5130    2.2745    0.1229 N   0  0  0  0  0  0  0  0  0  0  0  0
   -2.1611    2.5005    1.0412 H   0  0  0  0  0  0  0  0  0  0  0  0
   -3.6617    2.7218   -0.4118 C   0  0  0  0  0  0  0  0  0  0  0  0
   -4.3637    3.3853    0.0782 H   0  0  0  0  0  0  0  0  0  0  0  0
   -3.8194    2.2316   -1.6500 N   0  0  0  0  0  0  0  0  0  0  0  0
   -2.7119    1.4190   -1.9065 C   0  0  0  0  0  0  0  0  0  0  0  0
   -2.5081    0.8886   -2.8276 H   0  0  0  0  0  0  0  0  0  0  0  0
   -0.1073    0.0565    1.7296 C   0  0  0  0  0  0  0  0  0  0  0  0
    1.0285   -0.1699    2.1459 O   0  0  0  0  0  0  0  0  0  0  0  0
   -1.0395    0.6588    2.4785 N   0  0  0  0  0  0  0  0  0  0  0  0
   -1.9636    0.7597    2.0849 H   0  0  0  0  0  0  0  0  0  0  0  0
   -0.8222    1.1334    3.8425 C   0  0  0  0  0  0  0  0  0  0  0  0
   -0.0212    1.8761    3.8521 H   0  0  0  0  0  0  0  0  0  0  0  0
   -1.7349    1.5853    4.2320 H   0  0  0  0  0  0  0  0  0  0  0  0
   -0.5312    0.2997    4.4834 H   0  0  0  0  0  0  0  0  0  0  0  0
  5  6  2  0  0  0  0
  5  7  1  0  0  0  0
  2  3  1  0  0  0  0
  2  4  1  0  0  0  0
  2  5  1  0  0  0  0
  1  2  1  0  0  0  0
 22 23  2  0  0  0  0
 22 24  1  0  0  0  0
 20 21  1  0  0  0  0
 19 20  1  0  0  0  0
 17 18  1  0  0  0  0
 17 19  2  0  0  0  0
 15 16  1  0  0  0  0
 15 17  1  0  0  0  0
 14 15  1  0  0  0  0
 14 20  2  0  0  0  0
 11 12  1  0  0  0  0
 11 13  1  0  0  0  0
 11 14  1  0  0  0  0
  9 10  1  0  0  0  0
  9 11  1  0  0  0  0
  9 22  1  0  0  0  0
  7  8  1  0  0  0  0
  7  9  1  0  0  0  0
 26 27  1  0  0  0  0
 26 28  1  0  0  0  0
 26 29  1  0  0  0  0
 24 25  1  0  0  0  0
 24 26  1  0  0  0  0
M  END
$$$$
default_name
  -OEChem-02102213163D

 29 29  0     1  0  0  0  0  0999 V2000
   -3.6042   -3.5728    1.4576 H   0  0  0  0  0  0  0  0  0  0  0  0
   -3.5202   -2.6488    0.8866 C   0  0  0  0  0  0  0  0  0  0  0  0
   -4.2052   -1.9048    1.2896 H   0  0  0  0  0  0  0  0  0  0  0  0
   -3.7552   -2.8428   -0.1584 H   0  0  0  0  0  0  0  0  0  0  0  0
   -2.1052   -2.1358    0.9946 C   0  0  0  0  0  0  0  0  0  0  0  0
   -1.2852   -2.7288    1.6826 O   0  0  0  0  0  0  0  0  0  0  0  0
   -1.8202   -1.0288    0.3146 N   0  0  0  0  0  0  0  0  0  0  0  0
   -2.5542   -0.5788   -0.2104 H   0  0  0  0  0  0  0  0  0  0  0  0
   -0.5102   -0.3728    0.3086 C   0  0  1  0  0  0  0  0  0  0  0  0
    0.2354   -1.0844   -0.0490 H   0  0  0  0  0  0  0  0  0  0  0  0
   -0.5452    0.8158   -0.6698 C   0  0  0  0  0  0  0  0  0  0  0  0
    0.1620    1.5762   -0.3337 H   0  0  0  0  0  0  0  0  0  0  0  0
   -0.2267    0.4740   -1.6563 H   0  0  0  0  0  0  0  0  0  0  0  0
   -1.9055    1.4506   -0.8001 C   0  0  0  0  0  0  0  0  0  0  0  0
   -2.3983    2.4875   -0.0372 N   0  0  0  0  0  0  0  0  0  0  0  0
   -1.9440    2.9081    0.7595 H   0  0  0  0  0  0  0  0  0  0  0  0
   -3.5952    2.8385   -0.5368 C   0  0  0  0  0  0  0  0  0  0  0  0
   -4.2319    3.6221   -0.1445 H   0  0  0  0  0  0  0  0  0  0  0  0
   -3.8949    2.0798   -1.6012 N   0  0  0  0  0  0  0  0  0  0  0  0
   -2.8307    1.1913   -1.7759 C   0  0  0  0  0  0  0  0  0  0  0  0
   -2.7361    0.4544   -2.5630 H   0  0  0  0  0  0  0  0  0  0  0  0
   -0.1073    0.0565    1.7296 C   0  0  0  0  0  0  0  0  0  0  0  0
    1.0285   -0.1699    2.1459 O   0  0  0  0  0  0  0  0  0  0  0  0
   -1.0395    0.6588    2.4785 N   0  0  0  0  0  0  0  0  0  0  0  0
   -1.9636    0.7597    2.0849 H   0  0  0  0  0  0  0  0  0  0  0  0
   -0.8222    1.1334    3.8425 C   0  0  0  0  0  0  0  0  0  0  0  0
   -0.0212    1.8761    3.8521 H   0  0  0  0  0  0  0  0  0  0  0  0
   -1.7349    1.5853    4.2320 H   0  0  0  0  0  0  0  0  0  0  0  0
   -0.5312    0.2997    4.4834 H   0  0  0  0  0  0  0  0  0  0  0  0
  5  6  2  0  0  0  0
  5  7  1  0  0  0  0
  2  3  1  0  0  0  0
  2  4  1  0  0  0  0
  2  5  1  0  0  0  0
  1  2  1  0  0  0  0
 22 23  2  0  0  0  0
 22 24  1  0  0  0  0
 20 21  1  0  0  0  0
 19 20  1  0  0  0  0
 17 18  1  0  0  0  0
 17 19  2  0  0  0  0
 15 16  1  0  0  0  0
 15 17  1  0  0  0  0
 14 15  1  0  0  0  0
 14 20  2  0  0  0  0
 11 12  1  0  0  0  0
 11 13  1  0  0  0  0
 11 14  1  0  0  0  0
  9 10  1  0  0  0  0
  9 11  1  0  0  0  0
  9 22  1  0  0  0  0
  7  8  1  0  0  0  0
  7  9  1  0  0  0  0
 26 27  1  0  0  0  0
 26 28  1  0  0  0  0
 26 29  1  0  0  0  0
 24 25  1  0  0  0  0
 24 26  1  0  0  0  0
M  END
$$$$
default_name
  -OEChem-02102213163D

 29 29  0     1  0  0  0  0  0999 V2000
   -3.6042   -3.5728    1.4576 H   0  0  0  0  0  0  0  0  0  0  0  0
   -3.5202   -2.6488    0.8866 C   0  0  0  0  0  0  0  0  0  0  0  0
   -4.2052   -1.9048    1.2896 H   0  0  0  0  0  0  0  0  0  0  0  0
   -3.7552   -2.8428   -0.1584 H   0  0  0  0  0  0  0  0  0  0  0  0
   -2.1052   -2.1358    0.9946 C   0  0  0  0  0  0  0  0  0  0  0  0
   -1.2852   -2.7288    1.6826 O   0  0  0  0  0  0  0  0  0  0  0  0
   -1.8202   -1.0288    0.3146 N   0  0  0  0  0  0  0  0  0  0  0  0
   -2.5542   -0.5788   -0.2104 H   0  0  0  0  0  0  0  0  0  0  0  0
   -0.5102   -0.3728    0.3086 C   0  0  1  0  0  0  0  0  0  0  0  0
    0.2354   -1.0844   -0.0490 H   0  0  0  0  0  0  0  0  0  0  0  0
   -0.5452    0.8158   -0.6698 C   0  0  0  0  0  0  0  0  0  0  0  0
    0.1620    1.5762   -0.3337 H   0  0  0  0  0  0  0  0  0  0  0  0
   -0.2267    0.4740   -1.6563 H   0  0  0  0  0  0  0  0  0  0  0  0
   -1.9055    1.4506   -0.8001 C   0  0  0  0  0  0  0  0  0  0  0  0
   -2.3002    2.6531   -0.2542 N   0  0  0  0  0  0  0  0  0  0  0  0
   -1.7558    3.2311    0.3685 H   0  0  0  0  0  0  0  0  0  0  0  0
   -3.5421    2.9205   -0.6919 C   0  0  0  0  0  0  0  0  0  0  0  0
   -4.1235    3.7958   -0.4293 H   0  0  0  0  0  0  0  0  0  0  0  0
   -3.9659    1.9463   -1.5103 N   0  0  0  0  0  0  0  0  0  0  0  0
   -2.9363    1.0045   -1.5835 C   0  0  0  0  0  0  0  0  0  0  0  0
   -2.9371    0.1020   -2.1810 H   0  0  0  0  0  0  0  0  0  0  0  0
   -0.1073    0.0565    1.7296 C   0  0  0  0  0  0  0  0  0  0  0  0
    1.0285   -0.1699    2.1459 O   0  0  0  0  0  0  0  0  0  0  0  0
   -1.0395    0.6588    2.4785 N   0  0  0  0  0  0  0  0  0  0  0  0
   -1.9636    0.7597    2.0849 H   0  0  0  0  0  0  0  0  0  0  0  0
   -0.8222    1.1334    3.8425 C   0  0  0  0  0  0  0  0  0  0  0  0
   -0.0212    1.8761    3.8521 H   0  0  0  0  0  0  0  0  0  0  0  0
   -1.7349    1.5853    4.2320 H   0  0  0  0  0  0  0  0  0  0  0  0
   -0.5312    0.2997    4.4834 H   0  0  0  0  0  0  0  0  0  0  0  0
  5  6  2  0  0  0  0
  5  7  1  0  0  0  0
  2  3  1  0  0  0  0
  2  4  1  0  0  0  0
  2  5  1  0  0  0  0
  1  2  1  0  0  0  0
 22 23  2  0  0  0  0
 22 24  1  0  0  0  0
 20 21  1  0  0  0  0
 19 20  1  0  0  0  0
 17 18  1  0  0  0  0
 17 19  2  0  0  0  0
 15 16  1  0  0  0  0
 15 17  1  0  0  0  0
 14 15  1  0  0  0  0
 14 20  2  0  0  0  0
 11 12  1  0  0  0  0
 11 13  1  0  0  0  0
 11 14  1  0  0  0  0
  9 10  1  0  0  0  0
  9 11  1  0  0  0  0
  9 22  1  0  0  0  0
  7  8  1  0  0  0  0
  7  9  1  0  0  0  0
 26 27  1  0  0  0  0
 26 28  1  0  0  0  0
 26 29  1  0  0  0  0
 24 25  1  0  0  0  0
 24 26  1  0  0  0  0
M  END
$$$$
default_name
  -OEChem-02102213163D

 29 29  0     1  0  0  0  0  0999 V2000
   -3.6042   -3.5728    1.4576 H   0  0  0  0  0  0  0  0  0  0  0  0
   -3.5202   -2.6488    0.8866 C   0  0  0  0  0  0  0  0  0  0  0  0
   -4.2052   -1.9048    1.2896 H   0  0  0  0  0  0  0  0  0  0  0  0
   -3.7552   -2.8428   -0.1584 H   0  0  0  0  0  0  0  0  0  0  0  0
   -2.1052   -2.1358    0.9946 C   0  0  0  0  0  0  0  0  0  0  0  0
   -1.2852   -2.7288    1.6826 O   0  0  0  0  0  0  0  0  0  0  0  0
   -1.8202   -1.0288    0.3146 N   0  0  0  0  0  0  0  0  0  0  0  0
   -2.5542   -0.5788   -0.2104 H   0  0  0  0  0  0  0  0  0  0  0  0
   -0.5102   -0.3728    0.3086 C   0  0  1  0  0  0  0  0  0  0  0  0
    0.2354   -1.0844   -0.0490 H   0  0  0  0  0  0  0  0  0  0  0  0
   -0.5452    0.8158   -0.6698 C   0  0  0  0  0  0  0  0  0  0  0  0
    0.1620    1.5762   -0.3337 H   0  0  0  0  0  0  0  0  0  0  0  0
   -0.2267    0.4740   -1.6563 H   0  0  0  0  0  0  0  0  0  0  0  0
   -1.9055    1.4506   -0.8001 C   0  0  0  0  0  0  0  0  0  0  0  0
   -2.2254    2.7603   -0.5131 N   0  0  0  0  0  0  0  0  0  0  0  0
   -1.6094    3.4475   -0.1052 H   0  0  0  0  0  0  0  0  0  0  0  0
   -3.5058    2.9623   -0.8668 C   0  0  0  0  0  0  0  0  0  0  0  0
   -4.0460    3.8947   -0.7569 H   0  0  0  0  0  0  0  0  0  0  0  0
   -4.0275    1.8402   -1.3835 N   0  0  0  0  0  0  0  0  0  0  0  0
   -3.0215    0.8713   -1.3426 C   0  0  0  0  0  0  0  0  0  0  0  0
   -3.0975   -0.1447   -1.7078 H   0  0  0  0  0  0  0  0  0  0  0  0
   -0.1073    0.0565    1.7296 C   0  0  0  0  0  0  0  0  0  0  0  0
    1.0285   -0.1699    2.1459 O   0  0  0  0  0  0  0  0  0  0  0  0
   -1.0395    0.6588    2.4785 N   0  0  0  0  0  0  0  0  0  0  0  0
   -1.9636    0.7597    2.0849 H   0  0  0  0  0  0  0  0  0  0  0  0
   -0.8222    1.1334    3.8425 C   0  0  0  0  0  0  0  0  0  0  0  0
   -0.0212    1.8761    3.8521 H   0  0  0  0  0  0  0  0  0  0  0  0
   -1.7349    1.5853    4.2320 H   0  0  0  0  0  0  0  0  0  0  0  0
   -0.5312    0.2997    4.4834 H   0  0  0  0  0  0  0  0  0  0  0  0
  5  6  2  0  0  0  0
  5  7  1  0  0  0  0
  2  3  1  0  0  0  0
  2  4  1  0  0  0  0
  2  5  1  0  0  0  0
  1  2  1  0  0  0  0
 22 23  2  0  0  0  0
 22 24  1  0  0  0  0
 20 21  1  0  0  0  0
 19 20  1  0  0  0  0
 17 18  1  0  0  0  0
 17 19  2  0  0  0  0
 15 16  1  0  0  0  0
 15 17  1  0  0  0  0
 14 15  1  0  0  0  0
 14 20  2  0  0  0  0
 11 12  1  0  0  0  0
 11 13  1  0  0  0  0
 11 14  1  0  0  0  0
  9 10  1  0  0  0  0
  9 11  1  0  0  0  0
  9 22  1  0  0  0  0
  7  8  1  0  0  0  0
  7  9  1  0  0  0  0
 26 27  1  0  0  0  0
 26 28  1  0  0  0  0
 26 29  1  0  0  0  0
 24 25  1  0  0  0  0
 24 26  1  0  0  0  0
M  END
$$$$
default_name
  -OEChem-02102213163D

 29 29  0     1  0  0  0  0  0999 V2000
   -3.6042   -3.5728    1.4576 H   0  0  0  0  0  0  0  0  0  0  0  0
   -3.5202   -2.6488    0.8866 C   0  0  0  0  0  0  0  0  0  0  0  0
   -4.2052   -1.9048    1.2896 H   0  0  0  0  0  0  0  0  0  0  0  0
   -3.7552   -2.8428   -0.1584 H   0  0  0  0  0  0  0  0  0  0  0  0
   -2.1052   -2.1358    0.9946 C   0  0  0  0  0  0  0  0  0  0  0  0
   -1.2852   -2.7288    1.6826 O   0  0  0  0  0  0  0  0  0  0  0  0
   -1.8202   -1.0288    0.3146 N   0  0  0  0  0  0  0  0  0  0  0  0
   -2.5542   -0.5788   -0.2104 H   0  0  0  0  0  0  0  0  0  0  0  0
   -0.5102   -0.3728    0.3086 C   0  0  1  0  0  0  0  0  0  0  0  0
    0.2354   -1.0844   -0.0490 H   0  0  0  0  0  0  0  0  0  0  0  0
   -0.5452    0.8158   -0.6698 C   0  0  0  0  0  0  0  0  0  0  0  0
    0.1620    1.5762   -0.3337 H   0  0  0  0  0  0  0  0  0  0  0  0
   -0.2267    0.4740   -1.6563 H   0  0  0  0  0  0  0  0  0  0  0  0
   -1.9055    1.4506   -0.8001 C   0  0  0  0  0  0  0  0  0  0  0  0
   -2.1790    2.8016   -0.7965 N   0  0  0  0  0  0  0  0  0  0  0  0
   -1.5149    3.5426   -0.6293 H   0  0  0  0  0  0  0  0  0  0  0  0
   -3.4890    2.9610   -1.0494 C   0  0  0  0  0  0  0  0  0  0  0  0
   -4.0047    3.9119   -1.1048 H   0  0  0  0  0  0  0  0  0  0  0  0
   -4.0757    1.7687   -1.2296 N   0  0  0  0  0  0  0  0  0  0  0  0
   -3.0805    0.8009   -1.0695 C   0  0  0  0  0  0  0  0  0  0  0  0
   -3.2064   -0.2688   -1.1755 H   0  0  0  0  0  0  0  0  0  0  0  0
   -0.1073    0.0565    1.7296 C   0  0  0  0  0  0  0  0  0  0  0  0
    1.0285   -0.1699    2.1459 O   0  0  0  0  0  0  0  0  0  0  0  0
   -1.0395    0.6588    2.4785 N   0  0  0  0  0  0  0  0  0  0  0  0
   -1.9636    0.7597    2.0849 H   0  0  0  0  0  0  0  0  0  0  0  0
   -0.8222    1.1334    3.8425 C   0  0  0  0  0  0  0  0  0  0  0  0
   -0.0212    1.8761    3.8521 H   0  0  0  0  0  0  0  0  0  0  0  0
   -1.7349    1.5853    4.2320 H   0  0  0  0  0  0  0  0  0  0  0  0
   -0.5312    0.2997    4.4834 H   0  0  0  0  0  0  0  0  0  0  0  0
  5  6  2  0  0  0  0
  5  7  1  0  0  0  0
  2  3  1  0  0  0  0
  2  4  1  0  0  0  0
  2  5  1  0  0  0  0
  1  2  1  0  0  0  0
 22 23  2  0  0  0  0
 22 24  1  0  0  0  0
 20 21  1  0  0  0  0
 19 20  1  0  0  0  0
 17 18  1  0  0  0  0
 17 19  2  0  0  0  0
 15 16  1  0  0  0  0
 15 17  1  0  0  0  0
 14 15  1  0  0  0  0
 14 20  2  0  0  0  0
 11 12  1  0  0  0  0
 11 13  1  0  0  0  0
 11 14  1  0  0  0  0
  9 10  1  0  0  0  0
  9 11  1  0  0  0  0
  9 22  1  0  0  0  0
  7  8  1  0  0  0  0
  7  9  1  0  0  0  0
 26 27  1  0  0  0  0
 26 28  1  0  0  0  0
 26 29  1  0  0  0  0
 24 25  1  0  0  0  0
 24 26  1  0  0  0  0
M  END
$$$$
default_name
  -OEChem-02102213163D

 29 29  0     1  0  0  0  0  0999 V2000
   -3.6042   -3.5728    1.4576 H   0  0  0  0  0  0  0  0  0  0  0  0
   -3.5202   -2.6488    0.8866 C   0  0  0  0  0  0  0  0  0  0  0  0
   -4.2052   -1.9048    1.2896 H   0  0  0  0  0  0  0  0  0  0  0  0
   -3.7552   -2.8428   -0.1584 H   0  0  0  0  0  0  0  0  0  0  0  0
   -2.1052   -2.1358    0.9946 C   0  0  0  0  0  0  0  0  0  0  0  0
   -1.2852   -2.7288    1.6826 O   0  0  0  0  0  0  0  0  0  0  0  0
   -1.8202   -1.0288    0.3146 N   0  0  0  0  0  0  0  0  0  0  0  0
   -2.5542   -0.5788   -0.2104 H   0  0  0  0  0  0  0  0  0  0  0  0
   -0.5102   -0.3728    0.3086 C   0  0  1  0  0  0  0  0  0  0  0  0
    0.2354   -1.0844   -0.0490 H   0  0  0  0  0  0  0  0  0  0  0  0
   -0.5452    0.8158   -0.6698 C   0  0  0  0  0  0  0  0  0  0  0  0
    0.1620    1.5762   -0.3337 H   0  0  0  0  0  0  0  0  0  0  0  0
   -0.2267    0.4740   -1.6563 H   0  0  0  0  0  0  0  0  0  0  0  0
   -1.9055    1.4506   -0.8001 C   0  0  0  0  0  0  0  0  0  0  0  0
   -2.1641    2.7742   -1.0848 N   0  0  0  0  0  0  0  0  0  0  0  0
   -1.4785    3.5099   -1.1681 H   0  0  0  0  0  0  0  0  0  0  0  0
   -3.4926    2.9167   -1.2274 C   0  0  0  0  0  0  0  0  0  0  0  0
   -4.0023    3.8463   -1.4493 H   0  0  0  0  0  0  0  0  0  0  0  0
   -4.1070    1.7366   -1.0589 N   0  0  0  0  0  0  0  0  0  0  0  0
   -3.1093    0.7980   -0.7828 C   0  0  0  0  0  0  0  0  0  0  0  0
   -3.2564   -0.2619   -0.6206 H   0  0  0  0  0  0  0  0  0  0  0  0
   -0.1073    0.0565    1.7296 C   0  0  0  0  0  0  0  0  0  0  0  0
    1.0285   -0.1699    2.1459 O   0  0  0  0  0  0  0  0  0  0  0  0
   -1.0395    0.6588    2.4785 N   0  0  0  0  0  0  0  0  0  0  0  0
   -1.9636    0.7597    2.0849 H   0  0  0  0  0  0  0  0  0  0  0  0
   -0.8222    1.1334    3.8425 C   0  0  0  0  0  0  0  0  0  0  0  0
   -0.0212    1.8761    3.8521 H   0  0  0  0  0  0  0  0  0  0  0  0
   -1.7349    1.5853    4.2320 H   0  0  0  0  0  0  0  0  0  0  0  0
   -0.5312    0.2997    4.4834 H   0  0  0  0  0  0  0  0  0  0  0  0
  5  6  2  0  0  0  0
  5  7  1  0  0  0  0
  2  3  1  0  0  0  0
  2  4  1  0  0  0  0
  2  5  1  0  0  0  0
  1  2  1  0  0  0  0
 22 23  2  0  0  0  0
 22 24  1  0  0  0  0
 20 21  1  0  0  0  0
 19 20  1  0  0  0  0
 17 18  1  0  0  0  0
 17 19  2  0  0  0  0
 15 16  1  0  0  0  0
 15 17  1  0  0  0  0
 14 15  1  0  0  0  0
 14 20  2  0  0  0  0
 11 12  1  0  0  0  0
 11 13  1  0  0  0  0
 11 14  1  0  0  0  0
  9 10  1  0  0  0  0
  9 11  1  0  0  0  0
  9 22  1  0  0  0  0
  7  8  1  0  0  0  0
  7  9  1  0  0  0  0
 26 27  1  0  0  0  0
 26 28  1  0  0  0  0
 26 29  1  0  0  0  0
 24 25  1  0  0  0  0
 24 26  1  0  0  0  0
M  END
$$$$
default_name
  -OEChem-02102213163D

 29 29  0     1  0  0  0  0  0999 V2000
   -3.6042   -3.5728    1.4576 H   0  0  0  0  0  0  0  0  0  0  0  0
   -3.5202   -2.6488    0.8866 C   0  0  0  0  0  0  0  0  0  0  0  0
   -4.2052   -1.9048    1.2896 H   0  0  0  0  0  0  0  0  0  0  0  0
   -3.7552   -2.8428   -0.1584 H   0  0  0  0  0  0  0  0  0  0  0  0
   -2.1052   -2.1358    0.9946 C   0  0  0  0  0  0  0  0  0  0  0  0
   -1.2852   -2.7288    1.6826 O   0  0  0  0  0  0  0  0  0  0  0  0
   -1.8202   -1.0288    0.3146 N   0  0  0  0  0  0  0  0  0  0  0  0
   -2.5542   -0.5788   -0.2104 H   0  0  0  0  0  0  0  0  0  0  0  0
   -0.5102   -0.3728    0.3086 C   0  0  1  0  0  0  0  0  0  0  0  0
    0.2354   -1.0844   -0.0490 H   0  0  0  0  0  0  0  0  0  0  0  0
   -0.5452    0.8158   -0.6698 C   0  0  0  0  0  0  0  0  0  0  0  0
    0.1620    1.5762   -0.3337 H   0  0  0  0  0  0  0  0  0  0  0  0
   -0.2267    0.4740   -1.6563 H   0  0  0  0  0  0  0  0  0  0  0  0
   -1.9055    1.4506   -0.8001 C   0  0  0  0  0  0  0  0  0  0  0  0
   -2.1818    2.6801   -1.3586 N   0  0  0  0  0  0  0  0  0  0  0  0
   -1.5029    3.3515   -1.6848 H   0  0  0  0  0  0  0  0  0  0  0  0
   -3.5165    2.8324   -1.3885 C   0  0  0  0  0  0  0  0  0  0  0  0
   -4.0390    3.7024   -1.7671 H   0  0  0  0  0  0  0  0  0  0  0  0
   -4.1193    1.7463   -0.8832 N   0  0  0  0  0  0  0  0  0  0  0  0
   -3.1059    0.8629   -0.5020 C   0  0  0  0  0  0  0  0  0  0  0  0
   -3.2440   -0.1244   -0.0807 H   0  0  0  0  0  0  0  0  0  0  0  0
   -0.1073    0.0565    1.7296 C   0  0  0  0  0  0  0  0  0  0  0  0
    1.0285   -0.1699    2.1459 O   0  0  0  0  0  0  0  0  0  0  0  0
   -1.0395    0.6588    2.4785 N   0  0  0  0  0  0  0  0  0  0  0  0
   -1.9636    0.7597    2.0849 H   0  0  0  0  0  0  0  0  0  0  0  0
   -0.8222    1.1334    3.8425 C   0  0  0  0  0  0  0  0  0  0  0  0
   -0.0212    1.8761    3.8521 H   0  0  0  0  0  0  0  0  0  0  0  0
   -1.7349    1.5853    4.2320 H   0  0  0  0  0  0  0  0  0  0  0  0
   -0.5312    0.2997    4.4834 H   0  0  0  0  0  0  0  0  0  0  0  0
  5  6  2  0  0  0  0
  5  7  1  0  0  0  0
  2  3  1  0  0  0  0
  2  4  1  0  0  0  0
  2  5  1  0  0  0  0
  1  2  1  0  0  0  0
 22 23  2  0  0  0  0
 22 24  1  0  0  0  0
 20 21  1  0  0  0  0
 19 20  1  0  0  0  0
 17 18  1  0  0  0  0
 17 19  2  0  0  0  0
 15 16  1  0  0  0  0
 15 17  1  0  0  0  0
 14 15  1  0  0  0  0
 14 20  2  0  0  0  0
 11 12  1  0  0  0  0
 11 13  1  0  0  0  0
 11 14  1  0  0  0  0
  9 10  1  0  0  0  0
  9 11  1  0  0  0  0
  9 22  1  0  0  0  0
  7  8  1  0  0  0  0
  7  9  1  0  0  0  0
 26 27  1  0  0  0  0
 26 28  1  0  0  0  0
 26 29  1  0  0  0  0
 24 25  1  0  0  0  0
 24 26  1  0  0  0  0
M  END
$$$$
default_name
  -OEChem-02102213163D

 29 29  0     1  0  0  0  0  0999 V2000
   -3.6042   -3.5728    1.4576 H   0  0  0  0  0  0  0  0  0  0  0  0
   -3.5202   -2.6488    0.8866 C   0  0  0  0  0  0  0  0  0  0  0  0
   -4.2052   -1.9048    1.2896 H   0  0  0  0  0  0  0  0  0  0  0  0
   -3.7552   -2.8428   -0.1584 H   0  0  0  0  0  0  0  0  0  0  0  0
   -2.1052   -2.1358    0.9946 C   0  0  0  0  0  0  0  0  0  0  0  0
   -1.2852   -2.7288    1.6826 O   0  0  0  0  0  0  0  0  0  0  0  0
   -1.8202   -1.0288    0.3146 N   0  0  0  0  0  0  0  0  0  0  0  0
   -2.5542   -0.5788   -0.2104 H   0  0  0  0  0  0  0  0  0  0  0  0
   -0.5102   -0.3728    0.3086 C   0  0  1  0  0  0  0  0  0  0  0  0
    0.2354   -1.0844   -0.0490 H   0  0  0  0  0  0  0  0  0  0  0  0
   -0.5452    0.8158   -0.6698 C   0  0  0  0  0  0  0  0  0  0  0  0
    0.3298    1.4454   -0.4986 H   0  0  0  0  0  0  0  0  0  0  0  0
   -0.4911    0.4368   -1.6920 H   0  0  0  0  0  0  0  0  0  0  0  0
   -1.7812    1.6677   -0.5407 C   0  0  0  0  0  0  0  0  0  0  0  0
   -2.0795    2.7903   -1.2830 N   0  0  0  0  0  0  0  0  0  0  0  0
   -1.4754    3.2351   -1.9579 H   0  0  0  0  0  0  0  0  0  0  0  0
   -3.3160    3.1944   -0.9467 C   0  0  0  0  0  0  0  0  0  0  0  0
   -3.8264    4.0566   -1.3582 H   0  0  0  0  0  0  0  0  0  0  0  0
   -3.8385    2.3725   -0.0248 N   0  0  0  0  0  0  0  0  0  0  0  0
   -2.8711    1.4009    0.2443 C   0  0  0  0  0  0  0  0  0  0  0  0
   -2.9766    0.5652    0.9239 H   0  0  0  0  0  0  0  0  0  0  0  0
   -0.1073    0.0565    1.7296 C   0  0  0  0  0  0  0  0  0  0  0  0
    1.0285   -0.1699    2.1459 O   0  0  0  0  0  0  0  0  0  0  0  0
   -1.0395    0.6588    2.4785 N   0  0  0  0  0  0  0  0  0  0  0  0
   -1.9636    0.7597    2.0849 H   0  0  0  0  0  0  0  0  0  0  0  0
   -0.8222    1.1334    3.8425 C   0  0  0  0  0  0  0  0  0  0  0  0
   -0.0212    1.8761    3.8521 H   0  0  0  0  0  0  0  0  0  0  0  0
   -1.7349    1.5853    4.2320 H   0  0  0  0  0  0  0  0  0  0  0  0
   -0.5312    0.2997    4.4834 H   0  0  0  0  0  0  0  0  0  0  0  0
  5  6  2  0  0  0  0
  5  7  1  0  0  0  0
  2  3  1  0  0  0  0
  2  4  1  0  0  0  0
  2  5  1  0  0  0  0
  1  2  1  0  0  0  0
 22 23  2  0  0  0  0
 22 24  1  0  0  0  0
 20 21  1  0  0  0  0
 19 20  1  0  0  0  0
 17 18  1  0  0  0  0
 17 19  2  0  0  0  0
 15 16  1  0  0  0  0
 15 17  1  0  0  0  0
 14 15  1  0  0  0  0
 14 20  2  0  0  0  0
 11 12  1  0  0  0  0
 11 13  1  0  0  0  0
 11 14  1  0  0  0  0
  9 10  1  0  0  0  0
  9 11  1  0  0  0  0
  9 22  1  0  0  0  0
  7  8  1  0  0  0  0
  7  9  1  0  0  0  0
 26 27  1  0  0  0  0
 26 28  1  0  0  0  0
 26 29  1  0  0  0  0
 24 25  1  0  0  0  0
 24 26  1  0  0  0  0
M  END
$$$$
default_name
  -OEChem-02102213163D

 29 29  0     1  0  0  0  0  0999 V2000
   -3.6042   -3.5728    1.4576 H   0  0  0  0  0  0  0  0  0  0  0  0
   -3.5202   -2.6488    0.8866 C   0  0  0  0  0  0  0  0  0  0  0  0
   -4.2052   -1.9048    1.2896 H   0  0  0  0  0  0  0  0  0  0  0  0
   -3.7552   -2.8428   -0.1584 H   0  0  0  0  0  0  0  0  0  0  0  0
   -2.1052   -2.1358    0.9946 C   0  0  0  0  0  0  0  0  0  0  0  0
   -1.2852   -2.7288    1.6826 O   0  0  0  0  0  0  0  0  0  0  0  0
   -1.8202   -1.0288    0.3146 N   0  0  0  0  0  0  0  0  0  0  0  0
   -2.5542   -0.5788   -0.2104 H   0  0  0  0  0  0  0  0  0  0  0  0
   -0.5102   -0.3728    0.3086 C   0  0  1  0  0  0  0  0  0  0  0  0
    0.2354   -1.0844   -0.0490 H   0  0  0  0  0  0  0  0  0  0  0  0
   -0.5452    0.8158   -0.6698 C   0  0  0  0  0  0  0  0  0  0  0  0
    0.3298    1.4454   -0.4986 H   0  0  0  0  0  0  0  0  0  0  0  0
   -0.4911    0.4368   -1.6920 H   0  0  0  0  0  0  0  0  0  0  0  0
   -1.7812    1.6677   -0.5407 C   0  0  0  0  0  0  0  0  0  0  0  0
   -2.2256    2.6036   -1.4500 N   0  0  0  0  0  0  0  0  0  0  0  0
   -1.7424    2.8974   -2.2856 H   0  0  0  0  0  0  0  0  0  0  0  0
   -3.4153    3.0623   -1.0263 C   0  0  0  0  0  0  0  0  0  0  0  0
   -4.0120    3.8133   -1.5296 H   0  0  0  0  0  0  0  0  0  0  0  0
   -3.7681    2.4535    0.1152 N   0  0  0  0  0  0  0  0  0  0  0  0
   -2.7358    1.5681    0.4361 C   0  0  0  0  0  0  0  0  0  0  0  0
   -2.7105    0.8965    1.2845 H   0  0  0  0  0  0  0  0  0  0  0  0
   -0.1073    0.0565    1.7296 C   0  0  0  0  0  0  0  0  0  0  0  0
    1.0285   -0.1699    2.1459 O   0  0  0  0  0  0  0  0  0  0  0  0
   -1.0395    0.6588    2.4785 N   0  0  0  0  0  0  0  0  0  0  0  0
   -1.9636    0.7597    2.0849 H   0  0  0  0  0  0  0  0  0  0  0  0
   -0.8222    1.1334    3.8425 C   0  0  0  0  0  0  0  0  0  0  0  0
   -0.0212    1.8761    3.8521 H   0  0  0  0  0  0  0  0  0  0  0  0
   -1.7349    1.5853    4.2320 H   0  0  0  0  0  0  0  0  0  0  0  0
   -0.5312    0.2997    4.4834 H   0  0  0  0  0  0  0  0  0  0  0  0
  5  6  2  0  0  0  0
  5  7  1  0  0  0  0
  2  3  1  0  0  0  0
  2  4  1  0  0  0  0
  2  5  1  0  0  0  0
  1  2  1  0  0  0  0
 22 23  2  0  0  0  0
 22 24  1  0  0  0  0
 20 21  1  0  0  0  0
 19 20  1  0  0  0  0
 17 18  1  0  0  0  0
 17 19  2  0  0  0  0
 15 16  1  0  0  0  0
 15 17  1  0  0  0  0
 14 15  1  0  0  0  0
 14 20  2  0  0  0  0
 11 12  1  0  0  0  0
 11 13  1  0  0  0  0
 11 14  1  0  0  0  0
  9 10  1  0  0  0  0
  9 11  1  0  0  0  0
  9 22  1  0  0  0  0
  7  8  1  0  0  0  0
  7  9  1  0  0  0  0
 26 27  1  0  0  0  0
 26 28  1  0  0  0  0
 26 29  1  0  0  0  0
 24 25  1  0  0  0  0
 24 26  1  0  0  0  0
M  END
$$$$
default_name
  -OEChem-02102213163D

 29 29  0     1  0  0  0  0  0999 V2000
   -3.6042   -3.5728    1.4576 H   0  0  0  0  0  0  0  0  0  0  0  0
   -3.5202   -2.6488    0.8866 C   0  0  0  0  0  0  0  0  0  0  0  0
   -4.2052   -1.9048    1.2896 H   0  0  0  0  0  0  0  0  0  0  0  0
   -3.7552   -2.8428   -0.1584 H   0  0  0  0  0  0  0  0  0  0  0  0
   -2.1052   -2.1358    0.9946 C   0  0  0  0  0  0  0  0  0  0  0  0
   -1.2852   -2.7288    1.6826 O   0  0  0  0  0  0  0  0  0  0  0  0
   -1.8202   -1.0288    0.3146 N   0  0  0  0  0  0  0  0  0  0  0  0
   -2.5542   -0.5788   -0.2104 H   0  0  0  0  0  0  0  0  0  0  0  0
   -0.5102   -0.3728    0.3086 C   0  0  1  0  0  0  0  0  0  0  0  0
    0.2354   -1.0844   -0.0490 H   0  0  0  0  0  0  0  0  0  0  0  0
   -0.5452    0.8158   -0.6698 C   0  0  0  0  0  0  0  0  0  0  0  0
    0.3298    1.4454   -0.4986 H   0  0  0  0  0  0  0  0  0  0  0  0
   -0.4911    0.4368   -1.6920 H   0  0  0  0  0  0  0  0  0  0  0  0
   -1.7812    1.6677   -0.5407 C   0  0  0  0  0  0  0  0  0  0  0  0
   -2.3871    2.3845   -1.5503 N   0  0  0  0  0  0  0  0  0  0  0  0
   -2.0407    2.4958   -2.4914 H   0  0  0  0  0  0  0  0  0  0  0  0
   -3.5200    2.9157   -1.0607 C   0  0  0  0  0  0  0  0  0  0  0  0
   -4.2109    3.5378   -1.6164 H   0  0  0  0  0  0  0  0  0  0  0  0
   -3.6814    2.5630    0.2230 N   0  0  0  0  0  0  0  0  0  0  0  0
   -2.5808    1.7734    0.5660 C   0  0  0  0  0  0  0  0  0  0  0  0
   -2.4082    1.2990    1.5234 H   0  0  0  0  0  0  0  0  0  0  0  0
   -0.1073    0.0565    1.7296 C   0  0  0  0  0  0  0  0  0  0  0  0
    1.0285   -0.1699    2.1459 O   0  0  0  0  0  0  0  0  0  0  0  0
   -1.0395    0.6588    2.4785 N   0  0  0  0  0  0  0  0  0  0  0  0
   -1.9636    0.7597    2.0849 H   0  0  0  0  0  0  0  0  0  0  0  0
   -0.8222    1.1334    3.8425 C   0  0  0  0  0  0  0  0  0  0  0  0
   -0.0212    1.8761    3.8521 H   0  0  0  0  0  0  0  0  0  0  0  0
   -1.7349    1.5853    4.2320 H   0  0  0  0  0  0  0  0  0  0  0  0
   -0.5312    0.2997    4.4834 H   0  0  0  0  0  0  0  0  0  0  0  0
  5  6  2  0  0  0  0
  5  7  1  0  0  0  0
  2  3  1  0  0  0  0
  2  4  1  0  0  0  0
  2  5  1  0  0  0  0
  1  2  1  0  0  0  0
 22 23  2  0  0  0  0
 22 24  1  0  0  0  0
 20 21  1  0  0  0  0
 19 20  1  0  0  0  0
 17 18  1  0  0  0  0
 17 19  2  0  0  0  0
 15 16  1  0  0  0  0
 15 17  1  0  0  0  0
 14 15  1  0  0  0  0
 14 20  2  0  0  0  0
 11 12  1  0  0  0  0
 11 13  1  0  0  0  0
 11 14  1  0  0  0  0
  9 10  1  0  0  0  0
  9 11  1  0  0  0  0
  9 22  1  0  0  0  0
  7  8  1  0  0  0  0
  7  9  1  0  0  0  0
 26 27  1  0  0  0  0
 26 28  1  0  0  0  0
 26 29  1  0  0  0  0
 24 25  1  0  0  0  0
 24 26  1  0  0  0  0
M  END
$$$$
default_name
  -OEChem-02102213163D

 29 29  0     1  0  0  0  0  0999 V2000
   -3.6042   -3.5728    1.4576 H   0  0  0  0  0  0  0  0  0  0  0  0
   -3.5202   -2.6488    0.8866 C   0  0  0  0  0  0  0  0  0  0  0  0
   -4.2052   -1.9048    1.2896 H   0  0  0  0  0  0  0  0  0  0  0  0
   -3.7552   -2.8428   -0.1584 H   0  0  0  0  0  0  0  0  0  0  0  0
   -2.1052   -2.1358    0.9946 C   0  0  0  0  0  0  0  0  0  0  0  0
   -1.2852   -2.7288    1.6826 O   0  0  0  0  0  0  0  0  0  0  0  0
   -1.8202   -1.0288    0.3146 N   0  0  0  0  0  0  0  0  0  0  0  0
   -2.5542   -0.5788   -0.2104 H   0  0  0  0  0  0  0  0  0  0  0  0
   -0.5102   -0.3728    0.3086 C   0  0  1  0  0  0  0  0  0  0  0  0
    0.2354   -1.0844   -0.0490 H   0  0  0  0  0  0  0  0  0  0  0  0
   -0.5452    0.8158   -0.6698 C   0  0  0  0  0  0  0  0  0  0  0  0
    0.3298    1.4454   -0.4986 H   0  0  0  0  0  0  0  0  0  0  0  0
   -0.4911    0.4368   -1.6920 H   0  0  0  0  0  0  0  0  0  0  0  0
   -1.7812    1.6677   -0.5407 C   0  0  0  0  0  0  0  0  0  0  0  0
   -2.5529    2.1480   -1.5770 N   0  0  0  0  0  0  0  0  0  0  0  0
   -2.3500    2.0576   -2.5613 H   0  0  0  0  0  0  0  0  0  0  0  0
   -3.6229    2.7644   -1.0474 C   0  0  0  0  0  0  0  0  0  0  0  0
   -4.4097    3.2488   -1.6126 H   0  0  0  0  0  0  0  0  0  0  0  0
   -3.5843    2.6935    0.2912 N   0  0  0  0  0  0  0  0  0  0  0  0
   -2.4166    2.0026    0.6253 C   0  0  0  0  0  0  0  0  0  0  0  0
   -2.0901    1.7452    1.6245 H   0  0  0  0  0  0  0  0  0  0  0  0
   -0.1073    0.0565    1.7296 C   0  0  0  0  0  0  0  0  0  0  0  0
    1.0285   -0.1699    2.1459 O   0  0  0  0  0  0  0  0  0  0  0  0
   -1.0395    0.6588    2.4785 N   0  0  0  0  0  0  0  0  0  0  0  0
   -1.9636    0.7597    2.0849 H   0  0  0  0  0  0  0  0  0  0  0  0
   -0.8222    1.1334    3.8425 C   0  0  0  0  0  0  0  0  0  0  0  0
   -0.0212    1.8761    3.8521 H   0  0  0  0  0  0  0  0  0  0  0  0
   -1.7349    1.5853    4.2320 H   0  0  0  0  0  0  0  0  0  0  0  0
   -0.5312    0.2997    4.4834 H   0  0  0  0  0  0  0  0  0  0  0  0
  5  6  2  0  0  0  0
  5  7  1  0  0  0  0
  2  3  1  0  0  0  0
  2  4  1  0  0  0  0
  2  5  1  0  0  0  0
  1  2  1  0  0  0  0
 22 23  2  0  0  0  0
 22 24  1  0  0  0  0
 20 21  1  0  0  0  0
 19 20  1  0  0  0  0
 17 18  1  0  0  0  0
 17 19  2  0  0  0  0
 15 16  1  0  0  0  0
 15 17  1  0  0  0  0
 14 15  1  0  0  0  0
 14 20  2  0  0  0  0
 11 12  1  0  0  0  0
 11 13  1  0  0  0  0
 11 14  1  0  0  0  0
  9 10  1  0  0  0  0
  9 11  1  0  0  0  0
  9 22  1  0  0  0  0
  7  8  1  0  0  0  0
  7  9  1  0  0  0  0
 26 27  1  0  0  0  0
 26 28  1  0  0  0  0
 26 29  1  0  0  0  0
 24 25  1  0  0  0  0
 24 26  1  0  0  0  0
M  END
$$$$
default_name
  -OEChem-02102213163D

 29 29  0     1  0  0  0  0  0999 V2000
   -3.6042   -3.5728    1.4576 H   0  0  0  0  0  0  0  0  0  0  0  0
   -3.5202   -2.6488    0.8866 C   0  0  0  0  0  0  0  0  0  0  0  0
   -4.2052   -1.9048    1.2896 H   0  0  0  0  0  0  0  0  0  0  0  0
   -3.7552   -2.8428   -0.1584 H   0  0  0  0  0  0  0  0  0  0  0  0
   -2.1052   -2.1358    0.9946 C   0  0  0  0  0  0  0  0  0  0  0  0
   -1.2852   -2.7288    1.6826 O   0  0  0  0  0  0  0  0  0  0  0  0
   -1.8202   -1.0288    0.3146 N   0  0  0  0  0  0  0  0  0  0  0  0
   -2.5542   -0.5788   -0.2104 H   0  0  0  0  0  0  0  0  0  0  0  0
   -0.5102   -0.3728    0.3086 C   0  0  1  0  0  0  0  0  0  0  0  0
    0.2354   -1.0844   -0.0490 H   0  0  0  0  0  0  0  0  0  0  0  0
   -0.5452    0.8158   -0.6698 C   0  0  0  0  0  0  0  0  0  0  0  0
    0.3298    1.4454   -0.4986 H   0  0  0  0  0  0  0  0  0  0  0  0
   -0.4911    0.4368   -1.6920 H   0  0  0  0  0  0  0  0  0  0  0  0
   -1.7812    1.6677   -0.5407 C   0  0  0  0  0  0  0  0  0  0  0  0
   -2.7117    1.9102   -1.5284 N   0  0  0  0  0  0  0  0  0  0  0  0
   -2.6493    1.6126   -2.4905 H   0  0  0  0  0  0  0  0  0  0  0  0
   -3.7169    2.6189   -0.9874 C   0  0  0  0  0  0  0  0  0  0  0  0
   -4.5948    2.9661   -1.5185 H   0  0  0  0  0  0  0  0  0  0  0  0
   -3.4834    2.8363    0.3151 N   0  0  0  0  0  0  0  0  0  0  0  0
   -2.2544    2.2403    0.6098 C   0  0  0  0  0  0  0  0  0  0  0  0
   -1.7779    2.2048    1.5809 H   0  0  0  0  0  0  0  0  0  0  0  0
   -0.1073    0.0565    1.7296 C   0  0  0  0  0  0  0  0  0  0  0  0
    1.0285   -0.1699    2.1459 O   0  0  0  0  0  0  0  0  0  0  0  0
   -1.0395    0.6588    2.4785 N   0  0  0  0  0  0  0  0  0  0  0  0
   -1.9636    0.7597    2.0849 H   0  0  0  0  0  0  0  0  0  0  0  0
   -0.8222    1.1334    3.8425 C   0  0  0  0  0  0  0  0  0  0  0  0
   -0.0212    1.8761    3.8521 H   0  0  0  0  0  0  0  0  0  0  0  0
   -1.7349    1.5853    4.2320 H   0  0  0  0  0  0  0  0  0  0  0  0
   -0.5312    0.2997    4.4834 H   0  0  0  0  0  0  0  0  0  0  0  0
  5  6  2  0  0  0  0
  5  7  1  0  0  0  0
  2  3  1  0  0  0  0
  2  4  1  0  0  0  0
  2  5  1  0  0  0  0
  1  2  1  0  0  0  0
 22 23  2  0  0  0  0
 22 24  1  0  0  0  0
 20 21  1  0  0  0  0
 19 20  1  0  0  0  0
 17 18  1  0  0  0  0
 17 19  2  0  0  0  0
 15 16  1  0  0  0  0
 15 17  1  0  0  0  0
 14 15  1  0  0  0  0
 14 20  2  0  0  0  0
 11 12  1  0  0  0  0
 11 13  1  0  0  0  0
 11 14  1  0  0  0  0
  9 10  1  0  0  0  0
  9 11  1  0  0  0  0
  9 22  1  0  0  0  0
  7  8  1  0  0  0  0
  7  9  1  0  0  0  0
 26 27  1  0  0  0  0
 26 28  1  0  0  0  0
 26 29  1  0  0  0  0
 24 25  1  0  0  0  0
 24 26  1  0  0  0  0
M  END
$$$$
default_name
  -OEChem-02102213163D

 29 29  0     1  0  0  0  0  0999 V2000
   -3.6042   -3.5728    1.4576 H   0  0  0  0  0  0  0  0  0  0  0  0
   -3.5202   -2.6488    0.8866 C   0  0  0  0  0  0  0  0  0  0  0  0
   -4.2052   -1.9048    1.2896 H   0  0  0  0  0  0  0  0  0  0  0  0
   -3.7552   -2.8428   -0.1584 H   0  0  0  0  0  0  0  0  0  0  0  0
   -2.1052   -2.1358    0.9946 C   0  0  0  0  0  0  0  0  0  0  0  0
   -1.2852   -2.7288    1.6826 O   0  0  0  0  0  0  0  0  0  0  0  0
   -1.8202   -1.0288    0.3146 N   0  0  0  0  0  0  0  0  0  0  0  0
   -2.5542   -0.5788   -0.2104 H   0  0  0  0  0  0  0  0  0  0  0  0
   -0.5102   -0.3728    0.3086 C   0  0  1  0  0  0  0  0  0  0  0  0
    0.2354   -1.0844   -0.0490 H   0  0  0  0  0  0  0  0  0  0  0  0
   -0.5452    0.8158   -0.6698 C   0  0  0  0  0  0  0  0  0  0  0  0
    0.3298    1.4454   -0.4986 H   0  0  0  0  0  0  0  0  0  0  0  0
   -0.4911    0.4368   -1.6920 H   0  0  0  0  0  0  0  0  0  0  0  0
   -1.7812    1.6677   -0.5407 C   0  0  0  0  0  0  0  0  0  0  0  0
   -2.8527    1.6873   -1.4077 N   0  0  0  0  0  0  0  0  0  0  0  0
   -2.9182    1.1911   -2.2838 H   0  0  0  0  0  0  0  0  0  0  0  0
   -3.7958    2.4889   -0.8847 C   0  0  0  0  0  0  0  0  0  0  0  0
   -4.7535    2.7089   -1.3405 H   0  0  0  0  0  0  0  0  0  0  0  0
   -3.3856    2.9815    0.2932 N   0  0  0  0  0  0  0  0  0  0  0  0
   -2.1052    2.4702    0.5206 C   0  0  0  0  0  0  0  0  0  0  0  0
   -1.4929    2.6463    1.3955 H   0  0  0  0  0  0  0  0  0  0  0  0
   -0.1073    0.0565    1.7296 C   0  0  0  0  0  0  0  0  0  0  0  0
    1.0285   -0.1699    2.1459 O   0  0  0  0  0  0  0  0  0  0  0  0
   -1.0395    0.6588    2.4785 N   0  0  0  0  0  0  0  0  0  0  0  0
   -1.9636    0.7597    2.0849 H   0  0  0  0  0  0  0  0  0  0  0  0
   -0.8222    1.1334    3.8425 C   0  0  0  0  0  0  0  0  0  0  0  0
   -0.0212    1.8761    3.8521 H   0  0  0  0  0  0  0  0  0  0  0  0
   -1.7349    1.5853    4.2320 H   0  0  0  0  0  0  0  0  0  0  0  0
   -0.5312    0.2997    4.4834 H   0  0  0  0  0  0  0  0  0  0  0  0
  5  6  2  0  0  0  0
  5  7  1  0  0  0  0
  2  3  1  0  0  0  0
  2  4  1  0  0  0  0
  2  5  1  0  0  0  0
  1  2  1  0  0  0  0
 22 23  2  0  0  0  0
 22 24  1  0  0  0  0
 20 21  1  0  0  0  0
 19 20  1  0  0  0  0
 17 18  1  0  0  0  0
 17 19  2  0  0  0  0
 15 16  1  0  0  0  0
 15 17  1  0  0  0  0
 14 15  1  0  0  0  0
 14 20  2  0  0  0  0
 11 12  1  0  0  0  0
 11 13  1  0  0  0  0
 11 14  1  0  0  0  0
  9 10  1  0  0  0  0
  9 11  1  0  0  0  0
  9 22  1  0  0  0  0
  7  8  1  0  0  0  0
  7  9  1  0  0  0  0
 26 27  1  0  0  0  0
 26 28  1  0  0  0  0
 26 29  1  0  0  0  0
 24 25  1  0  0  0  0
 24 26  1  0  0  0  0
M  END
$$$$
default_name
  -OEChem-02102213163D

 29 29  0     1  0  0  0  0  0999 V2000
   -3.6042   -3.5728    1.4576 H   0  0  0  0  0  0  0  0  0  0  0  0
   -3.5202   -2.6488    0.8866 C   0  0  0  0  0  0  0  0  0  0  0  0
   -4.2052   -1.9048    1.2896 H   0  0  0  0  0  0  0  0  0  0  0  0
   -3.7552   -2.8428   -0.1584 H   0  0  0  0  0  0  0  0  0  0  0  0
   -2.1052   -2.1358    0.9946 C   0  0  0  0  0  0  0  0  0  0  0  0
   -1.2852   -2.7288    1.6826 O   0  0  0  0  0  0  0  0  0  0  0  0
   -1.8202   -1.0288    0.3146 N   0  0  0  0  0  0  0  0  0  0  0  0
   -2.5542   -0.5788   -0.2104 H   0  0  0  0  0  0  0  0  0  0  0  0
   -0.5102   -0.3728    0.3086 C   0  0  1  0  0  0  0  0  0  0  0  0
    0.2354   -1.0844   -0.0490 H   0  0  0  0  0  0  0  0  0  0  0  0
   -0.5452    0.8158   -0.6698 C   0  0  0  0  0  0  0  0  0  0  0  0
    0.3298    1.4454   -0.4986 H   0  0  0  0  0  0  0  0  0  0  0  0
   -0.4911    0.4368   -1.6920 H   0  0  0  0  0  0  0  0  0  0  0  0
   -1.7812    1.6677   -0.5407 C   0  0  0  0  0  0  0  0  0  0  0  0
   -2.9663    1.4946   -1.2231 N   0  0  0  0  0  0  0  0  0  0  0  0
   -3.1384    0.8220   -1.9554 H   0  0  0  0  0  0  0  0  0  0  0  0
   -3.8540    2.3835   -0.7465 C   0  0  0  0  0  0  0  0  0  0  0  0
   -4.8750    2.4947   -1.0907 H   0  0  0  0  0  0  0  0  0  0  0  0
   -3.2976    3.1193    0.2268 N   0  0  0  0  0  0  0  0  0  0  0  0
   -1.9793    2.6766    0.3638 C   0  0  0  0  0  0  0  0  0  0  0  0
   -1.2546    3.0398    1.0810 H   0  0  0  0  0  0  0  0  0  0  0  0
   -0.1073    0.0565    1.7296 C   0  0  0  0  0  0  0  0  0  0  0  0
    1.0285   -0.1699    2.1459 O   0  0  0  0  0  0  0  0  0  0  0  0
   -1.0395    0.6588    2.4785 N   0  0  0  0  0  0  0  0  0  0  0  0
   -1.9636    0.7597    2.0849 H   0  0  0  0  0  0  0  0  0  0  0  0
   -0.8222    1.1334    3.8425 C   0  0  0  0  0  0  0  0  0  0  0  0
   -0.0212    1.8761    3.8521 H   0  0  0  0  0  0  0  0  0  0  0  0
   -1.7349    1.5853    4.2320 H   0  0  0  0  0  0  0  0  0  0  0  0
   -0.5312    0.2997    4.4834 H   0  0  0  0  0  0  0  0  0  0  0  0
  5  6  2  0  0  0  0
  5  7  1  0  0  0  0
  2  3  1  0  0  0  0
  2  4  1  0  0  0  0
  2  5  1  0  0  0  0
  1  2  1  0  0  0  0
 22 23  2  0  0  0  0
 22 24  1  0  0  0  0
 20 21  1  0  0  0  0
 19 20  1  0  0  0  0
 17 18  1  0  0  0  0
 17 19  2  0  0  0  0
 15 16  1  0  0  0  0
 15 17  1  0  0  0  0
 14 15  1  0  0  0  0
 14 20  2  0  0  0  0
 11 12  1  0  0  0  0
 11 13  1  0  0  0  0
 11 14  1  0  0  0  0
  9 10  1  0  0  0  0
  9 11  1  0  0  0  0
  9 22  1  0  0  0  0
  7  8  1  0  0  0  0
  7  9  1  0  0  0  0
 26 27  1  0  0  0  0
 26 28  1  0  0  0  0
 26 29  1  0  0  0  0
 24 25  1  0  0  0  0
 24 26  1  0  0  0  0
M  END
$$$$
default_name
  -OEChem-02102213163D

 29 29  0     1  0  0  0  0  0999 V2000
   -3.6042   -3.5728    1.4576 H   0  0  0  0  0  0  0  0  0  0  0  0
   -3.5202   -2.6488    0.8866 C   0  0  0  0  0  0  0  0  0  0  0  0
   -4.2052   -1.9048    1.2896 H   0  0  0  0  0  0  0  0  0  0  0  0
   -3.7552   -2.8428   -0.1584 H   0  0  0  0  0  0  0  0  0  0  0  0
   -2.1052   -2.1358    0.9946 C   0  0  0  0  0  0  0  0  0  0  0  0
   -1.2852   -2.7288    1.6826 O   0  0  0  0  0  0  0  0  0  0  0  0
   -1.8202   -1.0288    0.3146 N   0  0  0  0  0  0  0  0  0  0  0  0
   -2.5542   -0.5788   -0.2104 H   0  0  0  0  0  0  0  0  0  0  0  0
   -0.5102   -0.3728    0.3086 C   0  0  1  0  0  0  0  0  0  0  0  0
    0.2354   -1.0844   -0.0490 H   0  0  0  0  0  0  0  0  0  0  0  0
   -0.5452    0.8158   -0.6698 C   0  0  0  0  0  0  0  0  0  0  0  0
    0.3298    1.4454   -0.4986 H   0  0  0  0  0  0  0  0  0  0  0  0
   -0.4911    0.4368   -1.6920 H   0  0  0  0  0  0  0  0  0  0  0  0
   -1.7812    1.6677   -0.5407 C   0  0  0  0  0  0  0  0  0  0  0  0
   -3.0447    1.3450   -0.9873 N   0  0  0  0  0  0  0  0  0  0  0  0
   -3.2947    0.5302   -1.5275 H   0  0  0  0  0  0  0  0  0  0  0  0
   -3.8877    2.3096   -0.5820 C   0  0  0  0  0  0  0  0  0  0  0  0
   -4.9511    2.3381   -0.7861 H   0  0  0  0  0  0  0  0  0  0  0  0
   -3.2253    3.2402    0.1206 N   0  0  0  0  0  0  0  0  0  0  0  0
   -1.8852    2.8455    0.1501 C   0  0  0  0  0  0  0  0  0  0  0  0
   -1.0791    3.3583    0.6587 H   0  0  0  0  0  0  0  0  0  0  0  0
   -0.1073    0.0565    1.7296 C   0  0  0  0  0  0  0  0  0  0  0  0
    1.0285   -0.1699    2.1459 O   0  0  0  0  0  0  0  0  0  0  0  0
   -1.0395    0.6588    2.4785 N   0  0  0  0  0  0  0  0  0  0  0  0
   -1.9636    0.7597    2.0849 H   0  0  0  0  0  0  0  0  0  0  0  0
   -0.8222    1.1334    3.8425 C   0  0  0  0  0  0  0  0  0  0  0  0
   -0.0212    1.8761    3.8521 H   0  0  0  0  0  0  0  0  0  0  0  0
   -1.7349    1.5853    4.2320 H   0  0  0  0  0  0  0  0  0  0  0  0
   -0.5312    0.2997    4.4834 H   0  0  0  0  0  0  0  0  0  0  0  0
  5  6  2  0  0  0  0
  5  7  1  0  0  0  0
  2  3  1  0  0  0  0
  2  4  1  0  0  0  0
  2  5  1  0  0  0  0
  1  2  1  0  0  0  0
 22 23  2  0  0  0  0
 22 24  1  0  0  0  0
 20 21  1  0  0  0  0
 19 20  1  0  0  0  0
 17 18  1  0  0  0  0
 17 19  2  0  0  0  0
 15 16  1  0  0  0  0
 15 17  1  0  0  0  0
 14 15  1  0  0  0  0
 14 20  2  0  0  0  0
 11 12  1  0  0  0  0
 11 13  1  0  0  0  0
 11 14  1  0  0  0  0
  9 10  1  0  0  0  0
  9 11  1  0  0  0  0
  9 22  1  0  0  0  0
  7  8  1  0  0  0  0
  7  9  1  0  0  0  0
 26 27  1  0  0  0  0
 26 28  1  0  0  0  0
 26 29  1  0  0  0  0
 24 25  1  0  0  0  0
 24 26  1  0  0  0  0
M  END
$$$$
default_name
  -OEChem-02102213163D

 29 29  0     1  0  0  0  0  0999 V2000
   -3.6042   -3.5728    1.4576 H   0  0  0  0  0  0  0  0  0  0  0  0
   -3.5202   -2.6488    0.8866 C   0  0  0  0  0  0  0  0  0  0  0  0
   -4.2052   -1.9048    1.2896 H   0  0  0  0  0  0  0  0  0  0  0  0
   -3.7552   -2.8428   -0.1584 H   0  0  0  0  0  0  0  0  0  0  0  0
   -2.1052   -2.1358    0.9946 C   0  0  0  0  0  0  0  0  0  0  0  0
   -1.2852   -2.7288    1.6826 O   0  0  0  0  0  0  0  0  0  0  0  0
   -1.8202   -1.0288    0.3146 N   0  0  0  0  0  0  0  0  0  0  0  0
   -2.5542   -0.5788   -0.2104 H   0  0  0  0  0  0  0  0  0  0  0  0
   -0.5102   -0.3728    0.3086 C   0  0  1  0  0  0  0  0  0  0  0  0
    0.2354   -1.0844   -0.0490 H   0  0  0  0  0  0  0  0  0  0  0  0
   -0.5452    0.8158   -0.6698 C   0  0  0  0  0  0  0  0  0  0  0  0
    0.3298    1.4454   -0.4986 H   0  0  0  0  0  0  0  0  0  0  0  0
   -0.4911    0.4368   -1.6920 H   0  0  0  0  0  0  0  0  0  0  0  0
   -1.7812    1.6677   -0.5407 C   0  0  0  0  0  0  0  0  0  0  0  0
   -3.0827    1.2489   -0.7163 N   0  0  0  0  0  0  0  0  0  0  0  0
   -3.3767    0.3358   -1.0293 H   0  0  0  0  0  0  0  0  0  0  0  0
   -3.8946    2.2725   -0.4025 C   0  0  0  0  0  0  0  0  0  0  0  0
   -4.9765    2.2499   -0.4476 H   0  0  0  0  0  0  0  0  0  0  0  0
   -3.1738    3.3360   -0.0182 N   0  0  0  0  0  0  0  0  0  0  0  0
   -1.8294    2.9654   -0.1059 C   0  0  0  0  0  0  0  0  0  0  0  0
   -0.9785    3.5803    0.1576 H   0  0  0  0  0  0  0  0  0  0  0  0
   -0.1073    0.0565    1.7296 C   0  0  0  0  0  0  0  0  0  0  0  0
    1.0285   -0.1699    2.1459 O   0  0  0  0  0  0  0  0  0  0  0  0
   -1.0395    0.6588    2.4785 N   0  0  0  0  0  0  0  0  0  0  0  0
   -1.9636    0.7597    2.0849 H   0  0  0  0  0  0  0  0  0  0  0  0
   -0.8222    1.1334    3.8425 C   0  0  0  0  0  0  0  0  0  0  0  0
   -0.0212    1.8761    3.8521 H   0  0  0  0  0  0  0  0  0  0  0  0
   -1.7349    1.5853    4.2320 H   0  0  0  0  0  0  0  0  0  0  0  0
   -0.5312    0.2997    4.4834 H   0  0  0  0  0  0  0  0  0  0  0  0
  5  6  2  0  0  0  0
  5  7  1  0  0  0  0
  2  3  1  0  0  0  0
  2  4  1  0  0  0  0
  2  5  1  0  0  0  0
  1  2  1  0  0  0  0
 22 23  2  0  0  0  0
 22 24  1  0  0  0  0
 20 21  1  0  0  0  0
 19 20  1  0  0  0  0
 17 18  1  0  0  0  0
 17 19  2  0  0  0  0
 15 16  1  0  0  0  0
 15 17  1  0  0  0  0
 14 15  1  0  0  0  0
 14 20  2  0  0  0  0
 11 12  1  0  0  0  0
 11 13  1  0  0  0  0
 11 14  1  0  0  0  0
  9 10  1  0  0  0  0
  9 11  1  0  0  0  0
  9 22  1  0  0  0  0
  7  8  1  0  0  0  0
  7  9  1  0  0  0  0
 26 27  1  0  0  0  0
 26 28  1  0  0  0  0
 26 29  1  0  0  0  0
 24 25  1  0  0  0  0
 24 26  1  0  0  0  0
M  END
$$$$
default_name
  -OEChem-02102213163D

 29 29  0     1  0  0  0  0  0999 V2000
   -3.6042   -3.5728    1.4576 H   0  0  0  0  0  0  0  0  0  0  0  0
   -3.5202   -2.6488    0.8866 C   0  0  0  0  0  0  0  0  0  0  0  0
   -4.2052   -1.9048    1.2896 H   0  0  0  0  0  0  0  0  0  0  0  0
   -3.7552   -2.8428   -0.1584 H   0  0  0  0  0  0  0  0  0  0  0  0
   -2.1052   -2.1358    0.9946 C   0  0  0  0  0  0  0  0  0  0  0  0
   -1.2852   -2.7288    1.6826 O   0  0  0  0  0  0  0  0  0  0  0  0
   -1.8202   -1.0288    0.3146 N   0  0  0  0  0  0  0  0  0  0  0  0
   -2.5542   -0.5788   -0.2104 H   0  0  0  0  0  0  0  0  0  0  0  0
   -0.5102   -0.3728    0.3086 C   0  0  1  0  0  0  0  0  0  0  0  0
    0.2354   -1.0844   -0.0490 H   0  0  0  0  0  0  0  0  0  0  0  0
   -0.5452    0.8158   -0.6698 C   0  0  0  0  0  0  0  0  0  0  0  0
    0.3298    1.4454   -0.4986 H   0  0  0  0  0  0  0  0  0  0  0  0
   -0.4911    0.4368   -1.6920 H   0  0  0  0  0  0  0  0  0  0  0  0
   -1.7812    1.6677   -0.5407 C   0  0  0  0  0  0  0  0  0  0  0  0
   -3.0775    1.2128   -0.4285 N   0  0  0  0  0  0  0  0  0  0  0  0
   -3.3787    0.2520   -0.4949 H   0  0  0  0  0  0  0  0  0  0  0  0
   -3.8741    2.2746   -0.2203 C   0  0  0  0  0  0  0  0  0  0  0  0
   -4.9496    2.2360   -0.0981 H   0  0  0  0  0  0  0  0  0  0  0  0
   -3.1464    3.4003   -0.1803 N   0  0  0  0  0  0  0  0  0  0  0  0
   -1.8155    3.0281   -0.3868 C   0  0  0  0  0  0  0  0  0  0  0  0
   -0.9595    3.6905   -0.3883 H   0  0  0  0  0  0  0  0  0  0  0  0
   -0.1073    0.0565    1.7296 C   0  0  0  0  0  0  0  0  0  0  0  0
    1.0285   -0.1699    2.1459 O   0  0  0  0  0  0  0  0  0  0  0  0
   -1.0395    0.6588    2.4785 N   0  0  0  0  0  0  0  0  0  0  0  0
   -1.9636    0.7597    2.0849 H   0  0  0  0  0  0  0  0  0  0  0  0
   -0.8222    1.1334    3.8425 C   0  0  0  0  0  0  0  0  0  0  0  0
   -0.0212    1.8761    3.8521 H   0  0  0  0  0  0  0  0  0  0  0  0
   -1.7349    1.5853    4.2320 H   0  0  0  0  0  0  0  0  0  0  0  0
   -0.5312    0.2997    4.4834 H   0  0  0  0  0  0  0  0  0  0  0  0
  5  6  2  0  0  0  0
  5  7  1  0  0  0  0
  2  3  1  0  0  0  0
  2  4  1  0  0  0  0
  2  5  1  0  0  0  0
  1  2  1  0  0  0  0
 22 23  2  0  0  0  0
 22 24  1  0  0  0  0
 20 21  1  0  0  0  0
 19 20  1  0  0  0  0
 17 18  1  0  0  0  0
 17 19  2  0  0  0  0
 15 16  1  0  0  0  0
 15 17  1  0  0  0  0
 14 15  1  0  0  0  0
 14 20  2  0  0  0  0
 11 12  1  0  0  0  0
 11 13  1  0  0  0  0
 11 14  1  0  0  0  0
  9 10  1  0  0  0  0
  9 11  1  0  0  0  0
  9 22  1  0  0  0  0
  7  8  1  0  0  0  0
  7  9  1  0  0  0  0
 26 27  1  0  0  0  0
 26 28  1  0  0  0  0
 26 29  1  0  0  0  0
 24 25  1  0  0  0  0
 24 26  1  0  0  0  0
M  END
$$$$
default_name
  -OEChem-02102213163D

 29 29  0     1  0  0  0  0  0999 V2000
   -3.6042   -3.5728    1.4576 H   0  0  0  0  0  0  0  0  0  0  0  0
   -3.5202   -2.6488    0.8866 C   0  0  0  0  0  0  0  0  0  0  0  0
   -4.2052   -1.9048    1.2896 H   0  0  0  0  0  0  0  0  0  0  0  0
   -3.7552   -2.8428   -0.1584 H   0  0  0  0  0  0  0  0  0  0  0  0
   -2.1052   -2.1358    0.9946 C   0  0  0  0  0  0  0  0  0  0  0  0
   -1.2852   -2.7288    1.6826 O   0  0  0  0  0  0  0  0  0  0  0  0
   -1.8202   -1.0288    0.3146 N   0  0  0  0  0  0  0  0  0  0  0  0
   -2.5542   -0.5788   -0.2104 H   0  0  0  0  0  0  0  0  0  0  0  0
   -0.5102   -0.3728    0.3086 C   0  0  1  0  0  0  0  0  0  0  0  0
    0.2354   -1.0844   -0.0490 H   0  0  0  0  0  0  0  0  0  0  0  0
   -0.5452    0.8158   -0.6698 C   0  0  0  0  0  0  0  0  0  0  0  0
    0.3298    1.4454   -0.4986 H   0  0  0  0  0  0  0  0  0  0  0  0
   -0.4911    0.4368   -1.6920 H   0  0  0  0  0  0  0  0  0  0  0  0
   -1.7812    1.6677   -0.5407 C   0  0  0  0  0  0  0  0  0  0  0  0
   -3.0297    1.2390   -0.1437 N   0  0  0  0  0  0  0  0  0  0  0  0
   -3.3005    0.2844    0.0394 H   0  0  0  0  0  0  0  0  0  0  0  0
   -3.8277    2.3158   -0.0477 C   0  0  0  0  0  0  0  0  0  0  0  0
   -4.8722    2.2973    0.2384 H   0  0  0  0  0  0  0  0  0  0  0  0
   -3.1451    3.4286   -0.3544 N   0  0  0  0  0  0  0  0  0  0  0  0
   -1.8446    3.0292   -0.6735 C   0  0  0  0  0  0  0  0  0  0  0  0
   -1.0236    3.6814   -0.9418 H   0  0  0  0  0  0  0  0  0  0  0  0
   -0.1073    0.0565    1.7296 C   0  0  0  0  0  0  0  0  0  0  0  0
    1.0285   -0.1699    2.1459 O   0  0  0  0  0  0  0  0  0  0  0  0
   -1.0395    0.6588    2.4785 N   0  0  0  0  0  0  0  0  0  0  0  0
   -1.9636    0.7597    2.0849 H   0  0  0  0  0  0  0  0  0  0  0  0
   -0.8222    1.1334    3.8425 C   0  0  0  0  0  0  0  0  0  0  0  0
   -0.0212    1.8761    3.8521 H   0  0  0  0  0  0  0  0  0  0  0  0
   -1.7349    1.5853    4.2320 H   0  0  0  0  0  0  0  0  0  0  0  0
   -0.5312    0.2997    4.4834 H   0  0  0  0  0  0  0  0  0  0  0  0
  5  6  2  0  0  0  0
  5  7  1  0  0  0  0
  2  3  1  0  0  0  0
  2  4  1  0  0  0  0
  2  5  1  0  0  0  0
  1  2  1  0  0  0  0
 22 23  2  0  0  0  0
 22 24  1  0  0  0  0
 20 21  1  0  0  0  0
 19 20  1  0  0  0  0
 17 18  1  0  0  0  0
 17 19  2  0  0  0  0
 15 16  1  0  0  0  0
 15 17  1  0  0  0  0
 14 15  1  0  0  0  0
 14 20  2  0  0  0  0
 11 12  1  0  0  0  0
 11 13  1  0  0  0  0
 11 14  1  0  0  0  0
  9 10  1  0  0  0  0
  9 11  1  0  0  0  0
  9 22  1  0  0  0  0
  7  8  1  0  0  0  0
  7  9  1  0  0  0  0
 26 27  1  0  0  0  0
 26 28  1  0  0  0  0
 26 29  1  0  0  0  0
 24 25  1  0  0  0  0
 24 26  1  0  0  0  0
M  END
$$$$
default_name
  -OEChem-02102213163D

 29 29  0     1  0  0  0  0  0999 V2000
   -3.6042   -3.5728    1.4576 H   0  0  0  0  0  0  0  0  0  0  0  0
   -3.5202   -2.6488    0.8866 C   0  0  0  0  0  0  0  0  0  0  0  0
   -4.2052   -1.9048    1.2896 H   0  0  0  0  0  0  0  0  0  0  0  0
   -3.7552   -2.8428   -0.1584 H   0  0  0  0  0  0  0  0  0  0  0  0
   -2.1052   -2.1358    0.9946 C   0  0  0  0  0  0  0  0  0  0  0  0
   -1.2852   -2.7288    1.6826 O   0  0  0  0  0  0  0  0  0  0  0  0
   -1.8202   -1.0288    0.3146 N   0  0  0  0  0  0  0  0  0  0  0  0
   -2.5542   -0.5788   -0.2104 H   0  0  0  0  0  0  0  0  0  0  0  0
   -0.5102   -0.3728    0.3086 C   0  0  1  0  0  0  0  0  0  0  0  0
    0.2354   -1.0844   -0.0490 H   0  0  0  0  0  0  0  0  0  0  0  0
   -0.5452    0.8158   -0.6698 C   0  0  0  0  0  0  0  0  0  0  0  0
    0.3298    1.4454   -0.4986 H   0  0  0  0  0  0  0  0  0  0  0  0
   -0.4911    0.4368   -1.6920 H   0  0  0  0  0  0  0  0  0  0  0  0
   -1.7812    1.6677   -0.5407 C   0  0  0  0  0  0  0  0  0  0  0  0
   -2.9423    1.3260    0.1189 N   0  0  0  0  0  0  0  0  0  0  0  0
   -3.1476    0.4310    0.5372 H   0  0  0  0  0  0  0  0  0  0  0  0
   -3.7585    2.3932    0.1035 C   0  0  0  0  0  0  0  0  0  0  0  0
   -4.7495    2.4298    0.5392 H   0  0  0  0  0  0  0  0  0  0  0  0
   -3.1699    3.4189   -0.5288 N   0  0  0  0  0  0  0  0  0  0  0  0
   -1.9147    2.9689   -0.9464 C   0  0  0  0  0  0  0  0  0  0  0  0
   -1.1662    3.5537   -1.4652 H   0  0  0  0  0  0  0  0  0  0  0  0
   -0.1073    0.0565    1.7296 C   0  0  0  0  0  0  0  0  0  0  0  0
    1.0285   -0.1699    2.1459 O   0  0  0  0  0  0  0  0  0  0  0  0
   -1.0395    0.6588    2.4785 N   0  0  0  0  0  0  0  0  0  0  0  0
   -1.9636    0.7597    2.0849 H   0  0  0  0  0  0  0  0  0  0  0  0
   -0.8222    1.1334    3.8425 C   0  0  0  0  0  0  0  0  0  0  0  0
   -0.0212    1.8761    3.8521 H   0  0  0  0  0  0  0  0  0  0  0  0
   -1.7349    1.5853    4.2320 H   0  0  0  0  0  0  0  0  0  0  0  0
   -0.5312    0.2997    4.4834 H   0  0  0  0  0  0  0  0  0  0  0  0
  5  6  2  0  0  0  0
  5  7  1  0  0  0  0
  2  3  1  0  0  0  0
  2  4  1  0  0  0  0
  2  5  1  0  0  0  0
  1  2  1  0  0  0  0
 22 23  2  0  0  0  0
 22 24  1  0  0  0  0
 20 21  1  0  0  0  0
 19 20  1  0  0  0  0
 17 18  1  0  0  0  0
 17 19  2  0  0  0  0
 15 16  1  0  0  0  0
 15 17  1  0  0  0  0
 14 15  1  0  0  0  0
 14 20  2  0  0  0  0
 11 12  1  0  0  0  0
 11 13  1  0  0  0  0
 11 14  1  0  0  0  0
  9 10  1  0  0  0  0
  9 11  1  0  0  0  0
  9 22  1  0  0  0  0
  7  8  1  0  0  0  0
  7  9  1  0  0  0  0
 26 27  1  0  0  0  0
 26 28  1  0  0  0  0
 26 29  1  0  0  0  0
 24 25  1  0  0  0  0
 24 26  1  0  0  0  0
M  END
$$$$
default_name
  -OEChem-02102213163D

 29 29  0     1  0  0  0  0  0999 V2000
   -3.6042   -3.5728    1.4576 H   0  0  0  0  0  0  0  0  0  0  0  0
   -3.5202   -2.6488    0.8866 C   0  0  0  0  0  0  0  0  0  0  0  0
   -4.2052   -1.9048    1.2896 H   0  0  0  0  0  0  0  0  0  0  0  0
   -3.7552   -2.8428   -0.1584 H   0  0  0  0  0  0  0  0  0  0  0  0
   -2.1052   -2.1358    0.9946 C   0  0  0  0  0  0  0  0  0  0  0  0
   -1.2852   -2.7288    1.6826 O   0  0  0  0  0  0  0  0  0  0  0  0
   -1.8202   -1.0288    0.3146 N   0  0  0  0  0  0  0  0  0  0  0  0
   -2.5542   -0.5788   -0.2104 H   0  0  0  0  0  0  0  0  0  0  0  0
   -0.5102   -0.3728    0.3086 C   0  0  1  0  0  0  0  0  0  0  0  0
    0.2354   -1.0844   -0.0490 H   0  0  0  0  0  0  0  0  0  0  0  0
   -0.5452    0.8158   -0.6698 C   0  0  0  0  0  0  0  0  0  0  0  0
    0.3298    1.4454   -0.4986 H   0  0  0  0  0  0  0  0  0  0  0  0
   -0.4911    0.4368   -1.6920 H   0  0  0  0  0  0  0  0  0  0  0  0
   -1.7812    1.6677   -0.5407 C   0  0  0  0  0  0  0  0  0  0  0  0
   -2.8215    1.4677    0.3413 N   0  0  0  0  0  0  0  0  0  0  0  0
   -2.9302    0.6816    0.9645 H   0  0  0  0  0  0  0  0  0  0  0  0
   -3.6713    2.5017    0.2229 C   0  0  0  0  0  0  0  0  0  0  0  0
   -4.5899    2.6243    0.7836 H   0  0  0  0  0  0  0  0  0  0  0  0
   -3.2193    3.3721   -0.6916 N   0  0  0  0  0  0  0  0  0  0  0  0
   -2.0211    2.8510   -1.1869 C   0  0  0  0  0  0  0  0  0  0  0  0
   -1.3778    3.3161   -1.9227 H   0  0  0  0  0  0  0  0  0  0  0  0
   -0.1073    0.0565    1.7296 C   0  0  0  0  0  0  0  0  0  0  0  0
    1.0285   -0.1699    2.1459 O   0  0  0  0  0  0  0  0  0  0  0  0
   -1.0395    0.6588    2.4785 N   0  0  0  0  0  0  0  0  0  0  0  0
   -1.9636    0.7597    2.0849 H   0  0  0  0  0  0  0  0  0  0  0  0
   -0.8222    1.1334    3.8425 C   0  0  0  0  0  0  0  0  0  0  0  0
   -0.0212    1.8761    3.8521 H   0  0  0  0  0  0  0  0  0  0  0  0
   -1.7349    1.5853    4.2320 H   0  0  0  0  0  0  0  0  0  0  0  0
   -0.5312    0.2997    4.4834 H   0  0  0  0  0  0  0  0  0  0  0  0
  5  6  2  0  0  0  0
  5  7  1  0  0  0  0
  2  3  1  0  0  0  0
  2  4  1  0  0  0  0
  2  5  1  0  0  0  0
  1  2  1  0  0  0  0
 22 23  2  0  0  0  0
 22 24  1  0  0  0  0
 20 21  1  0  0  0  0
 19 20  1  0  0  0  0
 17 18  1  0  0  0  0
 17 19  2  0  0  0  0
 15 16  1  0  0  0  0
 15 17  1  0  0  0  0
 14 15  1  0  0  0  0
 14 20  2  0  0  0  0
 11 12  1  0  0  0  0
 11 13  1  0  0  0  0
 11 14  1  0  0  0  0
  9 10  1  0  0  0  0
  9 11  1  0  0  0  0
  9 22  1  0  0  0  0
  7  8  1  0  0  0  0
  7  9  1  0  0  0  0
 26 27  1  0  0  0  0
 26 28  1  0  0  0  0
 26 29  1  0  0  0  0
 24 25  1  0  0  0  0
 24 26  1  0  0  0  0
M  END
$$$$
default_name
  -OEChem-02102213163D

 29 29  0     1  0  0  0  0  0999 V2000
   -3.6042   -3.5728    1.4576 H   0  0  0  0  0  0  0  0  0  0  0  0
   -3.5202   -2.6488    0.8866 C   0  0  0  0  0  0  0  0  0  0  0  0
   -4.2052   -1.9048    1.2896 H   0  0  0  0  0  0  0  0  0  0  0  0
   -3.7552   -2.8428   -0.1584 H   0  0  0  0  0  0  0  0  0  0  0  0
   -2.1052   -2.1358    0.9946 C   0  0  0  0  0  0  0  0  0  0  0  0
   -1.2852   -2.7288    1.6826 O   0  0  0  0  0  0  0  0  0  0  0  0
   -1.8202   -1.0288    0.3146 N   0  0  0  0  0  0  0  0  0  0  0  0
   -2.5542   -0.5788   -0.2104 H   0  0  0  0  0  0  0  0  0  0  0  0
   -0.5102   -0.3728    0.3086 C   0  0  1  0  0  0  0  0  0  0  0  0
    0.2354   -1.0844   -0.0490 H   0  0  0  0  0  0  0  0  0  0  0  0
   -0.5452    0.8158   -0.6698 C   0  0  0  0  0  0  0  0  0  0  0  0
    0.3298    1.4454   -0.4986 H   0  0  0  0  0  0  0  0  0  0  0  0
   -0.4911    0.4368   -1.6920 H   0  0  0  0  0  0  0  0  0  0  0  0
   -1.7812    1.6677   -0.5407 C   0  0  0  0  0  0  0  0  0  0  0  0
   -2.6753    1.6544    0.5083 N   0  0  0  0  0  0  0  0  0  0  0  0
   -2.6633    1.0192    1.2922 H   0  0  0  0  0  0  0  0  0  0  0  0
   -3.5720    2.6337    0.3026 C   0  0  0  0  0  0  0  0  0  0  0  0
   -4.4043    2.8676    0.9550 H   0  0  0  0  0  0  0  0  0  0  0  0
   -3.2897    3.2911   -0.8317 N   0  0  0  0  0  0  0  0  0  0  0  0
   -2.1563    2.6838   -1.3787 C   0  0  0  0  0  0  0  0  0  0  0  0
   -1.6438    2.9848   -2.2832 H   0  0  0  0  0  0  0  0  0  0  0  0
   -0.1073    0.0565    1.7296 C   0  0  0  0  0  0  0  0  0  0  0  0
    1.0285   -0.1699    2.1459 O   0  0  0  0  0  0  0  0  0  0  0  0
   -1.0395    0.6588    2.4785 N   0  0  0  0  0  0  0  0  0  0  0  0
   -1.9636    0.7597    2.0849 H   0  0  0  0  0  0  0  0  0  0  0  0
   -0.8222    1.1334    3.8425 C   0  0  0  0  0  0  0  0  0  0  0  0
   -0.0212    1.8761    3.8521 H   0  0  0  0  0  0  0  0  0  0  0  0
   -1.7349    1.5853    4.2320 H   0  0  0  0  0  0  0  0  0  0  0  0
   -0.5312    0.2997    4.4834 H   0  0  0  0  0  0  0  0  0  0  0  0
  5  6  2  0  0  0  0
  5  7  1  0  0  0  0
  2  3  1  0  0  0  0
  2  4  1  0  0  0  0
  2  5  1  0  0  0  0
  1  2  1  0  0  0  0
 22 23  2  0  0  0  0
 22 24  1  0  0  0  0
 20 21  1  0  0  0  0
 19 20  1  0  0  0  0
 17 18  1  0  0  0  0
 17 19  2  0  0  0  0
 15 16  1  0  0  0  0
 15 17  1  0  0  0  0
 14 15  1  0  0  0  0
 14 20  2  0  0  0  0
 11 12  1  0  0  0  0
 11 13  1  0  0  0  0
 11 14  1  0  0  0  0
  9 10  1  0  0  0  0
  9 11  1  0  0  0  0
  9 22  1  0  0  0  0
  7  8  1  0  0  0  0
  7  9  1  0  0  0  0
 26 27  1  0  0  0  0
 26 28  1  0  0  0  0
 26 29  1  0  0  0  0
 24 25  1  0  0  0  0
 24 26  1  0  0  0  0
M  END
$$$$
default_name
  -OEChem-02102213163D

 29 29  0     1  0  0  0  0  0999 V2000
   -3.6042   -3.5728    1.4576 H   0  0  0  0  0  0  0  0  0  0  0  0
   -3.5202   -2.6488    0.8866 C   0  0  0  0  0  0  0  0  0  0  0  0
   -4.2052   -1.9048    1.2896 H   0  0  0  0  0  0  0  0  0  0  0  0
   -3.7552   -2.8428   -0.1584 H   0  0  0  0  0  0  0  0  0  0  0  0
   -2.1052   -2.1358    0.9946 C   0  0  0  0  0  0  0  0  0  0  0  0
   -1.2852   -2.7288    1.6826 O   0  0  0  0  0  0  0  0  0  0  0  0
   -1.8202   -1.0288    0.3146 N   0  0  0  0  0  0  0  0  0  0  0  0
   -2.5542   -0.5788   -0.2104 H   0  0  0  0  0  0  0  0  0  0  0  0
   -0.5102   -0.3728    0.3086 C   0  0  1  0  0  0  0  0  0  0  0  0
    0.2354   -1.0844   -0.0490 H   0  0  0  0  0  0  0  0  0  0  0  0
   -0.5452    0.8158   -0.6698 C   0  0  0  0  0  0  0  0  0  0  0  0
    0.3298    1.4454   -0.4986 H   0  0  0  0  0  0  0  0  0  0  0  0
   -0.4911    0.4368   -1.6920 H   0  0  0  0  0  0  0  0  0  0  0  0
   -1.7812    1.6677   -0.5407 C   0  0  0  0  0  0  0  0  0  0  0  0
   -2.5138    1.8735    0.6086 N   0  0  0  0  0  0  0  0  0  0  0  0
   -2.3650    1.4208    1.4980 H   0  0  0  0  0  0  0  0  0  0  0  0
   -3.4673    2.7803    0.3369 C   0  0  0  0  0  0  0  0  0  0  0  0
   -4.2054    3.1431    1.0418 H   0  0  0  0  0  0  0  0  0  0  0  0
   -3.3764    3.1816   -0.9395 N   0  0  0  0  0  0  0  0  0  0  0  0
   -2.3114    2.4786   -1.5086 C   0  0  0  0  0  0  0  0  0  0  0  0
   -1.9462    2.5823   -2.5222 H   0  0  0  0  0  0  0  0  0  0  0  0
   -0.1073    0.0565    1.7296 C   0  0  0  0  0  0  0  0  0  0  0  0
    1.0285   -0.1699    2.1459 O   0  0  0  0  0  0  0  0  0  0  0  0
   -1.0395    0.6588    2.4785 N   0  0  0  0  0  0  0  0  0  0  0  0
   -1.9636    0.7597    2.0849 H   0  0  0  0  0  0  0  0  0  0  0  0
   -0.8222    1.1334    3.8425 C   0  0  0  0  0  0  0  0  0  0  0  0
   -0.0212    1.8761    3.8521 H   0  0  0  0  0  0  0  0  0  0  0  0
   -1.7349    1.5853    4.2320 H   0  0  0  0  0  0  0  0  0  0  0  0
   -0.5312    0.2997    4.4834 H   0  0  0  0  0  0  0  0  0  0  0  0
  5  6  2  0  0  0  0
  5  7  1  0  0  0  0
  2  3  1  0  0  0  0
  2  4  1  0  0  0  0
  2  5  1  0  0  0  0
  1  2  1  0  0  0  0
 22 23  2  0  0  0  0
 22 24  1  0  0  0  0
 20 21  1  0  0  0  0
 19 20  1  0  0  0  0
 17 18  1  0  0  0  0
 17 19  2  0  0  0  0
 15 16  1  0  0  0  0
 15 17  1  0  0  0  0
 14 15  1  0  0  0  0
 14 20  2  0  0  0  0
 11 12  1  0  0  0  0
 11 13  1  0  0  0  0
 11 14  1  0  0  0  0
  9 10  1  0  0  0  0
  9 11  1  0  0  0  0
  9 22  1  0  0  0  0
  7  8  1  0  0  0  0
  7  9  1  0  0  0  0
 26 27  1  0  0  0  0
 26 28  1  0  0  0  0
 26 29  1  0  0  0  0
 24 25  1  0  0  0  0
 24 26  1  0  0  0  0
M  END
$$$$
default_name
  -OEChem-02102213163D

 29 29  0     1  0  0  0  0  0999 V2000
   -3.6042   -3.5728    1.4576 H   0  0  0  0  0  0  0  0  0  0  0  0
   -3.5202   -2.6488    0.8866 C   0  0  0  0  0  0  0  0  0  0  0  0
   -4.2052   -1.9048    1.2896 H   0  0  0  0  0  0  0  0  0  0  0  0
   -3.7552   -2.8428   -0.1584 H   0  0  0  0  0  0  0  0  0  0  0  0
   -2.1052   -2.1358    0.9946 C   0  0  0  0  0  0  0  0  0  0  0  0
   -1.2852   -2.7288    1.6826 O   0  0  0  0  0  0  0  0  0  0  0  0
   -1.8202   -1.0288    0.3146 N   0  0  0  0  0  0  0  0  0  0  0  0
   -2.5542   -0.5788   -0.2104 H   0  0  0  0  0  0  0  0  0  0  0  0
   -0.5102   -0.3728    0.3086 C   0  0  1  0  0  0  0  0  0  0  0  0
    0.2354   -1.0844   -0.0490 H   0  0  0  0  0  0  0  0  0  0  0  0
   -0.5452    0.8158   -0.6698 C   0  0  0  0  0  0  0  0  0  0  0  0
    0.3298    1.4454   -0.4986 H   0  0  0  0  0  0  0  0  0  0  0  0
   -0.4911    0.4368   -1.6920 H   0  0  0  0  0  0  0  0  0  0  0  0
   -1.7812    1.6677   -0.5407 C   0  0  0  0  0  0  0  0  0  0  0  0
   -2.3480    2.1100    0.6354 N   0  0  0  0  0  0  0  0  0  0  0  0
   -2.0556    1.8590    1.5679 H   0  0  0  0  0  0  0  0  0  0  0  0
   -3.3645    2.9316    0.3236 C   0  0  0  0  0  0  0  0  0  0  0  0
   -4.0066    3.4321    1.0380 H   0  0  0  0  0  0  0  0  0  0  0  0
   -3.4735    3.0511   -1.0076 N   0  0  0  0  0  0  0  0  0  0  0  0
   -2.4756    2.2493   -1.5678 C   0  0  0  0  0  0  0  0  0  0  0  0
   -2.2643    2.1360   -2.6233 H   0  0  0  0  0  0  0  0  0  0  0  0
   -0.1073    0.0565    1.7296 C   0  0  0  0  0  0  0  0  0  0  0  0
    1.0285   -0.1699    2.1459 O   0  0  0  0  0  0  0  0  0  0  0  0
   -1.0395    0.6588    2.4785 N   0  0  0  0  0  0  0  0  0  0  0  0
   -1.9636    0.7597    2.0849 H   0  0  0  0  0  0  0  0  0  0  0  0
   -0.8222    1.1334    3.8425 C   0  0  0  0  0  0  0  0  0  0  0  0
   -0.0212    1.8761    3.8521 H   0  0  0  0  0  0  0  0  0  0  0  0
   -1.7349    1.5853    4.2320 H   0  0  0  0  0  0  0  0  0  0  0  0
   -0.5312    0.2997    4.4834 H   0  0  0  0  0  0  0  0  0  0  0  0
  5  6  2  0  0  0  0
  5  7  1  0  0  0  0
  2  3  1  0  0  0  0
  2  4  1  0  0  0  0
  2  5  1  0  0  0  0
  1  2  1  0  0  0  0
 22 23  2  0  0  0  0
 22 24  1  0  0  0  0
 20 21  1  0  0  0  0
 19 20  1  0  0  0  0
 17 18  1  0  0  0  0
 17 19  2  0  0  0  0
 15 16  1  0  0  0  0
 15 17  1  0  0  0  0
 14 15  1  0  0  0  0
 14 20  2  0  0  0  0
 11 12  1  0  0  0  0
 11 13  1  0  0  0  0
 11 14  1  0  0  0  0
  9 10  1  0  0  0  0
  9 11  1  0  0  0  0
  9 22  1  0  0  0  0
  7  8  1  0  0  0  0
  7  9  1  0  0  0  0
 26 27  1  0  0  0  0
 26 28  1  0  0  0  0
 26 29  1  0  0  0  0
 24 25  1  0  0  0  0
 24 26  1  0  0  0  0
M  END
$$$$
default_name
  -OEChem-02102213163D

 29 29  0     1  0  0  0  0  0999 V2000
   -3.6042   -3.5728    1.4576 H   0  0  0  0  0  0  0  0  0  0  0  0
   -3.5202   -2.6488    0.8866 C   0  0  0  0  0  0  0  0  0  0  0  0
   -4.2052   -1.9048    1.2896 H   0  0  0  0  0  0  0  0  0  0  0  0
   -3.7552   -2.8428   -0.1584 H   0  0  0  0  0  0  0  0  0  0  0  0
   -2.1052   -2.1358    0.9946 C   0  0  0  0  0  0  0  0  0  0  0  0
   -1.2852   -2.7288    1.6826 O   0  0  0  0  0  0  0  0  0  0  0  0
   -1.8202   -1.0288    0.3146 N   0  0  0  0  0  0  0  0  0  0  0  0
   -2.5542   -0.5788   -0.2104 H   0  0  0  0  0  0  0  0  0  0  0  0
   -0.5102   -0.3728    0.3086 C   0  0  1  0  0  0  0  0  0  0  0  0
    0.2354   -1.0844   -0.0490 H   0  0  0  0  0  0  0  0  0  0  0  0
   -0.5452    0.8158   -0.6698 C   0  0  0  0  0  0  0  0  0  0  0  0
    0.3298    1.4454   -0.4986 H   0  0  0  0  0  0  0  0  0  0  0  0
   -0.4911    0.4368   -1.6920 H   0  0  0  0  0  0  0  0  0  0  0  0
   -1.7812    1.6677   -0.5407 C   0  0  0  0  0  0  0  0  0  0  0  0
   -2.1892    2.3478    0.5867 N   0  0  0  0  0  0  0  0  0  0  0  0
   -1.7563    2.3041    1.4971 H   0  0  0  0  0  0  0  0  0  0  0  0
   -3.2704    3.0772    0.2636 C   0  0  0  0  0  0  0  0  0  0  0  0
   -3.8215    3.7148    0.9439 H   0  0  0  0  0  0  0  0  0  0  0  0
   -3.5744    2.9083   -1.0316 N   0  0  0  0  0  0  0  0  0  0  0  0
   -2.6378    2.0116   -1.5523 C   0  0  0  0  0  0  0  0  0  0  0  0
   -2.5765    1.6765   -2.5797 H   0  0  0  0  0  0  0  0  0  0  0  0
   -0.1073    0.0565    1.7296 C   0  0  0  0  0  0  0  0  0  0  0  0
    1.0285   -0.1699    2.1459 O   0  0  0  0  0  0  0  0  0  0  0  0
   -1.0395    0.6588    2.4785 N   0  0  0  0  0  0  0  0  0  0  0  0
   -1.9636    0.7597    2.0849 H   0  0  0  0  0  0  0  0  0  0  0  0
   -0.8222    1.1334    3.8425 C   0  0  0  0  0  0  0  0  0  0  0  0
   -0.0212    1.8761    3.8521 H   0  0  0  0  0  0  0  0  0  0  0  0
   -1.7349    1.5853    4.2320 H   0  0  0  0  0  0  0  0  0  0  0  0
   -0.5312    0.2997    4.4834 H   0  0  0  0  0  0  0  0  0  0  0  0
  5  6  2  0  0  0  0
  5  7  1  0  0  0  0
  2  3  1  0  0  0  0
  2  4  1  0  0  0  0
  2  5  1  0  0  0  0
  1  2  1  0  0  0  0
 22 23  2  0  0  0  0
 22 24  1  0  0  0  0
 20 21  1  0  0  0  0
 19 20  1  0  0  0  0
 17 18  1  0  0  0  0
 17 19  2  0  0  0  0
 15 16  1  0  0  0  0
 15 17  1  0  0  0  0
 14 15  1  0  0  0  0
 14 20  2  0  0  0  0
 11 12  1  0  0  0  0
 11 13  1  0  0  0  0
 11 14  1  0  0  0  0
  9 10  1  0  0  0  0
  9 11  1  0  0  0  0
  9 22  1  0  0  0  0
  7  8  1  0  0  0  0
  7  9  1  0  0  0  0
 26 27  1  0  0  0  0
 26 28  1  0  0  0  0
 26 29  1  0  0  0  0
 24 25  1  0  0  0  0
 24 26  1  0  0  0  0
M  END
$$$$
default_name
  -OEChem-02102213163D

 29 29  0     1  0  0  0  0  0999 V2000
   -3.6042   -3.5728    1.4576 H   0  0  0  0  0  0  0  0  0  0  0  0
   -3.5202   -2.6488    0.8866 C   0  0  0  0  0  0  0  0  0  0  0  0
   -4.2052   -1.9048    1.2896 H   0  0  0  0  0  0  0  0  0  0  0  0
   -3.7552   -2.8428   -0.1584 H   0  0  0  0  0  0  0  0  0  0  0  0
   -2.1052   -2.1358    0.9946 C   0  0  0  0  0  0  0  0  0  0  0  0
   -1.2852   -2.7288    1.6826 O   0  0  0  0  0  0  0  0  0  0  0  0
   -1.8202   -1.0288    0.3146 N   0  0  0  0  0  0  0  0  0  0  0  0
   -2.5542   -0.5788   -0.2104 H   0  0  0  0  0  0  0  0  0  0  0  0
   -0.5102   -0.3728    0.3086 C   0  0  1  0  0  0  0  0  0  0  0  0
    0.2354   -1.0844   -0.0490 H   0  0  0  0  0  0  0  0  0  0  0  0
   -0.5452    0.8158   -0.6698 C   0  0  0  0  0  0  0  0  0  0  0  0
    0.3298    1.4454   -0.4986 H   0  0  0  0  0  0  0  0  0  0  0  0
   -0.4911    0.4368   -1.6920 H   0  0  0  0  0  0  0  0  0  0  0  0
   -1.7812    1.6677   -0.5407 C   0  0  0  0  0  0  0  0  0  0  0  0
   -2.0482    2.5706    0.4660 N   0  0  0  0  0  0  0  0  0  0  0  0
   -1.4874    2.7255    1.2904 H   0  0  0  0  0  0  0  0  0  0  0  0
   -3.1916    3.2071    0.1609 C   0  0  0  0  0  0  0  0  0  0  0  0
   -3.6628    3.9721    0.7659 H   0  0  0  0  0  0  0  0  0  0  0  0
   -3.6722    2.7631   -1.0096 N   0  0  0  0  0  0  0  0  0  0  0  0
   -2.7869    1.7817   -1.4632 C   0  0  0  0  0  0  0  0  0  0  0  0
   -2.8614    1.2350   -2.3943 H   0  0  0  0  0  0  0  0  0  0  0  0
   -0.1073    0.0565    1.7296 C   0  0  0  0  0  0  0  0  0  0  0  0
    1.0285   -0.1699    2.1459 O   0  0  0  0  0  0  0  0  0  0  0  0
   -1.0395    0.6588    2.4785 N   0  0  0  0  0  0  0  0  0  0  0  0
   -1.9636    0.7597    2.0849 H   0  0  0  0  0  0  0  0  0  0  0  0
   -0.8222    1.1334    3.8425 C   0  0  0  0  0  0  0  0  0  0  0  0
   -0.0212    1.8761    3.8521 H   0  0  0  0  0  0  0  0  0  0  0  0
   -1.7349    1.5853    4.2320 H   0  0  0  0  0  0  0  0  0  0  0  0
   -0.5312    0.2997    4.4834 H   0  0  0  0  0  0  0  0  0  0  0  0
  5  6  2  0  0  0  0
  5  7  1  0  0  0  0
  2  3  1  0  0  0  0
  2  4  1  0  0  0  0
  2  5  1  0  0  0  0
  1  2  1  0  0  0  0
 22 23  2  0  0  0  0
 22 24  1  0  0  0  0
 20 21  1  0  0  0  0
 19 20  1  0  0  0  0
 17 18  1  0  0  0  0
 17 19  2  0  0  0  0
 15 16  1  0  0  0  0
 15 17  1  0  0  0  0
 14 15  1  0  0  0  0
 14 20  2  0  0  0  0
 11 12  1  0  0  0  0
 11 13  1  0  0  0  0
 11 14  1  0  0  0  0
  9 10  1  0  0  0  0
  9 11  1  0  0  0  0
  9 22  1  0  0  0  0
  7  8  1  0  0  0  0
  7  9  1  0  0  0  0
 26 27  1  0  0  0  0
 26 28  1  0  0  0  0
 26 29  1  0  0  0  0
 24 25  1  0  0  0  0
 24 26  1  0  0  0  0
M  END
$$$$
default_name
  -OEChem-02102213163D

 29 29  0     1  0  0  0  0  0999 V2000
   -3.6042   -3.5728    1.4576 H   0  0  0  0  0  0  0  0  0  0  0  0
   -3.5202   -2.6488    0.8866 C   0  0  0  0  0  0  0  0  0  0  0  0
   -4.2052   -1.9048    1.2896 H   0  0  0  0  0  0  0  0  0  0  0  0
   -3.7552   -2.8428   -0.1584 H   0  0  0  0  0  0  0  0  0  0  0  0
   -2.1052   -2.1358    0.9946 C   0  0  0  0  0  0  0  0  0  0  0  0
   -1.2852   -2.7288    1.6826 O   0  0  0  0  0  0  0  0  0  0  0  0
   -1.8202   -1.0288    0.3146 N   0  0  0  0  0  0  0  0  0  0  0  0
   -2.5542   -0.5788   -0.2104 H   0  0  0  0  0  0  0  0  0  0  0  0
   -0.5102   -0.3728    0.3086 C   0  0  1  0  0  0  0  0  0  0  0  0
    0.2354   -1.0844   -0.0490 H   0  0  0  0  0  0  0  0  0  0  0  0
   -0.5452    0.8158   -0.6698 C   0  0  0  0  0  0  0  0  0  0  0  0
    0.3298    1.4454   -0.4986 H   0  0  0  0  0  0  0  0  0  0  0  0
   -0.4911    0.4368   -1.6920 H   0  0  0  0  0  0  0  0  0  0  0  0
   -1.7812    1.6677   -0.5407 C   0  0  0  0  0  0  0  0  0  0  0  0
   -1.9346    2.7634    0.2815 N   0  0  0  0  0  0  0  0  0  0  0  0
   -1.2673    3.0947    0.9619 H   0  0  0  0  0  0  0  0  0  0  0  0
   -3.1333    3.3126    0.0227 C   0  0  0  0  0  0  0  0  0  0  0  0
   -3.5413    4.1862    0.5161 H   0  0  0  0  0  0  0  0  0  0  0  0
   -3.7602    2.6253   -0.9433 N   0  0  0  0  0  0  0  0  0  0  0  0
   -2.9128    1.5753   -1.3064 C   0  0  0  0  0  0  0  0  0  0  0  0
   -3.0998    0.8415   -2.0797 H   0  0  0  0  0  0  0  0  0  0  0  0
   -0.1073    0.0565    1.7296 C   0  0  0  0  0  0  0  0  0  0  0  0
    1.0285   -0.1699    2.1459 O   0  0  0  0  0  0  0  0  0  0  0  0
   -1.0395    0.6588    2.4785 N   0  0  0  0  0  0  0  0  0  0  0  0
   -1.9636    0.7597    2.0849 H   0  0  0  0  0  0  0  0  0  0  0  0
   -0.8222    1.1334    3.8425 C   0  0  0  0  0  0  0  0  0  0  0  0
   -0.0212    1.8761    3.8521 H   0  0  0  0  0  0  0  0  0  0  0  0
   -1.7349    1.5853    4.2320 H   0  0  0  0  0  0  0  0  0  0  0  0
   -0.5312    0.2997    4.4834 H   0  0  0  0  0  0  0  0  0  0  0  0
  5  6  2  0  0  0  0
  5  7  1  0  0  0  0
  2  3  1  0  0  0  0
  2  4  1  0  0  0  0
  2  5  1  0  0  0  0
  1  2  1  0  0  0  0
 22 23  2  0  0  0  0
 22 24  1  0  0  0  0
 20 21  1  0  0  0  0
 19 20  1  0  0  0  0
 17 18  1  0  0  0  0
 17 19  2  0  0  0  0
 15 16  1  0  0  0  0
 15 17  1  0  0  0  0
 14 15  1  0  0  0  0
 14 20  2  0  0  0  0
 11 12  1  0  0  0  0
 11 13  1  0  0  0  0
 11 14  1  0  0  0  0
  9 10  1  0  0  0  0
  9 11  1  0  0  0  0
  9 22  1  0  0  0  0
  7  8  1  0  0  0  0
  7  9  1  0  0  0  0
 26 27  1  0  0  0  0
 26 28  1  0  0  0  0
 26 29  1  0  0  0  0
 24 25  1  0  0  0  0
 24 26  1  0  0  0  0
M  END
$$$$
default_name
  -OEChem-02102213163D

 29 29  0     1  0  0  0  0  0999 V2000
   -3.6042   -3.5728    1.4576 H   0  0  0  0  0  0  0  0  0  0  0  0
   -3.5202   -2.6488    0.8866 C   0  0  0  0  0  0  0  0  0  0  0  0
   -4.2052   -1.9048    1.2896 H   0  0  0  0  0  0  0  0  0  0  0  0
   -3.7552   -2.8428   -0.1584 H   0  0  0  0  0  0  0  0  0  0  0  0
   -2.1052   -2.1358    0.9946 C   0  0  0  0  0  0  0  0  0  0  0  0
   -1.2852   -2.7288    1.6826 O   0  0  0  0  0  0  0  0  0  0  0  0
   -1.8202   -1.0288    0.3146 N   0  0  0  0  0  0  0  0  0  0  0  0
   -2.5542   -0.5788   -0.2104 H   0  0  0  0  0  0  0  0  0  0  0  0
   -0.5102   -0.3728    0.3086 C   0  0  1  0  0  0  0  0  0  0  0  0
    0.2354   -1.0844   -0.0490 H   0  0  0  0  0  0  0  0  0  0  0  0
   -0.5452    0.8158   -0.6698 C   0  0  0  0  0  0  0  0  0  0  0  0
    0.3298    1.4454   -0.4986 H   0  0  0  0  0  0  0  0  0  0  0  0
   -0.4911    0.4368   -1.6920 H   0  0  0  0  0  0  0  0  0  0  0  0
   -1.7812    1.6677   -0.5407 C   0  0  0  0  0  0  0  0  0  0  0  0
   -1.8562    2.9130    0.0456 N   0  0  0  0  0  0  0  0  0  0  0  0
   -1.1109    3.3864    0.5341 H   0  0  0  0  0  0  0  0  0  0  0  0
   -3.0996    3.3864   -0.1418 C   0  0  0  0  0  0  0  0  0  0  0  0
   -3.4652    4.3428    0.2116 H   0  0  0  0  0  0  0  0  0  0  0  0
   -3.8325    2.5044   -0.8370 N   0  0  0  0  0  0  0  0  0  0  0  0
   -3.0069    1.4064   -1.0927 C   0  0  0  0  0  0  0  0  0  0  0  0
   -3.2752    0.5230   -1.6575 H   0  0  0  0  0  0  0  0  0  0  0  0
   -0.1073    0.0565    1.7296 C   0  0  0  0  0  0  0  0  0  0  0  0
    1.0285   -0.1699    2.1459 O   0  0  0  0  0  0  0  0  0  0  0  0
   -1.0395    0.6588    2.4785 N   0  0  0  0  0  0  0  0  0  0  0  0
   -1.9636    0.7597    2.0849 H   0  0  0  0  0  0  0  0  0  0  0  0
   -0.8222    1.1334    3.8425 C   0  0  0  0  0  0  0  0  0  0  0  0
   -0.0212    1.8761    3.8521 H   0  0  0  0  0  0  0  0  0  0  0  0
   -1.7349    1.5853    4.2320 H   0  0  0  0  0  0  0  0  0  0  0  0
   -0.5312    0.2997    4.4834 H   0  0  0  0  0  0  0  0  0  0  0  0
  5  6  2  0  0  0  0
  5  7  1  0  0  0  0
  2  3  1  0  0  0  0
  2  4  1  0  0  0  0
  2  5  1  0  0  0  0
  1  2  1  0  0  0  0
 22 23  2  0  0  0  0
 22 24  1  0  0  0  0
 20 21  1  0  0  0  0
 19 20  1  0  0  0  0
 17 18  1  0  0  0  0
 17 19  2  0  0  0  0
 15 16  1  0  0  0  0
 15 17  1  0  0  0  0
 14 15  1  0  0  0  0
 14 20  2  0  0  0  0
 11 12  1  0  0  0  0
 11 13  1  0  0  0  0
 11 14  1  0  0  0  0
  9 10  1  0  0  0  0
  9 11  1  0  0  0  0
  9 22  1  0  0  0  0
  7  8  1  0  0  0  0
  7  9  1  0  0  0  0
 26 27  1  0  0  0  0
 26 28  1  0  0  0  0
 26 29  1  0  0  0  0
 24 25  1  0  0  0  0
 24 26  1  0  0  0  0
M  END
$$$$
default_name
  -OEChem-02102213163D

 29 29  0     1  0  0  0  0  0999 V2000
   -3.6042   -3.5728    1.4576 H   0  0  0  0  0  0  0  0  0  0  0  0
   -3.5202   -2.6488    0.8866 C   0  0  0  0  0  0  0  0  0  0  0  0
   -4.2052   -1.9048    1.2896 H   0  0  0  0  0  0  0  0  0  0  0  0
   -3.7552   -2.8428   -0.1584 H   0  0  0  0  0  0  0  0  0  0  0  0
   -2.1052   -2.1358    0.9946 C   0  0  0  0  0  0  0  0  0  0  0  0
   -1.2852   -2.7288    1.6826 O   0  0  0  0  0  0  0  0  0  0  0  0
   -1.8202   -1.0288    0.3146 N   0  0  0  0  0  0  0  0  0  0  0  0
   -2.5542   -0.5788   -0.2104 H   0  0  0  0  0  0  0  0  0  0  0  0
   -0.5102   -0.3728    0.3086 C   0  0  1  0  0  0  0  0  0  0  0  0
    0.2354   -1.0844   -0.0490 H   0  0  0  0  0  0  0  0  0  0  0  0
   -0.5452    0.8158   -0.6698 C   0  0  0  0  0  0  0  0  0  0  0  0
    0.3298    1.4454   -0.4986 H   0  0  0  0  0  0  0  0  0  0  0  0
   -0.4911    0.4368   -1.6920 H   0  0  0  0  0  0  0  0  0  0  0  0
   -1.7812    1.6677   -0.5407 C   0  0  0  0  0  0  0  0  0  0  0  0
   -1.8182    3.0091   -0.2254 N   0  0  0  0  0  0  0  0  0  0  0  0
   -1.0289    3.5808    0.0359 H   0  0  0  0  0  0  0  0  0  0  0  0
   -3.0928    3.4235   -0.3213 C   0  0  0  0  0  0  0  0  0  0  0  0
   -3.4397    4.4310   -0.1270 H   0  0  0  0  0  0  0  0  0  0  0  0
   -3.8840    2.4085   -0.6982 N   0  0  0  0  0  0  0  0  0  0  0  0
   -3.0628    1.2865   -0.8367 C   0  0  0  0  0  0  0  0  0  0  0  0
   -3.3759    0.3010   -1.1563 H   0  0  0  0  0  0  0  0  0  0  0  0
   -0.1073    0.0565    1.7296 C   0  0  0  0  0  0  0  0  0  0  0  0
    1.0285   -0.1699    2.1459 O   0  0  0  0  0  0  0  0  0  0  0  0
   -1.0395    0.6588    2.4785 N   0  0  0  0  0  0  0  0  0  0  0  0
   -1.9636    0.7597    2.0849 H   0  0  0  0  0  0  0  0  0  0  0  0
   -0.8222    1.1334    3.8425 C   0  0  0  0  0  0  0  0  0  0  0  0
   -0.0212    1.8761    3.8521 H   0  0  0  0  0  0  0  0  0  0  0  0
   -1.7349    1.5853    4.2320 H   0  0  0  0  0  0  0  0  0  0  0  0
   -0.5312    0.2997    4.4834 H   0  0  0  0  0  0  0  0  0  0  0  0
  5  6  2  0  0  0  0
  5  7  1  0  0  0  0
  2  3  1  0  0  0  0
  2  4  1  0  0  0  0
  2  5  1  0  0  0  0
  1  2  1  0  0  0  0
 22 23  2  0  0  0  0
 22 24  1  0  0  0  0
 20 21  1  0  0  0  0
 19 20  1  0  0  0  0
 17 18  1  0  0  0  0
 17 19  2  0  0  0  0
 15 16  1  0  0  0  0
 15 17  1  0  0  0  0
 14 15  1  0  0  0  0
 14 20  2  0  0  0  0
 11 12  1  0  0  0  0
 11 13  1  0  0  0  0
 11 14  1  0  0  0  0
  9 10  1  0  0  0  0
  9 11  1  0  0  0  0
  9 22  1  0  0  0  0
  7  8  1  0  0  0  0
  7  9  1  0  0  0  0
 26 27  1  0  0  0  0
 26 28  1  0  0  0  0
 26 29  1  0  0  0  0
 24 25  1  0  0  0  0
 24 26  1  0  0  0  0
M  END
$$$$
default_name
  -OEChem-02102213163D

 29 29  0     1  0  0  0  0  0999 V2000
   -3.6042   -3.5728    1.4576 H   0  0  0  0  0  0  0  0  0  0  0  0
   -3.5202   -2.6488    0.8866 C   0  0  0  0  0  0  0  0  0  0  0  0
   -4.2052   -1.9048    1.2896 H   0  0  0  0  0  0  0  0  0  0  0  0
   -3.7552   -2.8428   -0.1584 H   0  0  0  0  0  0  0  0  0  0  0  0
   -2.1052   -2.1358    0.9946 C   0  0  0  0  0  0  0  0  0  0  0  0
   -1.2852   -2.7288    1.6826 O   0  0  0  0  0  0  0  0  0  0  0  0
   -1.8202   -1.0288    0.3146 N   0  0  0  0  0  0  0  0  0  0  0  0
   -2.5542   -0.5788   -0.2104 H   0  0  0  0  0  0  0  0  0  0  0  0
   -0.5102   -0.3728    0.3086 C   0  0  1  0  0  0  0  0  0  0  0  0
    0.2354   -1.0844   -0.0490 H   0  0  0  0  0  0  0  0  0  0  0  0
   -0.5452    0.8158   -0.6698 C   0  0  0  0  0  0  0  0  0  0  0  0
    0.3298    1.4454   -0.4986 H   0  0  0  0  0  0  0  0  0  0  0  0
   -0.4911    0.4368   -1.6920 H   0  0  0  0  0  0  0  0  0  0  0  0
   -1.7812    1.6677   -0.5407 C   0  0  0  0  0  0  0  0  0  0  0  0
   -1.8234    3.0452   -0.5131 N   0  0  0  0  0  0  0  0  0  0  0  0
   -1.0269    3.6646   -0.4985 H   0  0  0  0  0  0  0  0  0  0  0  0
   -3.1132    3.4214   -0.5035 C   0  0  0  0  0  0  0  0  0  0  0  0
   -3.4667    4.4449   -0.4764 H   0  0  0  0  0  0  0  0  0  0  0  0
   -3.9114    2.3443   -0.5362 N   0  0  0  0  0  0  0  0  0  0  0  0
   -3.0766    1.2239   -0.5558 C   0  0  0  0  0  0  0  0  0  0  0  0
   -3.3948    0.1908   -0.6104 H   0  0  0  0  0  0  0  0  0  0  0  0
   -0.1073    0.0565    1.7296 C   0  0  0  0  0  0  0  0  0  0  0  0
    1.0285   -0.1699    2.1459 O   0  0  0  0  0  0  0  0  0  0  0  0
   -1.0395    0.6588    2.4785 N   0  0  0  0  0  0  0  0  0  0  0  0
   -1.9636    0.7597    2.0849 H   0  0  0  0  0  0  0  0  0  0  0  0
   -0.8222    1.1334    3.8425 C   0  0  0  0  0  0  0  0  0  0  0  0
   -0.0212    1.8761    3.8521 H   0  0  0  0  0  0  0  0  0  0  0  0
   -1.7349    1.5853    4.2320 H   0  0  0  0  0  0  0  0  0  0  0  0
   -0.5312    0.2997    4.4834 H   0  0  0  0  0  0  0  0  0  0  0  0
  5  6  2  0  0  0  0
  5  7  1  0  0  0  0
  2  3  1  0  0  0  0
  2  4  1  0  0  0  0
  2  5  1  0  0  0  0
  1  2  1  0  0  0  0
 22 23  2  0  0  0  0
 22 24  1  0  0  0  0
 20 21  1  0  0  0  0
 19 20  1  0  0  0  0
 17 18  1  0  0  0  0
 17 19  2  0  0  0  0
 15 16  1  0  0  0  0
 15 17  1  0  0  0  0
 14 15  1  0  0  0  0
 14 20  2  0  0  0  0
 11 12  1  0  0  0  0
 11 13  1  0  0  0  0
 11 14  1  0  0  0  0
  9 10  1  0  0  0  0
  9 11  1  0  0  0  0
  9 22  1  0  0  0  0
  7  8  1  0  0  0  0
  7  9  1  0  0  0  0
 26 27  1  0  0  0  0
 26 28  1  0  0  0  0
 26 29  1  0  0  0  0
 24 25  1  0  0  0  0
 24 26  1  0  0  0  0
M  END
$$$$
default_name
  -OEChem-02102213163D

 29 29  0     1  0  0  0  0  0999 V2000
   -3.6042   -3.5728    1.4576 H   0  0  0  0  0  0  0  0  0  0  0  0
   -3.5202   -2.6488    0.8866 C   0  0  0  0  0  0  0  0  0  0  0  0
   -4.2052   -1.9048    1.2896 H   0  0  0  0  0  0  0  0  0  0  0  0
   -3.7552   -2.8428   -0.1584 H   0  0  0  0  0  0  0  0  0  0  0  0
   -2.1052   -2.1358    0.9946 C   0  0  0  0  0  0  0  0  0  0  0  0
   -1.2852   -2.7288    1.6826 O   0  0  0  0  0  0  0  0  0  0  0  0
   -1.8202   -1.0288    0.3146 N   0  0  0  0  0  0  0  0  0  0  0  0
   -2.5542   -0.5788   -0.2104 H   0  0  0  0  0  0  0  0  0  0  0  0
   -0.5102   -0.3728    0.3086 C   0  0  1  0  0  0  0  0  0  0  0  0
    0.2354   -1.0844   -0.0490 H   0  0  0  0  0  0  0  0  0  0  0  0
   -0.5452    0.8158   -0.6698 C   0  0  0  0  0  0  0  0  0  0  0  0
    0.3298    1.4454   -0.4986 H   0  0  0  0  0  0  0  0  0  0  0  0
   -0.4911    0.4368   -1.6920 H   0  0  0  0  0  0  0  0  0  0  0  0
   -1.7812    1.6677   -0.5407 C   0  0  0  0  0  0  0  0  0  0  0  0
   -1.8712    3.0189   -0.7980 N   0  0  0  0  0  0  0  0  0  0  0  0
   -1.1051    3.6322   -1.0328 H   0  0  0  0  0  0  0  0  0  0  0  0
   -3.1596    3.3802   -0.6761 C   0  0  0  0  0  0  0  0  0  0  0  0
   -3.5441    4.3836   -0.8130 H   0  0  0  0  0  0  0  0  0  0  0  0
   -3.9127    2.3160   -0.3620 N   0  0  0  0  0  0  0  0  0  0  0  0
   -3.0475    1.2227   -0.2691 C   0  0  0  0  0  0  0  0  0  0  0  0
   -3.3308    0.1999   -0.0569 H   0  0  0  0  0  0  0  0  0  0  0  0
   -0.1073    0.0565    1.7296 C   0  0  0  0  0  0  0  0  0  0  0  0
    1.0285   -0.1699    2.1459 O   0  0  0  0  0  0  0  0  0  0  0  0
   -1.0395    0.6588    2.4785 N   0  0  0  0  0  0  0  0  0  0  0  0
   -1.9636    0.7597    2.0849 H   0  0  0  0  0  0  0  0  0  0  0  0
   -0.8222    1.1334    3.8425 C   0  0  0  0  0  0  0  0  0  0  0  0
   -0.0212    1.8761    3.8521 H   0  0  0  0  0  0  0  0  0  0  0  0
   -1.7349    1.5853    4.2320 H   0  0  0  0  0  0  0  0  0  0  0  0
   -0.5312    0.2997    4.4834 H   0  0  0  0  0  0  0  0  0  0  0  0
  5  6  2  0  0  0  0
  5  7  1  0  0  0  0
  2  3  1  0  0  0  0
  2  4  1  0  0  0  0
  2  5  1  0  0  0  0
  1  2  1  0  0  0  0
 22 23  2  0  0  0  0
 22 24  1  0  0  0  0
 20 21  1  0  0  0  0
 19 20  1  0  0  0  0
 17 18  1  0  0  0  0
 17 19  2  0  0  0  0
 15 16  1  0  0  0  0
 15 17  1  0  0  0  0
 14 15  1  0  0  0  0
 14 20  2  0  0  0  0
 11 12  1  0  0  0  0
 11 13  1  0  0  0  0
 11 14  1  0  0  0  0
  9 10  1  0  0  0  0
  9 11  1  0  0  0  0
  9 22  1  0  0  0  0
  7  8  1  0  0  0  0
  7  9  1  0  0  0  0
 26 27  1  0  0  0  0
 26 28  1  0  0  0  0
 26 29  1  0  0  0  0
 24 25  1  0  0  0  0
 24 26  1  0  0  0  0
M  END
$$$$
default_name
  -OEChem-02102213163D

 29 29  0     1  0  0  0  0  0999 V2000
   -3.6042   -3.5728    1.4576 H   0  0  0  0  0  0  0  0  0  0  0  0
   -3.5202   -2.6488    0.8866 C   0  0  0  0  0  0  0  0  0  0  0  0
   -4.2052   -1.9048    1.2896 H   0  0  0  0  0  0  0  0  0  0  0  0
   -3.7552   -2.8428   -0.1584 H   0  0  0  0  0  0  0  0  0  0  0  0
   -2.1052   -2.1358    0.9946 C   0  0  0  0  0  0  0  0  0  0  0  0
   -1.2852   -2.7288    1.6826 O   0  0  0  0  0  0  0  0  0  0  0  0
   -1.8202   -1.0288    0.3146 N   0  0  0  0  0  0  0  0  0  0  0  0
   -2.5542   -0.5788   -0.2104 H   0  0  0  0  0  0  0  0  0  0  0  0
   -0.5102   -0.3728    0.3086 C   0  0  1  0  0  0  0  0  0  0  0  0
    0.2354   -1.0844   -0.0490 H   0  0  0  0  0  0  0  0  0  0  0  0
   -0.5452    0.8158   -0.6698 C   0  0  0  0  0  0  0  0  0  0  0  0
    0.3298    1.4454   -0.4986 H   0  0  0  0  0  0  0  0  0  0  0  0
   -0.4911    0.4368   -1.6920 H   0  0  0  0  0  0  0  0  0  0  0  0
   -1.7812    1.6677   -0.5407 C   0  0  0  0  0  0  0  0  0  0  0  0
   -1.9586    2.9320   -1.0606 N   0  0  0  0  0  0  0  0  0  0  0  0
   -1.2581    3.4857   -1.5306 H   0  0  0  0  0  0  0  0  0  0  0  0
   -3.2288    3.3028   -0.8273 C   0  0  0  0  0  0  0  0  0  0  0  0
   -3.6668    4.2511   -1.1137 H   0  0  0  0  0  0  0  0  0  0  0  0
   -3.8879    2.3256   -0.1876 N   0  0  0  0  0  0  0  0  0  0  0  0
   -2.9774    1.2831    0.0038 C   0  0  0  0  0  0  0  0  0  0  0  0
   -3.1881    0.3276    0.4664 H   0  0  0  0  0  0  0  0  0  0  0  0
   -0.1073    0.0565    1.7296 C   0  0  0  0  0  0  0  0  0  0  0  0
    1.0285   -0.1699    2.1459 O   0  0  0  0  0  0  0  0  0  0  0  0
   -1.0395    0.6588    2.4785 N   0  0  0  0  0  0  0  0  0  0  0  0
   -1.9636    0.7597    2.0849 H   0  0  0  0  0  0  0  0  0  0  0  0
   -0.8222    1.1334    3.8425 C   0  0  0  0  0  0  0  0  0  0  0  0
   -0.0212    1.8761    3.8521 H   0  0  0  0  0  0  0  0  0  0  0  0
   -1.7349    1.5853    4.2320 H   0  0  0  0  0  0  0  0  0  0  0  0
   -0.5312    0.2997    4.4834 H   0  0  0  0  0  0  0  0  0  0  0  0
  5  6  2  0  0  0  0
  5  7  1  0  0  0  0
  2  3  1  0  0  0  0
  2  4  1  0  0  0  0
  2  5  1  0  0  0  0
  1  2  1  0  0  0  0
 22 23  2  0  0  0  0
 22 24  1  0  0  0  0
 20 21  1  0  0  0  0
 19 20  1  0  0  0  0
 17 18  1  0  0  0  0
 17 19  2  0  0  0  0
 15 16  1  0  0  0  0
 15 17  1  0  0  0  0
 14 15  1  0  0  0  0
 14 20  2  0  0  0  0
 11 12  1  0  0  0  0
 11 13  1  0  0  0  0
 11 14  1  0  0  0  0
  9 10  1  0  0  0  0
  9 11  1  0  0  0  0
  9 22  1  0  0  0  0
  7  8  1  0  0  0  0
  7  9  1  0  0  0  0
 26 27  1  0  0  0  0
 26 28  1  0  0  0  0
 26 29  1  0  0  0  0
 24 25  1  0  0  0  0
 24 26  1  0  0  0  0
M  END
$$$$
default_name
  -OEChem-02102213163D

 29 29  0     1  0  0  0  0  0999 V2000
   -3.6042   -3.5728    1.4576 H   0  0  0  0  0  0  0  0  0  0  0  0
   -3.5202   -2.6488    0.8866 C   0  0  0  0  0  0  0  0  0  0  0  0
   -4.2052   -1.9048    1.2896 H   0  0  0  0  0  0  0  0  0  0  0  0
   -3.7552   -2.8428   -0.1584 H   0  0  0  0  0  0  0  0  0  0  0  0
   -2.1052   -2.1358    0.9946 C   0  0  0  0  0  0  0  0  0  0  0  0
   -1.2852   -2.7288    1.6826 O   0  0  0  0  0  0  0  0  0  0  0  0
   -1.8202   -1.0288    0.3146 N   0  0  0  0  0  0  0  0  0  0  0  0
   -2.5542   -0.5788   -0.2104 H   0  0  0  0  0  0  0  0  0  0  0  0
   -0.5102   -0.3728    0.3086 C   0  0  1  0  0  0  0  0  0  0  0  0
    0.2354   -1.0844   -0.0490 H   0  0  0  0  0  0  0  0  0  0  0  0
   -0.5452    0.8158   -0.6698 C   0  0  0  0  0  0  0  0  0  0  0  0
    0.4374    1.2904   -0.6907 H   0  0  0  0  0  0  0  0  0  0  0  0
   -0.7597    0.4442   -1.6735 H   0  0  0  0  0  0  0  0  0  0  0  0
   -1.5737    1.8586   -0.3163 C   0  0  0  0  0  0  0  0  0  0  0  0
   -1.8265    3.0230   -1.0093 N   0  0  0  0  0  0  0  0  0  0  0  0
   -1.3053    3.3692   -1.8010 H   0  0  0  0  0  0  0  0  0  0  0  0
   -2.8874    3.6219   -0.4427 C   0  0  0  0  0  0  0  0  0  0  0  0
   -3.3215    4.5610   -0.7635 H   0  0  0  0  0  0  0  0  0  0  0  0
   -3.3421    2.8877    0.5832 N   0  0  0  0  0  0  0  0  0  0  0  0
   -2.5129    1.7668    0.6761 C   0  0  0  0  0  0  0  0  0  0  0  0
   -2.6157    0.9526    1.3818 H   0  0  0  0  0  0  0  0  0  0  0  0
   -0.1073    0.0565    1.7296 C   0  0  0  0  0  0  0  0  0  0  0  0
    1.0285   -0.1699    2.1459 O   0  0  0  0  0  0  0  0  0  0  0  0
   -1.0395    0.6588    2.4785 N   0  0  0  0  0  0  0  0  0  0  0  0
   -1.9636    0.7597    2.0849 H   0  0  0  0  0  0  0  0  0  0  0  0
   -0.8222    1.1334    3.8425 C   0  0  0  0  0  0  0  0  0  0  0  0
   -0.0212    1.8761    3.8521 H   0  0  0  0  0  0  0  0  0  0  0  0
   -1.7349    1.5853    4.2320 H   0  0  0  0  0  0  0  0  0  0  0  0
   -0.5312    0.2997    4.4834 H   0  0  0  0  0  0  0  0  0  0  0  0
  5  6  2  0  0  0  0
  5  7  1  0  0  0  0
  2  3  1  0  0  0  0
  2  4  1  0  0  0  0
  2  5  1  0  0  0  0
  1  2  1  0  0  0  0
 22 23  2  0  0  0  0
 22 24  1  0  0  0  0
 20 21  1  0  0  0  0
 19 20  1  0  0  0  0
 17 18  1  0  0  0  0
 17 19  2  0  0  0  0
 15 16  1  0  0  0  0
 15 17  1  0  0  0  0
 14 15  1  0  0  0  0
 14 20  2  0  0  0  0
 11 12  1  0  0  0  0
 11 13  1  0  0  0  0
 11 14  1  0  0  0  0
  9 10  1  0  0  0  0
  9 11  1  0  0  0  0
  9 22  1  0  0  0  0
  7  8  1  0  0  0  0
  7  9  1  0  0  0  0
 26 27  1  0  0  0  0
 26 28  1  0  0  0  0
 26 29  1  0  0  0  0
 24 25  1  0  0  0  0
 24 26  1  0  0  0  0
M  END
$$$$
default_name
  -OEChem-02102213163D

 29 29  0     1  0  0  0  0  0999 V2000
   -3.6042   -3.5728    1.4576 H   0  0  0  0  0  0  0  0  0  0  0  0
   -3.5202   -2.6488    0.8866 C   0  0  0  0  0  0  0  0  0  0  0  0
   -4.2052   -1.9048    1.2896 H   0  0  0  0  0  0  0  0  0  0  0  0
   -3.7552   -2.8428   -0.1584 H   0  0  0  0  0  0  0  0  0  0  0  0
   -2.1052   -2.1358    0.9946 C   0  0  0  0  0  0  0  0  0  0  0  0
   -1.2852   -2.7288    1.6826 O   0  0  0  0  0  0  0  0  0  0  0  0
   -1.8202   -1.0288    0.3146 N   0  0  0  0  0  0  0  0  0  0  0  0
   -2.5542   -0.5788   -0.2104 H   0  0  0  0  0  0  0  0  0  0  0  0
   -0.5102   -0.3728    0.3086 C   0  0  1  0  0  0  0  0  0  0  0  0
    0.2354   -1.0844   -0.0490 H   0  0  0  0  0  0  0  0  0  0  0  0
   -0.5452    0.8158   -0.6698 C   0  0  0  0  0  0  0  0  0  0  0  0
    0.4374    1.2904   -0.6907 H   0  0  0  0  0  0  0  0  0  0  0  0
   -0.7597    0.4442   -1.6735 H   0  0  0  0  0  0  0  0  0  0  0  0
   -1.5737    1.8586   -0.3163 C   0  0  0  0  0  0  0  0  0  0  0  0
   -2.0317    2.8648   -1.1396 N   0  0  0  0  0  0  0  0  0  0  0  0
   -1.6841    3.0839   -2.0612 H   0  0  0  0  0  0  0  0  0  0  0  0
   -3.0209    3.5089   -0.4979 C   0  0  0  0  0  0  0  0  0  0  0  0
   -3.5749    4.3535   -0.8890 H   0  0  0  0  0  0  0  0  0  0  0  0
   -3.2328    2.9543    0.7046 N   0  0  0  0  0  0  0  0  0  0  0  0
   -2.3164    1.9073    0.8332 C   0  0  0  0  0  0  0  0  0  0  0  0
   -2.2322    1.2316    1.6745 H   0  0  0  0  0  0  0  0  0  0  0  0
   -0.1073    0.0565    1.7296 C   0  0  0  0  0  0  0  0  0  0  0  0
    1.0285   -0.1699    2.1459 O   0  0  0  0  0  0  0  0  0  0  0  0
   -1.0395    0.6588    2.4785 N   0  0  0  0  0  0  0  0  0  0  0  0
   -1.9636    0.7597    2.0849 H   0  0  0  0  0  0  0  0  0  0  0  0
   -0.8222    1.1334    3.8425 C   0  0  0  0  0  0  0  0  0  0  0  0
   -0.0212    1.8761    3.8521 H   0  0  0  0  0  0  0  0  0  0  0  0
   -1.7349    1.5853    4.2320 H   0  0  0  0  0  0  0  0  0  0  0  0
   -0.5312    0.2997    4.4834 H   0  0  0  0  0  0  0  0  0  0  0  0
  5  6  2  0  0  0  0
  5  7  1  0  0  0  0
  2  3  1  0  0  0  0
  2  4  1  0  0  0  0
  2  5  1  0  0  0  0
  1  2  1  0  0  0  0
 22 23  2  0  0  0  0
 22 24  1  0  0  0  0
 20 21  1  0  0  0  0
 19 20  1  0  0  0  0
 17 18  1  0  0  0  0
 17 19  2  0  0  0  0
 15 16  1  0  0  0  0
 15 17  1  0  0  0  0
 14 15  1  0  0  0  0
 14 20  2  0  0  0  0
 11 12  1  0  0  0  0
 11 13  1  0  0  0  0
 11 14  1  0  0  0  0
  9 10  1  0  0  0  0
  9 11  1  0  0  0  0
  9 22  1  0  0  0  0
  7  8  1  0  0  0  0
  7  9  1  0  0  0  0
 26 27  1  0  0  0  0
 26 28  1  0  0  0  0
 26 29  1  0  0  0  0
 24 25  1  0  0  0  0
 24 26  1  0  0  0  0
M  END
$$$$
default_name
  -OEChem-02102213163D

 29 29  0     1  0  0  0  0  0999 V2000
   -3.6042   -3.5728    1.4576 H   0  0  0  0  0  0  0  0  0  0  0  0
   -3.5202   -2.6488    0.8866 C   0  0  0  0  0  0  0  0  0  0  0  0
   -4.2052   -1.9048    1.2896 H   0  0  0  0  0  0  0  0  0  0  0  0
   -3.7552   -2.8428   -0.1584 H   0  0  0  0  0  0  0  0  0  0  0  0
   -2.1052   -2.1358    0.9946 C   0  0  0  0  0  0  0  0  0  0  0  0
   -1.2852   -2.7288    1.6826 O   0  0  0  0  0  0  0  0  0  0  0  0
   -1.8202   -1.0288    0.3146 N   0  0  0  0  0  0  0  0  0  0  0  0
   -2.5542   -0.5788   -0.2104 H   0  0  0  0  0  0  0  0  0  0  0  0
   -0.5102   -0.3728    0.3086 C   0  0  1  0  0  0  0  0  0  0  0  0
    0.2354   -1.0844   -0.0490 H   0  0  0  0  0  0  0  0  0  0  0  0
   -0.5452    0.8158   -0.6698 C   0  0  0  0  0  0  0  0  0  0  0  0
    0.4374    1.2904   -0.6907 H   0  0  0  0  0  0  0  0  0  0  0  0
   -0.7597    0.4442   -1.6735 H   0  0  0  0  0  0  0  0  0  0  0  0
   -1.5737    1.8586   -0.3163 C   0  0  0  0  0  0  0  0  0  0  0  0
   -2.2436    2.6764   -1.2008 N   0  0  0  0  0  0  0  0  0  0  0  0
   -2.0793    2.7393   -2.1943 H   0  0  0  0  0  0  0  0  0  0  0  0
   -3.1529    3.3820   -0.5073 C   0  0  0  0  0  0  0  0  0  0  0  0
   -3.8297    4.1156   -0.9281 H   0  0  0  0  0  0  0  0  0  0  0  0
   -3.1095    3.0468    0.7904 N   0  0  0  0  0  0  0  0  0  0  0  0
   -2.1070    2.0828    0.9249 C   0  0  0  0  0  0  0  0  0  0  0  0
   -1.8263    1.5761    1.8392 H   0  0  0  0  0  0  0  0  0  0  0  0
   -0.1073    0.0565    1.7296 C   0  0  0  0  0  0  0  0  0  0  0  0
    1.0285   -0.1699    2.1459 O   0  0  0  0  0  0  0  0  0  0  0  0
   -1.0395    0.6588    2.4785 N   0  0  0  0  0  0  0  0  0  0  0  0
   -1.9636    0.7597    2.0849 H   0  0  0  0  0  0  0  0  0  0  0  0
   -0.8222    1.1334    3.8425 C   0  0  0  0  0  0  0  0  0  0  0  0
   -0.0212    1.8761    3.8521 H   0  0  0  0  0  0  0  0  0  0  0  0
   -1.7349    1.5853    4.2320 H   0  0  0  0  0  0  0  0  0  0  0  0
   -0.5312    0.2997    4.4834 H   0  0  0  0  0  0  0  0  0  0  0  0
  5  6  2  0  0  0  0
  5  7  1  0  0  0  0
  2  3  1  0  0  0  0
  2  4  1  0  0  0  0
  2  5  1  0  0  0  0
  1  2  1  0  0  0  0
 22 23  2  0  0  0  0
 22 24  1  0  0  0  0
 20 21  1  0  0  0  0
 19 20  1  0  0  0  0
 17 18  1  0  0  0  0
 17 19  2  0  0  0  0
 15 16  1  0  0  0  0
 15 17  1  0  0  0  0
 14 15  1  0  0  0  0
 14 20  2  0  0  0  0
 11 12  1  0  0  0  0
 11 13  1  0  0  0  0
 11 14  1  0  0  0  0
  9 10  1  0  0  0  0
  9 11  1  0  0  0  0
  9 22  1  0  0  0  0
  7  8  1  0  0  0  0
  7  9  1  0  0  0  0
 26 27  1  0  0  0  0
 26 28  1  0  0  0  0
 26 29  1  0  0  0  0
 24 25  1  0  0  0  0
 24 26  1  0  0  0  0
M  END
$$$$
default_name
  -OEChem-02102213163D

 29 29  0     1  0  0  0  0  0999 V2000
   -3.6042   -3.5728    1.4576 H   0  0  0  0  0  0  0  0  0  0  0  0
   -3.5202   -2.6488    0.8866 C   0  0  0  0  0  0  0  0  0  0  0  0
   -4.2052   -1.9048    1.2896 H   0  0  0  0  0  0  0  0  0  0  0  0
   -3.7552   -2.8428   -0.1584 H   0  0  0  0  0  0  0  0  0  0  0  0
   -2.1052   -2.1358    0.9946 C   0  0  0  0  0  0  0  0  0  0  0  0
   -1.2852   -2.7288    1.6826 O   0  0  0  0  0  0  0  0  0  0  0  0
   -1.8202   -1.0288    0.3146 N   0  0  0  0  0  0  0  0  0  0  0  0
   -2.5542   -0.5788   -0.2104 H   0  0  0  0  0  0  0  0  0  0  0  0
   -0.5102   -0.3728    0.3086 C   0  0  1  0  0  0  0  0  0  0  0  0
    0.2354   -1.0844   -0.0490 H   0  0  0  0  0  0  0  0  0  0  0  0
   -0.5452    0.8158   -0.6698 C   0  0  0  0  0  0  0  0  0  0  0  0
    0.4374    1.2904   -0.6907 H   0  0  0  0  0  0  0  0  0  0  0  0
   -0.7597    0.4442   -1.6735 H   0  0  0  0  0  0  0  0  0  0  0  0
   -1.5737    1.8586   -0.3163 C   0  0  0  0  0  0  0  0  0  0  0  0
   -2.4479    2.4709   -1.1886 N   0  0  0  0  0  0  0  0  0  0  0  0
   -2.4639    2.3589   -2.1913 H   0  0  0  0  0  0  0  0  0  0  0  0
   -3.2744    3.2496   -0.4704 C   0  0  0  0  0  0  0  0  0  0  0  0
   -4.0683    3.8633   -0.8782 H   0  0  0  0  0  0  0  0  0  0  0  0
   -2.9807    3.1588    0.8349 N   0  0  0  0  0  0  0  0  0  0  0  0
   -1.8990    2.2811    0.9451 C   0  0  0  0  0  0  0  0  0  0  0  0
   -1.4257    1.9625    1.8648 H   0  0  0  0  0  0  0  0  0  0  0  0
   -0.1073    0.0565    1.7296 C   0  0  0  0  0  0  0  0  0  0  0  0
    1.0285   -0.1699    2.1459 O   0  0  0  0  0  0  0  0  0  0  0  0
   -1.0395    0.6588    2.4785 N   0  0  0  0  0  0  0  0  0  0  0  0
   -1.9636    0.7597    2.0849 H   0  0  0  0  0  0  0  0  0  0  0  0
   -0.8222    1.1334    3.8425 C   0  0  0  0  0  0  0  0  0  0  0  0
   -0.0212    1.8761    3.8521 H   0  0  0  0  0  0  0  0  0  0  0  0
   -1.7349    1.5853    4.2320 H   0  0  0  0  0  0  0  0  0  0  0  0
   -0.5312    0.2997    4.4834 H   0  0  0  0  0  0  0  0  0  0  0  0
  5  6  2  0  0  0  0
  5  7  1  0  0  0  0
  2  3  1  0  0  0  0
  2  4  1  0  0  0  0
  2  5  1  0  0  0  0
  1  2  1  0  0  0  0
 22 23  2  0  0  0  0
 22 24  1  0  0  0  0
 20 21  1  0  0  0  0
 19 20  1  0  0  0  0
 17 18  1  0  0  0  0
 17 19  2  0  0  0  0
 15 16  1  0  0  0  0
 15 17  1  0  0  0  0
 14 15  1  0  0  0  0
 14 20  2  0  0  0  0
 11 12  1  0  0  0  0
 11 13  1  0  0  0  0
 11 14  1  0  0  0  0
  9 10  1  0  0  0  0
  9 11  1  0  0  0  0
  9 22  1  0  0  0  0
  7  8  1  0  0  0  0
  7  9  1  0  0  0  0
 26 27  1  0  0  0  0
 26 28  1  0  0  0  0
 26 29  1  0  0  0  0
 24 25  1  0  0  0  0
 24 26  1  0  0  0  0
M  END
$$$$
default_name
  -OEChem-02102213163D

 29 29  0     1  0  0  0  0  0999 V2000
   -3.6042   -3.5728    1.4576 H   0  0  0  0  0  0  0  0  0  0  0  0
   -3.5202   -2.6488    0.8866 C   0  0  0  0  0  0  0  0  0  0  0  0
   -4.2052   -1.9048    1.2896 H   0  0  0  0  0  0  0  0  0  0  0  0
   -3.7552   -2.8428   -0.1584 H   0  0  0  0  0  0  0  0  0  0  0  0
   -2.1052   -2.1358    0.9946 C   0  0  0  0  0  0  0  0  0  0  0  0
   -1.2852   -2.7288    1.6826 O   0  0  0  0  0  0  0  0  0  0  0  0
   -1.8202   -1.0288    0.3146 N   0  0  0  0  0  0  0  0  0  0  0  0
   -2.5542   -0.5788   -0.2104 H   0  0  0  0  0  0  0  0  0  0  0  0
   -0.5102   -0.3728    0.3086 C   0  0  1  0  0  0  0  0  0  0  0  0
    0.2354   -1.0844   -0.0490 H   0  0  0  0  0  0  0  0  0  0  0  0
   -0.5452    0.8158   -0.6698 C   0  0  0  0  0  0  0  0  0  0  0  0
    0.4374    1.2904   -0.6907 H   0  0  0  0  0  0  0  0  0  0  0  0
   -0.7597    0.4442   -1.6735 H   0  0  0  0  0  0  0  0  0  0  0  0
   -1.5737    1.8586   -0.3163 C   0  0  0  0  0  0  0  0  0  0  0  0
   -2.6305    2.2620   -1.1039 N   0  0  0  0  0  0  0  0  0  0  0  0
   -2.8117    1.9686   -2.0522 H   0  0  0  0  0  0  0  0  0  0  0  0
   -3.3771    3.1210   -0.3896 C   0  0  0  0  0  0  0  0  0  0  0  0
   -4.2745    3.6140   -0.7428 H   0  0  0  0  0  0  0  0  0  0  0  0
   -2.8550    3.2827    0.8350 N   0  0  0  0  0  0  0  0  0  0  0  0
   -1.7065    2.4889    0.8922 C   0  0  0  0  0  0  0  0  0  0  0  0
   -1.0576    2.3647    1.7495 H   0  0  0  0  0  0  0  0  0  0  0  0
   -0.1073    0.0565    1.7296 C   0  0  0  0  0  0  0  0  0  0  0  0
    1.0285   -0.1699    2.1459 O   0  0  0  0  0  0  0  0  0  0  0  0
   -1.0395    0.6588    2.4785 N   0  0  0  0  0  0  0  0  0  0  0  0
   -1.9636    0.7597    2.0849 H   0  0  0  0  0  0  0  0  0  0  0  0
   -0.8222    1.1334    3.8425 C   0  0  0  0  0  0  0  0  0  0  0  0
   -0.0212    1.8761    3.8521 H   0  0  0  0  0  0  0  0  0  0  0  0
   -1.7349    1.5853    4.2320 H   0  0  0  0  0  0  0  0  0  0  0  0
   -0.5312    0.2997    4.4834 H   0  0  0  0  0  0  0  0  0  0  0  0
  5  6  2  0  0  0  0
  5  7  1  0  0  0  0
  2  3  1  0  0  0  0
  2  4  1  0  0  0  0
  2  5  1  0  0  0  0
  1  2  1  0  0  0  0
 22 23  2  0  0  0  0
 22 24  1  0  0  0  0
 20 21  1  0  0  0  0
 19 20  1  0  0  0  0
 17 18  1  0  0  0  0
 17 19  2  0  0  0  0
 15 16  1  0  0  0  0
 15 17  1  0  0  0  0
 14 15  1  0  0  0  0
 14 20  2  0  0  0  0
 11 12  1  0  0  0  0
 11 13  1  0  0  0  0
 11 14  1  0  0  0  0
  9 10  1  0  0  0  0
  9 11  1  0  0  0  0
  9 22  1  0  0  0  0
  7  8  1  0  0  0  0
  7  9  1  0  0  0  0
 26 27  1  0  0  0  0
 26 28  1  0  0  0  0
 26 29  1  0  0  0  0
 24 25  1  0  0  0  0
 24 26  1  0  0  0  0
M  END
$$$$
default_name
  -OEChem-02102213163D

 29 29  0     1  0  0  0  0  0999 V2000
   -3.6042   -3.5728    1.4576 H   0  0  0  0  0  0  0  0  0  0  0  0
   -3.5202   -2.6488    0.8866 C   0  0  0  0  0  0  0  0  0  0  0  0
   -4.2052   -1.9048    1.2896 H   0  0  0  0  0  0  0  0  0  0  0  0
   -3.7552   -2.8428   -0.1584 H   0  0  0  0  0  0  0  0  0  0  0  0
   -2.1052   -2.1358    0.9946 C   0  0  0  0  0  0  0  0  0  0  0  0
   -1.2852   -2.7288    1.6826 O   0  0  0  0  0  0  0  0  0  0  0  0
   -1.8202   -1.0288    0.3146 N   0  0  0  0  0  0  0  0  0  0  0  0
   -2.5542   -0.5788   -0.2104 H   0  0  0  0  0  0  0  0  0  0  0  0
   -0.5102   -0.3728    0.3086 C   0  0  1  0  0  0  0  0  0  0  0  0
    0.2354   -1.0844   -0.0490 H   0  0  0  0  0  0  0  0  0  0  0  0
   -0.5452    0.8158   -0.6698 C   0  0  0  0  0  0  0  0  0  0  0  0
    0.4374    1.2904   -0.6907 H   0  0  0  0  0  0  0  0  0  0  0  0
   -0.7597    0.4442   -1.6735 H   0  0  0  0  0  0  0  0  0  0  0  0
   -1.5737    1.8586   -0.3163 C   0  0  0  0  0  0  0  0  0  0  0  0
   -2.7791    2.0642   -0.9525 N   0  0  0  0  0  0  0  0  0  0  0  0
   -3.0991    1.5951   -1.7866 H   0  0  0  0  0  0  0  0  0  0  0  0
   -3.4540    3.0047   -0.2704 C   0  0  0  0  0  0  0  0  0  0  0  0
   -4.4343    3.3846   -0.5309 H   0  0  0  0  0  0  0  0  0  0  0  0
   -2.7412    3.4100    0.7908 N   0  0  0  0  0  0  0  0  0  0  0  0
   -1.5426    2.6920    0.7699 C   0  0  0  0  0  0  0  0  0  0  0  0
   -0.7471    2.7552    1.5011 H   0  0  0  0  0  0  0  0  0  0  0  0
   -0.1073    0.0565    1.7296 C   0  0  0  0  0  0  0  0  0  0  0  0
    1.0285   -0.1699    2.1459 O   0  0  0  0  0  0  0  0  0  0  0  0
   -1.0395    0.6588    2.4785 N   0  0  0  0  0  0  0  0  0  0  0  0
   -1.9636    0.7597    2.0849 H   0  0  0  0  0  0  0  0  0  0  0  0
   -0.8222    1.1334    3.8425 C   0  0  0  0  0  0  0  0  0  0  0  0
   -0.0212    1.8761    3.8521 H   0  0  0  0  0  0  0  0  0  0  0  0
   -1.7349    1.5853    4.2320 H   0  0  0  0  0  0  0  0  0  0  0  0
   -0.5312    0.2997    4.4834 H   0  0  0  0  0  0  0  0  0  0  0  0
  5  6  2  0  0  0  0
  5  7  1  0  0  0  0
  2  3  1  0  0  0  0
  2  4  1  0  0  0  0
  2  5  1  0  0  0  0
  1  2  1  0  0  0  0
 22 23  2  0  0  0  0
 22 24  1  0  0  0  0
 20 21  1  0  0  0  0
 19 20  1  0  0  0  0
 17 18  1  0  0  0  0
 17 19  2  0  0  0  0
 15 16  1  0  0  0  0
 15 17  1  0  0  0  0
 14 15  1  0  0  0  0
 14 20  2  0  0  0  0
 11 12  1  0  0  0  0
 11 13  1  0  0  0  0
 11 14  1  0  0  0  0
  9 10  1  0  0  0  0
  9 11  1  0  0  0  0
  9 22  1  0  0  0  0
  7  8  1  0  0  0  0
  7  9  1  0  0  0  0
 26 27  1  0  0  0  0
 26 28  1  0  0  0  0
 26 29  1  0  0  0  0
 24 25  1  0  0  0  0
 24 26  1  0  0  0  0
M  END
$$$$
default_name
  -OEChem-02102213163D

 29 29  0     1  0  0  0  0  0999 V2000
   -3.6042   -3.5728    1.4576 H   0  0  0  0  0  0  0  0  0  0  0  0
   -3.5202   -2.6488    0.8866 C   0  0  0  0  0  0  0  0  0  0  0  0
   -4.2052   -1.9048    1.2896 H   0  0  0  0  0  0  0  0  0  0  0  0
   -3.7552   -2.8428   -0.1584 H   0  0  0  0  0  0  0  0  0  0  0  0
   -2.1052   -2.1358    0.9946 C   0  0  0  0  0  0  0  0  0  0  0  0
   -1.2852   -2.7288    1.6826 O   0  0  0  0  0  0  0  0  0  0  0  0
   -1.8202   -1.0288    0.3146 N   0  0  0  0  0  0  0  0  0  0  0  0
   -2.5542   -0.5788   -0.2104 H   0  0  0  0  0  0  0  0  0  0  0  0
   -0.5102   -0.3728    0.3086 C   0  0  1  0  0  0  0  0  0  0  0  0
    0.2354   -1.0844   -0.0490 H   0  0  0  0  0  0  0  0  0  0  0  0
   -0.5452    0.8158   -0.6698 C   0  0  0  0  0  0  0  0  0  0  0  0
    0.4374    1.2904   -0.6907 H   0  0  0  0  0  0  0  0  0  0  0  0
   -0.7597    0.4442   -1.6735 H   0  0  0  0  0  0  0  0  0  0  0  0
   -1.5737    1.8586   -0.3163 C   0  0  0  0  0  0  0  0  0  0  0  0
   -2.8834    1.8908   -0.7447 N   0  0  0  0  0  0  0  0  0  0  0  0
   -3.3065    1.2638   -1.4126 H   0  0  0  0  0  0  0  0  0  0  0  0
   -3.4998    2.9088   -0.1209 C   0  0  0  0  0  0  0  0  0  0  0  0
   -4.5367    3.1907   -0.2572 H   0  0  0  0  0  0  0  0  0  0  0  0
   -2.6469    3.5321    0.7051 N   0  0  0  0  0  0  0  0  0  0  0  0
   -1.4186    2.8765    0.5866 C   0  0  0  0  0  0  0  0  0  0  0  0
   -0.5154    3.1073    1.1365 H   0  0  0  0  0  0  0  0  0  0  0  0
   -0.1073    0.0565    1.7296 C   0  0  0  0  0  0  0  0  0  0  0  0
    1.0285   -0.1699    2.1459 O   0  0  0  0  0  0  0  0  0  0  0  0
   -1.0395    0.6588    2.4785 N   0  0  0  0  0  0  0  0  0  0  0  0
   -1.9636    0.7597    2.0849 H   0  0  0  0  0  0  0  0  0  0  0  0
   -0.8222    1.1334    3.8425 C   0  0  0  0  0  0  0  0  0  0  0  0
   -0.0212    1.8761    3.8521 H   0  0  0  0  0  0  0  0  0  0  0  0
   -1.7349    1.5853    4.2320 H   0  0  0  0  0  0  0  0  0  0  0  0
   -0.5312    0.2997    4.4834 H   0  0  0  0  0  0  0  0  0  0  0  0
  5  6  2  0  0  0  0
  5  7  1  0  0  0  0
  2  3  1  0  0  0  0
  2  4  1  0  0  0  0
  2  5  1  0  0  0  0
  1  2  1  0  0  0  0
 22 23  2  0  0  0  0
 22 24  1  0  0  0  0
 20 21  1  0  0  0  0
 19 20  1  0  0  0  0
 17 18  1  0  0  0  0
 17 19  2  0  0  0  0
 15 16  1  0  0  0  0
 15 17  1  0  0  0  0
 14 15  1  0  0  0  0
 14 20  2  0  0  0  0
 11 12  1  0  0  0  0
 11 13  1  0  0  0  0
 11 14  1  0  0  0  0
  9 10  1  0  0  0  0
  9 11  1  0  0  0  0
  9 22  1  0  0  0  0
  7  8  1  0  0  0  0
  7  9  1  0  0  0  0
 26 27  1  0  0  0  0
 26 28  1  0  0  0  0
 26 29  1  0  0  0  0
 24 25  1  0  0  0  0
 24 26  1  0  0  0  0
M  END
$$$$
default_name
  -OEChem-02102213163D

 29 29  0     1  0  0  0  0  0999 V2000
   -3.6042   -3.5728    1.4576 H   0  0  0  0  0  0  0  0  0  0  0  0
   -3.5202   -2.6488    0.8866 C   0  0  0  0  0  0  0  0  0  0  0  0
   -4.2052   -1.9048    1.2896 H   0  0  0  0  0  0  0  0  0  0  0  0
   -3.7552   -2.8428   -0.1584 H   0  0  0  0  0  0  0  0  0  0  0  0
   -2.1052   -2.1358    0.9946 C   0  0  0  0  0  0  0  0  0  0  0  0
   -1.2852   -2.7288    1.6826 O   0  0  0  0  0  0  0  0  0  0  0  0
   -1.8202   -1.0288    0.3146 N   0  0  0  0  0  0  0  0  0  0  0  0
   -2.5542   -0.5788   -0.2104 H   0  0  0  0  0  0  0  0  0  0  0  0
   -0.5102   -0.3728    0.3086 C   0  0  1  0  0  0  0  0  0  0  0  0
    0.2354   -1.0844   -0.0490 H   0  0  0  0  0  0  0  0  0  0  0  0
   -0.5452    0.8158   -0.6698 C   0  0  0  0  0  0  0  0  0  0  0  0
    0.4374    1.2904   -0.6907 H   0  0  0  0  0  0  0  0  0  0  0  0
   -0.7597    0.4442   -1.6735 H   0  0  0  0  0  0  0  0  0  0  0  0
   -1.5737    1.8586   -0.3163 C   0  0  0  0  0  0  0  0  0  0  0  0
   -2.9365    1.7537   -0.4947 N   0  0  0  0  0  0  0  0  0  0  0  0
   -3.4197    0.9973   -0.9557 H   0  0  0  0  0  0  0  0  0  0  0  0
   -3.5115    2.8398    0.0486 C   0  0  0  0  0  0  0  0  0  0  0  0
   -4.5749    3.0456    0.0599 H   0  0  0  0  0  0  0  0  0  0  0  0
   -2.5785    3.6406    0.5839 N   0  0  0  0  0  0  0  0  0  0  0  0
   -1.3428    3.0299    0.3547 C   0  0  0  0  0  0  0  0  0  0  0  0
   -0.3783    3.3970    0.6807 H   0  0  0  0  0  0  0  0  0  0  0  0
   -0.1073    0.0565    1.7296 C   0  0  0  0  0  0  0  0  0  0  0  0
    1.0285   -0.1699    2.1459 O   0  0  0  0  0  0  0  0  0  0  0  0
   -1.0395    0.6588    2.4785 N   0  0  0  0  0  0  0  0  0  0  0  0
   -1.9636    0.7597    2.0849 H   0  0  0  0  0  0  0  0  0  0  0  0
   -0.8222    1.1334    3.8425 C   0  0  0  0  0  0  0  0  0  0  0  0
   -0.0212    1.8761    3.8521 H   0  0  0  0  0  0  0  0  0  0  0  0
   -1.7349    1.5853    4.2320 H   0  0  0  0  0  0  0  0  0  0  0  0
   -0.5312    0.2997    4.4834 H   0  0  0  0  0  0  0  0  0  0  0  0
  5  6  2  0  0  0  0
  5  7  1  0  0  0  0
  2  3  1  0  0  0  0
  2  4  1  0  0  0  0
  2  5  1  0  0  0  0
  1  2  1  0  0  0  0
 22 23  2  0  0  0  0
 22 24  1  0  0  0  0
 20 21  1  0  0  0  0
 19 20  1  0  0  0  0
 17 18  1  0  0  0  0
 17 19  2  0  0  0  0
 15 16  1  0  0  0  0
 15 17  1  0  0  0  0
 14 15  1  0  0  0  0
 14 20  2  0  0  0  0
 11 12  1  0  0  0  0
 11 13  1  0  0  0  0
 11 14  1  0  0  0  0
  9 10  1  0  0  0  0
  9 11  1  0  0  0  0
  9 22  1  0  0  0  0
  7  8  1  0  0  0  0
  7  9  1  0  0  0  0
 26 27  1  0  0  0  0
 26 28  1  0  0  0  0
 26 29  1  0  0  0  0
 24 25  1  0  0  0  0
 24 26  1  0  0  0  0
M  END
$$$$
default_name
  -OEChem-02102213163D

 29 29  0     1  0  0  0  0  0999 V2000
   -3.6042   -3.5728    1.4576 H   0  0  0  0  0  0  0  0  0  0  0  0
   -3.5202   -2.6488    0.8866 C   0  0  0  0  0  0  0  0  0  0  0  0
   -4.2052   -1.9048    1.2896 H   0  0  0  0  0  0  0  0  0  0  0  0
   -3.7552   -2.8428   -0.1584 H   0  0  0  0  0  0  0  0  0  0  0  0
   -2.1052   -2.1358    0.9946 C   0  0  0  0  0  0  0  0  0  0  0  0
   -1.2852   -2.7288    1.6826 O   0  0  0  0  0  0  0  0  0  0  0  0
   -1.8202   -1.0288    0.3146 N   0  0  0  0  0  0  0  0  0  0  0  0
   -2.5542   -0.5788   -0.2104 H   0  0  0  0  0  0  0  0  0  0  0  0
   -0.5102   -0.3728    0.3086 C   0  0  1  0  0  0  0  0  0  0  0  0
    0.2354   -1.0844   -0.0490 H   0  0  0  0  0  0  0  0  0  0  0  0
   -0.5452    0.8158   -0.6698 C   0  0  0  0  0  0  0  0  0  0  0  0
    0.4374    1.2904   -0.6907 H   0  0  0  0  0  0  0  0  0  0  0  0
   -0.7597    0.4442   -1.6735 H   0  0  0  0  0  0  0  0  0  0  0  0
   -1.5737    1.8586   -0.3163 C   0  0  0  0  0  0  0  0  0  0  0  0
   -2.9346    1.6622   -0.2194 N   0  0  0  0  0  0  0  0  0  0  0  0
   -3.4309    0.8137   -0.4469 H   0  0  0  0  0  0  0  0  0  0  0  0
   -3.4883    2.8023    0.2266 C   0  0  0  0  0  0  0  0  0  0  0  0
   -4.5461    2.9591    0.3986 H   0  0  0  0  0  0  0  0  0  0  0  0
   -2.5408    3.7281    0.4354 N   0  0  0  0  0  0  0  0  0  0  0  0
   -1.3205    3.1416    0.0900 C   0  0  0  0  0  0  0  0  0  0  0  0
   -0.3451    3.6047    0.1647 H   0  0  0  0  0  0  0  0  0  0  0  0
   -0.1073    0.0565    1.7296 C   0  0  0  0  0  0  0  0  0  0  0  0
    1.0285   -0.1699    2.1459 O   0  0  0  0  0  0  0  0  0  0  0  0
   -1.0395    0.6588    2.4785 N   0  0  0  0  0  0  0  0  0  0  0  0
   -1.9636    0.7597    2.0849 H   0  0  0  0  0  0  0  0  0  0  0  0
   -0.8222    1.1334    3.8425 C   0  0  0  0  0  0  0  0  0  0  0  0
   -0.0212    1.8761    3.8521 H   0  0  0  0  0  0  0  0  0  0  0  0
   -1.7349    1.5853    4.2320 H   0  0  0  0  0  0  0  0  0  0  0  0
   -0.5312    0.2997    4.4834 H   0  0  0  0  0  0  0  0  0  0  0  0
  5  6  2  0  0  0  0
  5  7  1  0  0  0  0
  2  3  1  0  0  0  0
  2  4  1  0  0  0  0
  2  5  1  0  0  0  0
  1  2  1  0  0  0  0
 22 23  2  0  0  0  0
 22 24  1  0  0  0  0
 20 21  1  0  0  0  0
 19 20  1  0  0  0  0
 17 18  1  0  0  0  0
 17 19  2  0  0  0  0
 15 16  1  0  0  0  0
 15 17  1  0  0  0  0
 14 15  1  0  0  0  0
 14 20  2  0  0  0  0
 11 12  1  0  0  0  0
 11 13  1  0  0  0  0
 11 14  1  0  0  0  0
  9 10  1  0  0  0  0
  9 11  1  0  0  0  0
  9 22  1  0  0  0  0
  7  8  1  0  0  0  0
  7  9  1  0  0  0  0
 26 27  1  0  0  0  0
 26 28  1  0  0  0  0
 26 29  1  0  0  0  0
 24 25  1  0  0  0  0
 24 26  1  0  0  0  0
M  END
$$$$
default_name
  -OEChem-02102213163D

 29 29  0     1  0  0  0  0  0999 V2000
   -3.6042   -3.5728    1.4576 H   0  0  0  0  0  0  0  0  0  0  0  0
   -3.5202   -2.6488    0.8866 C   0  0  0  0  0  0  0  0  0  0  0  0
   -4.2052   -1.9048    1.2896 H   0  0  0  0  0  0  0  0  0  0  0  0
   -3.7552   -2.8428   -0.1584 H   0  0  0  0  0  0  0  0  0  0  0  0
   -2.1052   -2.1358    0.9946 C   0  0  0  0  0  0  0  0  0  0  0  0
   -1.2852   -2.7288    1.6826 O   0  0  0  0  0  0  0  0  0  0  0  0
   -1.8202   -1.0288    0.3146 N   0  0  0  0  0  0  0  0  0  0  0  0
   -2.5542   -0.5788   -0.2104 H   0  0  0  0  0  0  0  0  0  0  0  0
   -0.5102   -0.3728    0.3086 C   0  0  1  0  0  0  0  0  0  0  0  0
    0.2354   -1.0844   -0.0490 H   0  0  0  0  0  0  0  0  0  0  0  0
   -0.5452    0.8158   -0.6698 C   0  0  0  0  0  0  0  0  0  0  0  0
    0.4374    1.2904   -0.6907 H   0  0  0  0  0  0  0  0  0  0  0  0
   -0.7597    0.4442   -1.6735 H   0  0  0  0  0  0  0  0  0  0  0  0
   -1.5737    1.8586   -0.3163 C   0  0  0  0  0  0  0  0  0  0  0  0
   -2.8779    1.6226    0.0622 N   0  0  0  0  0  0  0  0  0  0  0  0
   -3.3395    0.7255    0.0789 H   0  0  0  0  0  0  0  0  0  0  0  0
   -3.4317    2.7991    0.4010 C   0  0  0  0  0  0  0  0  0  0  0  0
   -4.4525    2.9372    0.7359 H   0  0  0  0  0  0  0  0  0  0  0  0
   -2.5363    3.7887    0.2698 N   0  0  0  0  0  0  0  0  0  0  0  0
   -1.3531    3.2042   -0.1894 C   0  0  0  0  0  0  0  0  0  0  0  0
   -0.4181    3.7162   -0.3764 H   0  0  0  0  0  0  0  0  0  0  0  0
   -0.1073    0.0565    1.7296 C   0  0  0  0  0  0  0  0  0  0  0  0
    1.0285   -0.1699    2.1459 O   0  0  0  0  0  0  0  0  0  0  0  0
   -1.0395    0.6588    2.4785 N   0  0  0  0  0  0  0  0  0  0  0  0
   -1.9636    0.7597    2.0849 H   0  0  0  0  0  0  0  0  0  0  0  0
   -0.8222    1.1334    3.8425 C   0  0  0  0  0  0  0  0  0  0  0  0
   -0.0212    1.8761    3.8521 H   0  0  0  0  0  0  0  0  0  0  0  0
   -1.7349    1.5853    4.2320 H   0  0  0  0  0  0  0  0  0  0  0  0
   -0.5312    0.2997    4.4834 H   0  0  0  0  0  0  0  0  0  0  0  0
  5  6  2  0  0  0  0
  5  7  1  0  0  0  0
  2  3  1  0  0  0  0
  2  4  1  0  0  0  0
  2  5  1  0  0  0  0
  1  2  1  0  0  0  0
 22 23  2  0  0  0  0
 22 24  1  0  0  0  0
 20 21  1  0  0  0  0
 19 20  1  0  0  0  0
 17 18  1  0  0  0  0
 17 19  2  0  0  0  0
 15 16  1  0  0  0  0
 15 17  1  0  0  0  0
 14 15  1  0  0  0  0
 14 20  2  0  0  0  0
 11 12  1  0  0  0  0
 11 13  1  0  0  0  0
 11 14  1  0  0  0  0
  9 10  1  0  0  0  0
  9 11  1  0  0  0  0
  9 22  1  0  0  0  0
  7  8  1  0  0  0  0
  7  9  1  0  0  0  0
 26 27  1  0  0  0  0
 26 28  1  0  0  0  0
 26 29  1  0  0  0  0
 24 25  1  0  0  0  0
 24 26  1  0  0  0  0
M  END
$$$$
default_name
  -OEChem-02102213163D

 29 29  0     1  0  0  0  0  0999 V2000
   -3.6042   -3.5728    1.4576 H   0  0  0  0  0  0  0  0  0  0  0  0
   -3.5202   -2.6488    0.8866 C   0  0  0  0  0  0  0  0  0  0  0  0
   -4.2052   -1.9048    1.2896 H   0  0  0  0  0  0  0  0  0  0  0  0
   -3.7552   -2.8428   -0.1584 H   0  0  0  0  0  0  0  0  0  0  0  0
   -2.1052   -2.1358    0.9946 C   0  0  0  0  0  0  0  0  0  0  0  0
   -1.2852   -2.7288    1.6826 O   0  0  0  0  0  0  0  0  0  0  0  0
   -1.8202   -1.0288    0.3146 N   0  0  0  0  0  0  0  0  0  0  0  0
   -2.5542   -0.5788   -0.2104 H   0  0  0  0  0  0  0  0  0  0  0  0
   -0.5102   -0.3728    0.3086 C   0  0  1  0  0  0  0  0  0  0  0  0
    0.2354   -1.0844   -0.0490 H   0  0  0  0  0  0  0  0  0  0  0  0
   -0.5452    0.8158   -0.6698 C   0  0  0  0  0  0  0  0  0  0  0  0
    0.4374    1.2904   -0.6907 H   0  0  0  0  0  0  0  0  0  0  0  0
   -0.7597    0.4442   -1.6735 H   0  0  0  0  0  0  0  0  0  0  0  0
   -1.5737    1.8586   -0.3163 C   0  0  0  0  0  0  0  0  0  0  0  0
   -2.7703    1.6376    0.3312 N   0  0  0  0  0  0  0  0  0  0  0  0
   -3.1517    0.7388    0.5861 H   0  0  0  0  0  0  0  0  0  0  0  0
   -3.3455    2.8301    0.5599 C   0  0  0  0  0  0  0  0  0  0  0  0
   -4.3002    2.9812    1.0488 H   0  0  0  0  0  0  0  0  0  0  0  0
   -2.5653    3.8183    0.0983 N   0  0  0  0  0  0  0  0  0  0  0  0
   -1.4384    3.2133   -0.4645 C   0  0  0  0  0  0  0  0  0  0  0  0
   -0.5922    3.7238   -0.9057 H   0  0  0  0  0  0  0  0  0  0  0  0
   -0.1073    0.0565    1.7296 C   0  0  0  0  0  0  0  0  0  0  0  0
    1.0285   -0.1699    2.1459 O   0  0  0  0  0  0  0  0  0  0  0  0
   -1.0395    0.6588    2.4785 N   0  0  0  0  0  0  0  0  0  0  0  0
   -1.9636    0.7597    2.0849 H   0  0  0  0  0  0  0  0  0  0  0  0
   -0.8222    1.1334    3.8425 C   0  0  0  0  0  0  0  0  0  0  0  0
   -0.0212    1.8761    3.8521 H   0  0  0  0  0  0  0  0  0  0  0  0
   -1.7349    1.5853    4.2320 H   0  0  0  0  0  0  0  0  0  0  0  0
   -0.5312    0.2997    4.4834 H   0  0  0  0  0  0  0  0  0  0  0  0
  5  6  2  0  0  0  0
  5  7  1  0  0  0  0
  2  3  1  0  0  0  0
  2  4  1  0  0  0  0
  2  5  1  0  0  0  0
  1  2  1  0  0  0  0
 22 23  2  0  0  0  0
 22 24  1  0  0  0  0
 20 21  1  0  0  0  0
 19 20  1  0  0  0  0
 17 18  1  0  0  0  0
 17 19  2  0  0  0  0
 15 16  1  0  0  0  0
 15 17  1  0  0  0  0
 14 15  1  0  0  0  0
 14 20  2  0  0  0  0
 11 12  1  0  0  0  0
 11 13  1  0  0  0  0
 11 14  1  0  0  0  0
  9 10  1  0  0  0  0
  9 11  1  0  0  0  0
  9 22  1  0  0  0  0
  7  8  1  0  0  0  0
  7  9  1  0  0  0  0
 26 27  1  0  0  0  0
 26 28  1  0  0  0  0
 26 29  1  0  0  0  0
 24 25  1  0  0  0  0
 24 26  1  0  0  0  0
M  END
$$$$
default_name
  -OEChem-02102213163D

 29 29  0     1  0  0  0  0  0999 V2000
   -3.6042   -3.5728    1.4576 H   0  0  0  0  0  0  0  0  0  0  0  0
   -3.5202   -2.6488    0.8866 C   0  0  0  0  0  0  0  0  0  0  0  0
   -4.2052   -1.9048    1.2896 H   0  0  0  0  0  0  0  0  0  0  0  0
   -3.7552   -2.8428   -0.1584 H   0  0  0  0  0  0  0  0  0  0  0  0
   -2.1052   -2.1358    0.9946 C   0  0  0  0  0  0  0  0  0  0  0  0
   -1.2852   -2.7288    1.6826 O   0  0  0  0  0  0  0  0  0  0  0  0
   -1.8202   -1.0288    0.3146 N   0  0  0  0  0  0  0  0  0  0  0  0
   -2.5542   -0.5788   -0.2104 H   0  0  0  0  0  0  0  0  0  0  0  0
   -0.5102   -0.3728    0.3086 C   0  0  1  0  0  0  0  0  0  0  0  0
    0.2354   -1.0844   -0.0490 H   0  0  0  0  0  0  0  0  0  0  0  0
   -0.5452    0.8158   -0.6698 C   0  0  0  0  0  0  0  0  0  0  0  0
    0.4374    1.2904   -0.6907 H   0  0  0  0  0  0  0  0  0  0  0  0
   -0.7597    0.4442   -1.6735 H   0  0  0  0  0  0  0  0  0  0  0  0
   -1.5737    1.8586   -0.3163 C   0  0  0  0  0  0  0  0  0  0  0  0
   -2.6191    1.7061    0.5691 N   0  0  0  0  0  0  0  0  0  0  0  0
   -2.8803    0.8527    1.0399 H   0  0  0  0  0  0  0  0  0  0  0  0
   -3.2358    2.8935    0.6925 C   0  0  0  0  0  0  0  0  0  0  0  0
   -4.0998    3.0883    1.3160 H   0  0  0  0  0  0  0  0  0  0  0  0
   -2.6258    3.8148   -0.0674 N   0  0  0  0  0  0  0  0  0  0  0  0
   -1.5707    3.1682   -0.7165 C   0  0  0  0  0  0  0  0  0  0  0  0
   -0.8558    3.6271   -1.3871 H   0  0  0  0  0  0  0  0  0  0  0  0
   -0.1073    0.0565    1.7296 C   0  0  0  0  0  0  0  0  0  0  0  0
    1.0285   -0.1699    2.1459 O   0  0  0  0  0  0  0  0  0  0  0  0
   -1.0395    0.6588    2.4785 N   0  0  0  0  0  0  0  0  0  0  0  0
   -1.9636    0.7597    2.0849 H   0  0  0  0  0  0  0  0  0  0  0  0
   -0.8222    1.1334    3.8425 C   0  0  0  0  0  0  0  0  0  0  0  0
   -0.0212    1.8761    3.8521 H   0  0  0  0  0  0  0  0  0  0  0  0
   -1.7349    1.5853    4.2320 H   0  0  0  0  0  0  0  0  0  0  0  0
   -0.5312    0.2997    4.4834 H   0  0  0  0  0  0  0  0  0  0  0  0
  5  6  2  0  0  0  0
  5  7  1  0  0  0  0
  2  3  1  0  0  0  0
  2  4  1  0  0  0  0
  2  5  1  0  0  0  0
  1  2  1  0  0  0  0
 22 23  2  0  0  0  0
 22 24  1  0  0  0  0
 20 21  1  0  0  0  0
 19 20  1  0  0  0  0
 17 18  1  0  0  0  0
 17 19  2  0  0  0  0
 15 16  1  0  0  0  0
 15 17  1  0  0  0  0
 14 15  1  0  0  0  0
 14 20  2  0  0  0  0
 11 12  1  0  0  0  0
 11 13  1  0  0  0  0
 11 14  1  0  0  0  0
  9 10  1  0  0  0  0
  9 11  1  0  0  0  0
  9 22  1  0  0  0  0
  7  8  1  0  0  0  0
  7  9  1  0  0  0  0
 26 27  1  0  0  0  0
 26 28  1  0  0  0  0
 26 29  1  0  0  0  0
 24 25  1  0  0  0  0
 24 26  1  0  0  0  0
M  END
$$$$
default_name
  -OEChem-02102213163D

 29 29  0     1  0  0  0  0  0999 V2000
   -3.6042   -3.5728    1.4576 H   0  0  0  0  0  0  0  0  0  0  0  0
   -3.5202   -2.6488    0.8866 C   0  0  0  0  0  0  0  0  0  0  0  0
   -4.2052   -1.9048    1.2896 H   0  0  0  0  0  0  0  0  0  0  0  0
   -3.7552   -2.8428   -0.1584 H   0  0  0  0  0  0  0  0  0  0  0  0
   -2.1052   -2.1358    0.9946 C   0  0  0  0  0  0  0  0  0  0  0  0
   -1.2852   -2.7288    1.6826 O   0  0  0  0  0  0  0  0  0  0  0  0
   -1.8202   -1.0288    0.3146 N   0  0  0  0  0  0  0  0  0  0  0  0
   -2.5542   -0.5788   -0.2104 H   0  0  0  0  0  0  0  0  0  0  0  0
   -0.5102   -0.3728    0.3086 C   0  0  1  0  0  0  0  0  0  0  0  0
    0.2354   -1.0844   -0.0490 H   0  0  0  0  0  0  0  0  0  0  0  0
   -0.5452    0.8158   -0.6698 C   0  0  0  0  0  0  0  0  0  0  0  0
    0.4374    1.2904   -0.6907 H   0  0  0  0  0  0  0  0  0  0  0  0
   -0.7597    0.4442   -1.6735 H   0  0  0  0  0  0  0  0  0  0  0  0
   -1.5737    1.8586   -0.3163 C   0  0  0  0  0  0  0  0  0  0  0  0
   -2.4346    1.8234    0.7596 N   0  0  0  0  0  0  0  0  0  0  0  0
   -2.5437    1.0593    1.4096 H   0  0  0  0  0  0  0  0  0  0  0  0
   -3.1098    2.9847    0.7897 C   0  0  0  0  0  0  0  0  0  0  0  0
   -3.8648    3.2512    1.5193 H   0  0  0  0  0  0  0  0  0  0  0  0
   -2.7137    3.7784   -0.2160 N   0  0  0  0  0  0  0  0  0  0  0  0
   -1.7409    3.0722   -0.9283 C   0  0  0  0  0  0  0  0  0  0  0  0
   -1.1907    3.4327   -1.7878 H   0  0  0  0  0  0  0  0  0  0  0  0
   -0.1073    0.0565    1.7296 C   0  0  0  0  0  0  0  0  0  0  0  0
    1.0285   -0.1699    2.1459 O   0  0  0  0  0  0  0  0  0  0  0  0
   -1.0395    0.6588    2.4785 N   0  0  0  0  0  0  0  0  0  0  0  0
   -1.9636    0.7597    2.0849 H   0  0  0  0  0  0  0  0  0  0  0  0
   -0.8222    1.1334    3.8425 C   0  0  0  0  0  0  0  0  0  0  0  0
   -0.0212    1.8761    3.8521 H   0  0  0  0  0  0  0  0  0  0  0  0
   -1.7349    1.5853    4.2320 H   0  0  0  0  0  0  0  0  0  0  0  0
   -0.5312    0.2997    4.4834 H   0  0  0  0  0  0  0  0  0  0  0  0
  5  6  2  0  0  0  0
  5  7  1  0  0  0  0
  2  3  1  0  0  0  0
  2  4  1  0  0  0  0
  2  5  1  0  0  0  0
  1  2  1  0  0  0  0
 22 23  2  0  0  0  0
 22 24  1  0  0  0  0
 20 21  1  0  0  0  0
 19 20  1  0  0  0  0
 17 18  1  0  0  0  0
 17 19  2  0  0  0  0
 15 16  1  0  0  0  0
 15 17  1  0  0  0  0
 14 15  1  0  0  0  0
 14 20  2  0  0  0  0
 11 12  1  0  0  0  0
 11 13  1  0  0  0  0
 11 14  1  0  0  0  0
  9 10  1  0  0  0  0
  9 11  1  0  0  0  0
  9 22  1  0  0  0  0
  7  8  1  0  0  0  0
  7  9  1  0  0  0  0
 26 27  1  0  0  0  0
 26 28  1  0  0  0  0
 26 29  1  0  0  0  0
 24 25  1  0  0  0  0
 24 26  1  0  0  0  0
M  END
$$$$
default_name
  -OEChem-02102213163D

 29 29  0     1  0  0  0  0  0999 V2000
   -3.6042   -3.5728    1.4576 H   0  0  0  0  0  0  0  0  0  0  0  0
   -3.5202   -2.6488    0.8866 C   0  0  0  0  0  0  0  0  0  0  0  0
   -4.2052   -1.9048    1.2896 H   0  0  0  0  0  0  0  0  0  0  0  0
   -3.7552   -2.8428   -0.1584 H   0  0  0  0  0  0  0  0  0  0  0  0
   -2.1052   -2.1358    0.9946 C   0  0  0  0  0  0  0  0  0  0  0  0
   -1.2852   -2.7288    1.6826 O   0  0  0  0  0  0  0  0  0  0  0  0
   -1.8202   -1.0288    0.3146 N   0  0  0  0  0  0  0  0  0  0  0  0
   -2.5542   -0.5788   -0.2104 H   0  0  0  0  0  0  0  0  0  0  0  0
   -0.5102   -0.3728    0.3086 C   0  0  1  0  0  0  0  0  0  0  0  0
    0.2354   -1.0844   -0.0490 H   0  0  0  0  0  0  0  0  0  0  0  0
   -0.5452    0.8158   -0.6698 C   0  0  0  0  0  0  0  0  0  0  0  0
    0.4374    1.2904   -0.6907 H   0  0  0  0  0  0  0  0  0  0  0  0
   -0.7597    0.4442   -1.6735 H   0  0  0  0  0  0  0  0  0  0  0  0
   -1.5737    1.8586   -0.3163 C   0  0  0  0  0  0  0  0  0  0  0  0
   -2.2294    1.9816    0.8899 N   0  0  0  0  0  0  0  0  0  0  0  0
   -2.1649    1.3447    1.6699 H   0  0  0  0  0  0  0  0  0  0  0  0
   -2.9763    3.0977    0.8449 C   0  0  0  0  0  0  0  0  0  0  0  0
   -3.6113    3.4586    1.6447 H   0  0  0  0  0  0  0  0  0  0  0  0
   -2.8230    3.7117   -0.3373 N   0  0  0  0  0  0  0  0  0  0  0  0
   -1.9374    2.9317   -1.0854 C   0  0  0  0  0  0  0  0  0  0  0  0
   -1.5741    3.1537   -2.0805 H   0  0  0  0  0  0  0  0  0  0  0  0
   -0.1073    0.0565    1.7296 C   0  0  0  0  0  0  0  0  0  0  0  0
    1.0285   -0.1699    2.1459 O   0  0  0  0  0  0  0  0  0  0  0  0
   -1.0395    0.6588    2.4785 N   0  0  0  0  0  0  0  0  0  0  0  0
   -1.9636    0.7597    2.0849 H   0  0  0  0  0  0  0  0  0  0  0  0
   -0.8222    1.1334    3.8425 C   0  0  0  0  0  0  0  0  0  0  0  0
   -0.0212    1.8761    3.8521 H   0  0  0  0  0  0  0  0  0  0  0  0
   -1.7349    1.5853    4.2320 H   0  0  0  0  0  0  0  0  0  0  0  0
   -0.5312    0.2997    4.4834 H   0  0  0  0  0  0  0  0  0  0  0  0
  5  6  2  0  0  0  0
  5  7  1  0  0  0  0
  2  3  1  0  0  0  0
  2  4  1  0  0  0  0
  2  5  1  0  0  0  0
  1  2  1  0  0  0  0
 22 23  2  0  0  0  0
 22 24  1  0  0  0  0
 20 21  1  0  0  0  0
 19 20  1  0  0  0  0
 17 18  1  0  0  0  0
 17 19  2  0  0  0  0
 15 16  1  0  0  0  0
 15 17  1  0  0  0  0
 14 15  1  0  0  0  0
 14 20  2  0  0  0  0
 11 12  1  0  0  0  0
 11 13  1  0  0  0  0
 11 14  1  0  0  0  0
  9 10  1  0  0  0  0
  9 11  1  0  0  0  0
  9 22  1  0  0  0  0
  7  8  1  0  0  0  0
  7  9  1  0  0  0  0
 26 27  1  0  0  0  0
 26 28  1  0  0  0  0
 26 29  1  0  0  0  0
 24 25  1  0  0  0  0
 24 26  1  0  0  0  0
M  END
$$$$
default_name
  -OEChem-02102213163D

 29 29  0     1  0  0  0  0  0999 V2000
   -3.6042   -3.5728    1.4576 H   0  0  0  0  0  0  0  0  0  0  0  0
   -3.5202   -2.6488    0.8866 C   0  0  0  0  0  0  0  0  0  0  0  0
   -4.2052   -1.9048    1.2896 H   0  0  0  0  0  0  0  0  0  0  0  0
   -3.7552   -2.8428   -0.1584 H   0  0  0  0  0  0  0  0  0  0  0  0
   -2.1052   -2.1358    0.9946 C   0  0  0  0  0  0  0  0  0  0  0  0
   -1.2852   -2.7288    1.6826 O   0  0  0  0  0  0  0  0  0  0  0  0
   -1.8202   -1.0288    0.3146 N   0  0  0  0  0  0  0  0  0  0  0  0
   -2.5542   -0.5788   -0.2104 H   0  0  0  0  0  0  0  0  0  0  0  0
   -0.5102   -0.3728    0.3086 C   0  0  1  0  0  0  0  0  0  0  0  0
    0.2354   -1.0844   -0.0490 H   0  0  0  0  0  0  0  0  0  0  0  0
   -0.5452    0.8158   -0.6698 C   0  0  0  0  0  0  0  0  0  0  0  0
    0.4374    1.2904   -0.6907 H   0  0  0  0  0  0  0  0  0  0  0  0
   -0.7597    0.4442   -1.6735 H   0  0  0  0  0  0  0  0  0  0  0  0
   -1.5737    1.8586   -0.3163 C   0  0  0  0  0  0  0  0  0  0  0  0
   -2.0175    2.1700    0.9511 N   0  0  0  0  0  0  0  0  0  0  0  0
   -1.7697    1.6893    1.8030 H   0  0  0  0  0  0  0  0  0  0  0  0
   -2.8443    3.2247    0.8544 C   0  0  0  0  0  0  0  0  0  0  0  0
   -3.3566    3.6966    1.6839 H   0  0  0  0  0  0  0  0  0  0  0  0
   -2.9463    3.6192   -0.4232 N   0  0  0  0  0  0  0  0  0  0  0  0
   -2.1468    2.7563   -1.1772 C   0  0  0  0  0  0  0  0  0  0  0  0
   -1.9800    2.8092   -2.2452 H   0  0  0  0  0  0  0  0  0  0  0  0
   -0.1073    0.0565    1.7296 C   0  0  0  0  0  0  0  0  0  0  0  0
    1.0285   -0.1699    2.1459 O   0  0  0  0  0  0  0  0  0  0  0  0
   -1.0395    0.6588    2.4785 N   0  0  0  0  0  0  0  0  0  0  0  0
   -1.9636    0.7597    2.0849 H   0  0  0  0  0  0  0  0  0  0  0  0
   -0.8222    1.1334    3.8425 C   0  0  0  0  0  0  0  0  0  0  0  0
   -0.0212    1.8761    3.8521 H   0  0  0  0  0  0  0  0  0  0  0  0
   -1.7349    1.5853    4.2320 H   0  0  0  0  0  0  0  0  0  0  0  0
   -0.5312    0.2997    4.4834 H   0  0  0  0  0  0  0  0  0  0  0  0
  5  6  2  0  0  0  0
  5  7  1  0  0  0  0
  2  3  1  0  0  0  0
  2  4  1  0  0  0  0
  2  5  1  0  0  0  0
  1  2  1  0  0  0  0
 22 23  2  0  0  0  0
 22 24  1  0  0  0  0
 20 21  1  0  0  0  0
 19 20  1  0  0  0  0
 17 18  1  0  0  0  0
 17 19  2  0  0  0  0
 15 16  1  0  0  0  0
 15 17  1  0  0  0  0
 14 15  1  0  0  0  0
 14 20  2  0  0  0  0
 11 12  1  0  0  0  0
 11 13  1  0  0  0  0
 11 14  1  0  0  0  0
  9 10  1  0  0  0  0
  9 11  1  0  0  0  0
  9 22  1  0  0  0  0
  7  8  1  0  0  0  0
  7  9  1  0  0  0  0
 26 27  1  0  0  0  0
 26 28  1  0  0  0  0
 26 29  1  0  0  0  0
 24 25  1  0  0  0  0
 24 26  1  0  0  0  0
M  END
$$$$
default_name
  -OEChem-02102213163D

 29 29  0     1  0  0  0  0  0999 V2000
   -3.6042   -3.5728    1.4576 H   0  0  0  0  0  0  0  0  0  0  0  0
   -3.5202   -2.6488    0.8866 C   0  0  0  0  0  0  0  0  0  0  0  0
   -4.2052   -1.9048    1.2896 H   0  0  0  0  0  0  0  0  0  0  0  0
   -3.7552   -2.8428   -0.1584 H   0  0  0  0  0  0  0  0  0  0  0  0
   -2.1052   -2.1358    0.9946 C   0  0  0  0  0  0  0  0  0  0  0  0
   -1.2852   -2.7288    1.6826 O   0  0  0  0  0  0  0  0  0  0  0  0
   -1.8202   -1.0288    0.3146 N   0  0  0  0  0  0  0  0  0  0  0  0
   -2.5542   -0.5788   -0.2104 H   0  0  0  0  0  0  0  0  0  0  0  0
   -0.5102   -0.3728    0.3086 C   0  0  1  0  0  0  0  0  0  0  0  0
    0.2354   -1.0844   -0.0490 H   0  0  0  0  0  0  0  0  0  0  0  0
   -0.5452    0.8158   -0.6698 C   0  0  0  0  0  0  0  0  0  0  0  0
    0.4374    1.2904   -0.6907 H   0  0  0  0  0  0  0  0  0  0  0  0
   -0.7597    0.4442   -1.6735 H   0  0  0  0  0  0  0  0  0  0  0  0
   -1.5737    1.8586   -0.3163 C   0  0  0  0  0  0  0  0  0  0  0  0
   -1.8132    2.3756    0.9389 N   0  0  0  0  0  0  0  0  0  0  0  0
   -1.3851    2.0697    1.7999 H   0  0  0  0  0  0  0  0  0  0  0  0
   -2.7228    3.3570    0.8175 C   0  0  0  0  0  0  0  0  0  0  0  0
   -3.1180    3.9488    1.6340 H   0  0  0  0  0  0  0  0  0  0  0  0
   -3.0752    3.5072   -0.4677 N   0  0  0  0  0  0  0  0  0  0  0  0
   -2.3548    2.5579   -1.1973 C   0  0  0  0  0  0  0  0  0  0  0  0
   -2.3807    2.4228   -2.2708 H   0  0  0  0  0  0  0  0  0  0  0  0
   -0.1073    0.0565    1.7296 C   0  0  0  0  0  0  0  0  0  0  0  0
    1.0285   -0.1699    2.1459 O   0  0  0  0  0  0  0  0  0  0  0  0
   -1.0395    0.6588    2.4785 N   0  0  0  0  0  0  0  0  0  0  0  0
   -1.9636    0.7597    2.0849 H   0  0  0  0  0  0  0  0  0  0  0  0
   -0.8222    1.1334    3.8425 C   0  0  0  0  0  0  0  0  0  0  0  0
   -0.0212    1.8761    3.8521 H   0  0  0  0  0  0  0  0  0  0  0  0
   -1.7349    1.5853    4.2320 H   0  0  0  0  0  0  0  0  0  0  0  0
   -0.5312    0.2997    4.4834 H   0  0  0  0  0  0  0  0  0  0  0  0
  5  6  2  0  0  0  0
  5  7  1  0  0  0  0
  2  3  1  0  0  0  0
  2  4  1  0  0  0  0
  2  5  1  0  0  0  0
  1  2  1  0  0  0  0
 22 23  2  0  0  0  0
 22 24  1  0  0  0  0
 20 21  1  0  0  0  0
 19 20  1  0  0  0  0
 17 18  1  0  0  0  0
 17 19  2  0  0  0  0
 15 16  1  0  0  0  0
 15 17  1  0  0  0  0
 14 15  1  0  0  0  0
 14 20  2  0  0  0  0
 11 12  1  0  0  0  0
 11 13  1  0  0  0  0
 11 14  1  0  0  0  0
  9 10  1  0  0  0  0
  9 11  1  0  0  0  0
  9 22  1  0  0  0  0
  7  8  1  0  0  0  0
  7  9  1  0  0  0  0
 26 27  1  0  0  0  0
 26 28  1  0  0  0  0
 26 29  1  0  0  0  0
 24 25  1  0  0  0  0
 24 26  1  0  0  0  0
M  END
$$$$
default_name
  -OEChem-02102213163D

 29 29  0     1  0  0  0  0  0999 V2000
   -3.6042   -3.5728    1.4576 H   0  0  0  0  0  0  0  0  0  0  0  0
   -3.5202   -2.6488    0.8866 C   0  0  0  0  0  0  0  0  0  0  0  0
   -4.2052   -1.9048    1.2896 H   0  0  0  0  0  0  0  0  0  0  0  0
   -3.7552   -2.8428   -0.1584 H   0  0  0  0  0  0  0  0  0  0  0  0
   -2.1052   -2.1358    0.9946 C   0  0  0  0  0  0  0  0  0  0  0  0
   -1.2852   -2.7288    1.6826 O   0  0  0  0  0  0  0  0  0  0  0  0
   -1.8202   -1.0288    0.3146 N   0  0  0  0  0  0  0  0  0  0  0  0
   -2.5542   -0.5788   -0.2104 H   0  0  0  0  0  0  0  0  0  0  0  0
   -0.5102   -0.3728    0.3086 C   0  0  1  0  0  0  0  0  0  0  0  0
    0.2354   -1.0844   -0.0490 H   0  0  0  0  0  0  0  0  0  0  0  0
   -0.5452    0.8158   -0.6698 C   0  0  0  0  0  0  0  0  0  0  0  0
    0.4374    1.2904   -0.6907 H   0  0  0  0  0  0  0  0  0  0  0  0
   -0.7597    0.4442   -1.6735 H   0  0  0  0  0  0  0  0  0  0  0  0
   -1.5737    1.8586   -0.3163 C   0  0  0  0  0  0  0  0  0  0  0  0
   -1.6306    2.5844    0.8542 N   0  0  0  0  0  0  0  0  0  0  0  0
   -1.0372    2.4600    1.6608 H   0  0  0  0  0  0  0  0  0  0  0  0
   -2.6201    3.4857    0.7366 C   0  0  0  0  0  0  0  0  0  0  0  0
   -2.9118    4.1982    1.4986 H   0  0  0  0  0  0  0  0  0  0  0  0
   -3.2008    3.3834   -0.4678 N   0  0  0  0  0  0  0  0  0  0  0  0
   -2.5473    2.3501   -1.1444 C   0  0  0  0  0  0  0  0  0  0  0  0
   -2.7488    2.0206   -2.1555 H   0  0  0  0  0  0  0  0  0  0  0  0
   -0.1073    0.0565    1.7296 C   0  0  0  0  0  0  0  0  0  0  0  0
    1.0285   -0.1699    2.1459 O   0  0  0  0  0  0  0  0  0  0  0  0
   -1.0395    0.6588    2.4785 N   0  0  0  0  0  0  0  0  0  0  0  0
   -1.9636    0.7597    2.0849 H   0  0  0  0  0  0  0  0  0  0  0  0
   -0.8222    1.1334    3.8425 C   0  0  0  0  0  0  0  0  0  0  0  0
   -0.0212    1.8761    3.8521 H   0  0  0  0  0  0  0  0  0  0  0  0
   -1.7349    1.5853    4.2320 H   0  0  0  0  0  0  0  0  0  0  0  0
   -0.5312    0.2997    4.4834 H   0  0  0  0  0  0  0  0  0  0  0  0
  5  6  2  0  0  0  0
  5  7  1  0  0  0  0
  2  3  1  0  0  0  0
  2  4  1  0  0  0  0
  2  5  1  0  0  0  0
  1  2  1  0  0  0  0
 22 23  2  0  0  0  0
 22 24  1  0  0  0  0
 20 21  1  0  0  0  0
 19 20  1  0  0  0  0
 17 18  1  0  0  0  0
 17 19  2  0  0  0  0
 15 16  1  0  0  0  0
 15 17  1  0  0  0  0
 14 15  1  0  0  0  0
 14 20  2  0  0  0  0
 11 12  1  0  0  0  0
 11 13  1  0  0  0  0
 11 14  1  0  0  0  0
  9 10  1  0  0  0  0
  9 11  1  0  0  0  0
  9 22  1  0  0  0  0
  7  8  1  0  0  0  0
  7  9  1  0  0  0  0
 26 27  1  0  0  0  0
 26 28  1  0  0  0  0
 26 29  1  0  0  0  0
 24 25  1  0  0  0  0
 24 26  1  0  0  0  0
M  END
$$$$
default_name
  -OEChem-02102213163D

 29 29  0     1  0  0  0  0  0999 V2000
   -3.6042   -3.5728    1.4576 H   0  0  0  0  0  0  0  0  0  0  0  0
   -3.5202   -2.6488    0.8866 C   0  0  0  0  0  0  0  0  0  0  0  0
   -4.2052   -1.9048    1.2896 H   0  0  0  0  0  0  0  0  0  0  0  0
   -3.7552   -2.8428   -0.1584 H   0  0  0  0  0  0  0  0  0  0  0  0
   -2.1052   -2.1358    0.9946 C   0  0  0  0  0  0  0  0  0  0  0  0
   -1.2852   -2.7288    1.6826 O   0  0  0  0  0  0  0  0  0  0  0  0
   -1.8202   -1.0288    0.3146 N   0  0  0  0  0  0  0  0  0  0  0  0
   -2.5542   -0.5788   -0.2104 H   0  0  0  0  0  0  0  0  0  0  0  0
   -0.5102   -0.3728    0.3086 C   0  0  1  0  0  0  0  0  0  0  0  0
    0.2354   -1.0844   -0.0490 H   0  0  0  0  0  0  0  0  0  0  0  0
   -0.5452    0.8158   -0.6698 C   0  0  0  0  0  0  0  0  0  0  0  0
    0.4374    1.2904   -0.6907 H   0  0  0  0  0  0  0  0  0  0  0  0
   -0.7597    0.4442   -1.6735 H   0  0  0  0  0  0  0  0  0  0  0  0
   -1.5737    1.8586   -0.3163 C   0  0  0  0  0  0  0  0  0  0  0  0
   -1.4820    2.7822    0.7028 N   0  0  0  0  0  0  0  0  0  0  0  0
   -0.7499    2.8335    1.3952 H   0  0  0  0  0  0  0  0  0  0  0  0
   -2.5433    3.6019    0.6174 C   0  0  0  0  0  0  0  0  0  0  0  0
   -2.7520    4.4276    1.2867 H   0  0  0  0  0  0  0  0  0  0  0  0
   -3.3147    3.2561   -0.4235 N   0  0  0  0  0  0  0  0  0  0  0  0
   -2.7112    2.1470   -1.0221 C   0  0  0  0  0  0  0  0  0  0  0  0
   -3.0592    1.6302   -1.9071 H   0  0  0  0  0  0  0  0  0  0  0  0
   -0.1073    0.0565    1.7296 C   0  0  0  0  0  0  0  0  0  0  0  0
    1.0285   -0.1699    2.1459 O   0  0  0  0  0  0  0  0  0  0  0  0
   -1.0395    0.6588    2.4785 N   0  0  0  0  0  0  0  0  0  0  0  0
   -1.9636    0.7597    2.0849 H   0  0  0  0  0  0  0  0  0  0  0  0
   -0.8222    1.1334    3.8425 C   0  0  0  0  0  0  0  0  0  0  0  0
   -0.0212    1.8761    3.8521 H   0  0  0  0  0  0  0  0  0  0  0  0
   -1.7349    1.5853    4.2320 H   0  0  0  0  0  0  0  0  0  0  0  0
   -0.5312    0.2997    4.4834 H   0  0  0  0  0  0  0  0  0  0  0  0
  5  6  2  0  0  0  0
  5  7  1  0  0  0  0
  2  3  1  0  0  0  0
  2  4  1  0  0  0  0
  2  5  1  0  0  0  0
  1  2  1  0  0  0  0
 22 23  2  0  0  0  0
 22 24  1  0  0  0  0
 20 21  1  0  0  0  0
 19 20  1  0  0  0  0
 17 18  1  0  0  0  0
 17 19  2  0  0  0  0
 15 16  1  0  0  0  0
 15 17  1  0  0  0  0
 14 15  1  0  0  0  0
 14 20  2  0  0  0  0
 11 12  1  0  0  0  0
 11 13  1  0  0  0  0
 11 14  1  0  0  0  0
  9 10  1  0  0  0  0
  9 11  1  0  0  0  0
  9 22  1  0  0  0  0
  7  8  1  0  0  0  0
  7  9  1  0  0  0  0
 26 27  1  0  0  0  0
 26 28  1  0  0  0  0
 26 29  1  0  0  0  0
 24 25  1  0  0  0  0
 24 26  1  0  0  0  0
M  END
$$$$
default_name
  -OEChem-02102213163D

 29 29  0     1  0  0  0  0  0999 V2000
   -3.6042   -3.5728    1.4576 H   0  0  0  0  0  0  0  0  0  0  0  0
   -3.5202   -2.6488    0.8866 C   0  0  0  0  0  0  0  0  0  0  0  0
   -4.2052   -1.9048    1.2896 H   0  0  0  0  0  0  0  0  0  0  0  0
   -3.7552   -2.8428   -0.1584 H   0  0  0  0  0  0  0  0  0  0  0  0
   -2.1052   -2.1358    0.9946 C   0  0  0  0  0  0  0  0  0  0  0  0
   -1.2852   -2.7288    1.6826 O   0  0  0  0  0  0  0  0  0  0  0  0
   -1.8202   -1.0288    0.3146 N   0  0  0  0  0  0  0  0  0  0  0  0
   -2.5542   -0.5788   -0.2104 H   0  0  0  0  0  0  0  0  0  0  0  0
   -0.5102   -0.3728    0.3086 C   0  0  1  0  0  0  0  0  0  0  0  0
    0.2354   -1.0844   -0.0490 H   0  0  0  0  0  0  0  0  0  0  0  0
   -0.5452    0.8158   -0.6698 C   0  0  0  0  0  0  0  0  0  0  0  0
    0.4374    1.2904   -0.6907 H   0  0  0  0  0  0  0  0  0  0  0  0
   -0.7597    0.4442   -1.6735 H   0  0  0  0  0  0  0  0  0  0  0  0
   -1.5737    1.8586   -0.3163 C   0  0  0  0  0  0  0  0  0  0  0  0
   -1.3777    2.9556    0.4950 N   0  0  0  0  0  0  0  0  0  0  0  0
   -0.5425    3.1648    1.0212 H   0  0  0  0  0  0  0  0  0  0  0  0
   -2.4974    3.6978    0.4680 C   0  0  0  0  0  0  0  0  0  0  0  0
   -2.6495    4.6215    1.0130 H   0  0  0  0  0  0  0  0  0  0  0  0
   -3.4090    3.1340   -0.3379 N   0  0  0  0  0  0  0  0  0  0  0  0
   -2.8352    1.9625   -0.8388 C   0  0  0  0  0  0  0  0  0  0  0  0
   -3.2909    1.2781   -1.5426 H   0  0  0  0  0  0  0  0  0  0  0  0
   -0.1073    0.0565    1.7296 C   0  0  0  0  0  0  0  0  0  0  0  0
    1.0285   -0.1699    2.1459 O   0  0  0  0  0  0  0  0  0  0  0  0
   -1.0395    0.6588    2.4785 N   0  0  0  0  0  0  0  0  0  0  0  0
   -1.9636    0.7597    2.0849 H   0  0  0  0  0  0  0  0  0  0  0  0
   -0.8222    1.1334    3.8425 C   0  0  0  0  0  0  0  0  0  0  0  0
   -0.0212    1.8761    3.8521 H   0  0  0  0  0  0  0  0  0  0  0  0
   -1.7349    1.5853    4.2320 H   0  0  0  0  0  0  0  0  0  0  0  0
   -0.5312    0.2997    4.4834 H   0  0  0  0  0  0  0  0  0  0  0  0
  5  6  2  0  0  0  0
  5  7  1  0  0  0  0
  2  3  1  0  0  0  0
  2  4  1  0  0  0  0
  2  5  1  0  0  0  0
  1  2  1  0  0  0  0
 22 23  2  0  0  0  0
 22 24  1  0  0  0  0
 20 21  1  0  0  0  0
 19 20  1  0  0  0  0
 17 18  1  0  0  0  0
 17 19  2  0  0  0  0
 15 16  1  0  0  0  0
 15 17  1  0  0  0  0
 14 15  1  0  0  0  0
 14 20  2  0  0  0  0
 11 12  1  0  0  0  0
 11 13  1  0  0  0  0
 11 14  1  0  0  0  0
  9 10  1  0  0  0  0
  9 11  1  0  0  0  0
  9 22  1  0  0  0  0
  7  8  1  0  0  0  0
  7  9  1  0  0  0  0
 26 27  1  0  0  0  0
 26 28  1  0  0  0  0
 26 29  1  0  0  0  0
 24 25  1  0  0  0  0
 24 26  1  0  0  0  0
M  END
$$$$
default_name
  -OEChem-02102213163D

 29 29  0     1  0  0  0  0  0999 V2000
   -3.6042   -3.5728    1.4576 H   0  0  0  0  0  0  0  0  0  0  0  0
   -3.5202   -2.6488    0.8866 C   0  0  0  0  0  0  0  0  0  0  0  0
   -4.2052   -1.9048    1.2896 H   0  0  0  0  0  0  0  0  0  0  0  0
   -3.7552   -2.8428   -0.1584 H   0  0  0  0  0  0  0  0  0  0  0  0
   -2.1052   -2.1358    0.9946 C   0  0  0  0  0  0  0  0  0  0  0  0
   -1.2852   -2.7288    1.6826 O   0  0  0  0  0  0  0  0  0  0  0  0
   -1.8202   -1.0288    0.3146 N   0  0  0  0  0  0  0  0  0  0  0  0
   -2.5542   -0.5788   -0.2104 H   0  0  0  0  0  0  0  0  0  0  0  0
   -0.5102   -0.3728    0.3086 C   0  0  1  0  0  0  0  0  0  0  0  0
    0.2354   -1.0844   -0.0490 H   0  0  0  0  0  0  0  0  0  0  0  0
   -0.5452    0.8158   -0.6698 C   0  0  0  0  0  0  0  0  0  0  0  0
    0.4374    1.2904   -0.6907 H   0  0  0  0  0  0  0  0  0  0  0  0
   -0.7597    0.4442   -1.6735 H   0  0  0  0  0  0  0  0  0  0  0  0
   -1.5737    1.8586   -0.3163 C   0  0  0  0  0  0  0  0  0  0  0  0
   -1.3246    3.0927    0.2450 N   0  0  0  0  0  0  0  0  0  0  0  0
   -0.4293    3.4313    0.5643 H   0  0  0  0  0  0  0  0  0  0  0  0
   -2.4857    3.7668    0.2985 C   0  0  0  0  0  0  0  0  0  0  0  0
   -2.6114    4.7666    0.6959 H   0  0  0  0  0  0  0  0  0  0  0  0
   -3.4773    3.0255   -0.2167 N   0  0  0  0  0  0  0  0  0  0  0  0
   -2.9110    1.8092   -0.6069 C   0  0  0  0  0  0  0  0  0  0  0  0
   -3.4281    0.9883   -1.0868 H   0  0  0  0  0  0  0  0  0  0  0  0
   -0.1073    0.0565    1.7296 C   0  0  0  0  0  0  0  0  0  0  0  0
    1.0285   -0.1699    2.1459 O   0  0  0  0  0  0  0  0  0  0  0  0
   -1.0395    0.6588    2.4785 N   0  0  0  0  0  0  0  0  0  0  0  0
   -1.9636    0.7597    2.0849 H   0  0  0  0  0  0  0  0  0  0  0  0
   -0.8222    1.1334    3.8425 C   0  0  0  0  0  0  0  0  0  0  0  0
   -0.0212    1.8761    3.8521 H   0  0  0  0  0  0  0  0  0  0  0  0
   -1.7349    1.5853    4.2320 H   0  0  0  0  0  0  0  0  0  0  0  0
   -0.5312    0.2997    4.4834 H   0  0  0  0  0  0  0  0  0  0  0  0
  5  6  2  0  0  0  0
  5  7  1  0  0  0  0
  2  3  1  0  0  0  0
  2  4  1  0  0  0  0
  2  5  1  0  0  0  0
  1  2  1  0  0  0  0
 22 23  2  0  0  0  0
 22 24  1  0  0  0  0
 20 21  1  0  0  0  0
 19 20  1  0  0  0  0
 17 18  1  0  0  0  0
 17 19  2  0  0  0  0
 15 16  1  0  0  0  0
 15 17  1  0  0  0  0
 14 15  1  0  0  0  0
 14 20  2  0  0  0  0
 11 12  1  0  0  0  0
 11 13  1  0  0  0  0
 11 14  1  0  0  0  0
  9 10  1  0  0  0  0
  9 11  1  0  0  0  0
  9 22  1  0  0  0  0
  7  8  1  0  0  0  0
  7  9  1  0  0  0  0
 26 27  1  0  0  0  0
 26 28  1  0  0  0  0
 26 29  1  0  0  0  0
 24 25  1  0  0  0  0
 24 26  1  0  0  0  0
M  END
$$$$
default_name
  -OEChem-02102213163D

 29 29  0     1  0  0  0  0  0999 V2000
   -3.6042   -3.5728    1.4576 H   0  0  0  0  0  0  0  0  0  0  0  0
   -3.5202   -2.6488    0.8866 C   0  0  0  0  0  0  0  0  0  0  0  0
   -4.2052   -1.9048    1.2896 H   0  0  0  0  0  0  0  0  0  0  0  0
   -3.7552   -2.8428   -0.1584 H   0  0  0  0  0  0  0  0  0  0  0  0
   -2.1052   -2.1358    0.9946 C   0  0  0  0  0  0  0  0  0  0  0  0
   -1.2852   -2.7288    1.6826 O   0  0  0  0  0  0  0  0  0  0  0  0
   -1.8202   -1.0288    0.3146 N   0  0  0  0  0  0  0  0  0  0  0  0
   -2.5542   -0.5788   -0.2104 H   0  0  0  0  0  0  0  0  0  0  0  0
   -0.5102   -0.3728    0.3086 C   0  0  1  0  0  0  0  0  0  0  0  0
    0.2354   -1.0844   -0.0490 H   0  0  0  0  0  0  0  0  0  0  0  0
   -0.5452    0.8158   -0.6698 C   0  0  0  0  0  0  0  0  0  0  0  0
    0.4374    1.2904   -0.6907 H   0  0  0  0  0  0  0  0  0  0  0  0
   -0.7597    0.4442   -1.6735 H   0  0  0  0  0  0  0  0  0  0  0  0
   -1.5737    1.8586   -0.3163 C   0  0  0  0  0  0  0  0  0  0  0  0
   -1.3265    3.1842   -0.0303 N   0  0  0  0  0  0  0  0  0  0  0  0
   -0.4181    3.6149    0.0556 H   0  0  0  0  0  0  0  0  0  0  0  0
   -2.5089    3.8043    0.1204 C   0  0  0  0  0  0  0  0  0  0  0  0
   -2.6401    4.8531    0.3572 H   0  0  0  0  0  0  0  0  0  0  0  0
   -3.5150    2.9380   -0.0682 N   0  0  0  0  0  0  0  0  0  0  0  0
   -2.9333    1.6974   -0.3422 C   0  0  0  0  0  0  0  0  0  0  0  0
   -3.4613    0.7806   -0.5707 H   0  0  0  0  0  0  0  0  0  0  0  0
   -0.1073    0.0565    1.7296 C   0  0  0  0  0  0  0  0  0  0  0  0
    1.0285   -0.1699    2.1459 O   0  0  0  0  0  0  0  0  0  0  0  0
   -1.0395    0.6588    2.4785 N   0  0  0  0  0  0  0  0  0  0  0  0
   -1.9636    0.7597    2.0849 H   0  0  0  0  0  0  0  0  0  0  0  0
   -0.8222    1.1334    3.8425 C   0  0  0  0  0  0  0  0  0  0  0  0
   -0.0212    1.8761    3.8521 H   0  0  0  0  0  0  0  0  0  0  0  0
   -1.7349    1.5853    4.2320 H   0  0  0  0  0  0  0  0  0  0  0  0
   -0.5312    0.2997    4.4834 H   0  0  0  0  0  0  0  0  0  0  0  0
  5  6  2  0  0  0  0
  5  7  1  0  0  0  0
  2  3  1  0  0  0  0
  2  4  1  0  0  0  0
  2  5  1  0  0  0  0
  1  2  1  0  0  0  0
 22 23  2  0  0  0  0
 22 24  1  0  0  0  0
 20 21  1  0  0  0  0
 19 20  1  0  0  0  0
 17 18  1  0  0  0  0
 17 19  2  0  0  0  0
 15 16  1  0  0  0  0
 15 17  1  0  0  0  0
 14 15  1  0  0  0  0
 14 20  2  0  0  0  0
 11 12  1  0  0  0  0
 11 13  1  0  0  0  0
 11 14  1  0  0  0  0
  9 10  1  0  0  0  0
  9 11  1  0  0  0  0
  9 22  1  0  0  0  0
  7  8  1  0  0  0  0
  7  9  1  0  0  0  0
 26 27  1  0  0  0  0
 26 28  1  0  0  0  0
 26 29  1  0  0  0  0
 24 25  1  0  0  0  0
 24 26  1  0  0  0  0
M  END
$$$$
default_name
  -OEChem-02102213163D

 29 29  0     1  0  0  0  0  0999 V2000
   -3.6042   -3.5728    1.4576 H   0  0  0  0  0  0  0  0  0  0  0  0
   -3.5202   -2.6488    0.8866 C   0  0  0  0  0  0  0  0  0  0  0  0
   -4.2052   -1.9048    1.2896 H   0  0  0  0  0  0  0  0  0  0  0  0
   -3.7552   -2.8428   -0.1584 H   0  0  0  0  0  0  0  0  0  0  0  0
   -2.1052   -2.1358    0.9946 C   0  0  0  0  0  0  0  0  0  0  0  0
   -1.2852   -2.7288    1.6826 O   0  0  0  0  0  0  0  0  0  0  0  0
   -1.8202   -1.0288    0.3146 N   0  0  0  0  0  0  0  0  0  0  0  0
   -2.5542   -0.5788   -0.2104 H   0  0  0  0  0  0  0  0  0  0  0  0
   -0.5102   -0.3728    0.3086 C   0  0  1  0  0  0  0  0  0  0  0  0
    0.2354   -1.0844   -0.0490 H   0  0  0  0  0  0  0  0  0  0  0  0
   -0.5452    0.8158   -0.6698 C   0  0  0  0  0  0  0  0  0  0  0  0
    0.4374    1.2904   -0.6907 H   0  0  0  0  0  0  0  0  0  0  0  0
   -0.7597    0.4442   -1.6735 H   0  0  0  0  0  0  0  0  0  0  0  0
   -1.5737    1.8586   -0.3163 C   0  0  0  0  0  0  0  0  0  0  0  0
   -1.3832    3.2238   -0.3120 N   0  0  0  0  0  0  0  0  0  0  0  0
   -0.5094    3.7031   -0.4703 H   0  0  0  0  0  0  0  0  0  0  0  0
   -2.5655    3.8076   -0.0540 C   0  0  0  0  0  0  0  0  0  0  0  0
   -2.7338    4.8750    0.0199 H   0  0  0  0  0  0  0  0  0  0  0  0
   -3.5196    2.8774    0.0974 N   0  0  0  0  0  0  0  0  0  0  0  0
   -2.9007    1.6348   -0.0628 C   0  0  0  0  0  0  0  0  0  0  0  0
   -3.3883    0.6691   -0.0296 H   0  0  0  0  0  0  0  0  0  0  0  0
   -0.1073    0.0565    1.7296 C   0  0  0  0  0  0  0  0  0  0  0  0
    1.0285   -0.1699    2.1459 O   0  0  0  0  0  0  0  0  0  0  0  0
   -1.0395    0.6588    2.4785 N   0  0  0  0  0  0  0  0  0  0  0  0
   -1.9636    0.7597    2.0849 H   0  0  0  0  0  0  0  0  0  0  0  0
   -0.8222    1.1334    3.8425 C   0  0  0  0  0  0  0  0  0  0  0  0
   -0.0212    1.8761    3.8521 H   0  0  0  0  0  0  0  0  0  0  0  0
   -1.7349    1.5853    4.2320 H   0  0  0  0  0  0  0  0  0  0  0  0
   -0.5312    0.2997    4.4834 H   0  0  0  0  0  0  0  0  0  0  0  0
  5  6  2  0  0  0  0
  5  7  1  0  0  0  0
  2  3  1  0  0  0  0
  2  4  1  0  0  0  0
  2  5  1  0  0  0  0
  1  2  1  0  0  0  0
 22 23  2  0  0  0  0
 22 24  1  0  0  0  0
 20 21  1  0  0  0  0
 19 20  1  0  0  0  0
 17 18  1  0  0  0  0
 17 19  2  0  0  0  0
 15 16  1  0  0  0  0
 15 17  1  0  0  0  0
 14 15  1  0  0  0  0
 14 20  2  0  0  0  0
 11 12  1  0  0  0  0
 11 13  1  0  0  0  0
 11 14  1  0  0  0  0
  9 10  1  0  0  0  0
  9 11  1  0  0  0  0
  9 22  1  0  0  0  0
  7  8  1  0  0  0  0
  7  9  1  0  0  0  0
 26 27  1  0  0  0  0
 26 28  1  0  0  0  0
 26 29  1  0  0  0  0
 24 25  1  0  0  0  0
 24 26  1  0  0  0  0
M  END
$$$$
default_name
  -OEChem-02102213163D

 29 29  0     1  0  0  0  0  0999 V2000
   -3.6042   -3.5728    1.4576 H   0  0  0  0  0  0  0  0  0  0  0  0
   -3.5202   -2.6488    0.8866 C   0  0  0  0  0  0  0  0  0  0  0  0
   -4.2052   -1.9048    1.2896 H   0  0  0  0  0  0  0  0  0  0  0  0
   -3.7552   -2.8428   -0.1584 H   0  0  0  0  0  0  0  0  0  0  0  0
   -2.1052   -2.1358    0.9946 C   0  0  0  0  0  0  0  0  0  0  0  0
   -1.2852   -2.7288    1.6826 O   0  0  0  0  0  0  0  0  0  0  0  0
   -1.8202   -1.0288    0.3146 N   0  0  0  0  0  0  0  0  0  0  0  0
   -2.5542   -0.5788   -0.2104 H   0  0  0  0  0  0  0  0  0  0  0  0
   -0.5102   -0.3728    0.3086 C   0  0  1  0  0  0  0  0  0  0  0  0
    0.2354   -1.0844   -0.0490 H   0  0  0  0  0  0  0  0  0  0  0  0
   -0.5452    0.8158   -0.6698 C   0  0  0  0  0  0  0  0  0  0  0  0
    0.4374    1.2904   -0.6907 H   0  0  0  0  0  0  0  0  0  0  0  0
   -0.7597    0.4442   -1.6735 H   0  0  0  0  0  0  0  0  0  0  0  0
   -1.5737    1.8586   -0.3163 C   0  0  0  0  0  0  0  0  0  0  0  0
   -1.4908    3.2088   -0.5809 N   0  0  0  0  0  0  0  0  0  0  0  0
   -0.6973    3.6897   -0.9774 H   0  0  0  0  0  0  0  0  0  0  0  0
   -2.6517    3.7765   -0.2129 C   0  0  0  0  0  0  0  0  0  0  0  0
   -2.8860    4.8309   -0.2930 H   0  0  0  0  0  0  0  0  0  0  0  0
   -3.4906    2.8478    0.2689 N   0  0  0  0  0  0  0  0  0  0  0  0
   -2.8154    1.6258    0.2122 C   0  0  0  0  0  0  0  0  0  0  0  0
   -3.2141    0.6615    0.4997 H   0  0  0  0  0  0  0  0  0  0  0  0
   -0.1073    0.0565    1.7296 C   0  0  0  0  0  0  0  0  0  0  0  0
    1.0285   -0.1699    2.1459 O   0  0  0  0  0  0  0  0  0  0  0  0
   -1.0395    0.6588    2.4785 N   0  0  0  0  0  0  0  0  0  0  0  0
   -1.9636    0.7597    2.0849 H   0  0  0  0  0  0  0  0  0  0  0  0
   -0.8222    1.1334    3.8425 C   0  0  0  0  0  0  0  0  0  0  0  0
   -0.0212    1.8761    3.8521 H   0  0  0  0  0  0  0  0  0  0  0  0
   -1.7349    1.5853    4.2320 H   0  0  0  0  0  0  0  0  0  0  0  0
   -0.5312    0.2997    4.4834 H   0  0  0  0  0  0  0  0  0  0  0  0
  5  6  2  0  0  0  0
  5  7  1  0  0  0  0
  2  3  1  0  0  0  0
  2  4  1  0  0  0  0
  2  5  1  0  0  0  0
  1  2  1  0  0  0  0
 22 23  2  0  0  0  0
 22 24  1  0  0  0  0
 20 21  1  0  0  0  0
 19 20  1  0  0  0  0
 17 18  1  0  0  0  0
 17 19  2  0  0  0  0
 15 16  1  0  0  0  0
 15 17  1  0  0  0  0
 14 15  1  0  0  0  0
 14 20  2  0  0  0  0
 11 12  1  0  0  0  0
 11 13  1  0  0  0  0
 11 14  1  0  0  0  0
  9 10  1  0  0  0  0
  9 11  1  0  0  0  0
  9 22  1  0  0  0  0
  7  8  1  0  0  0  0
  7  9  1  0  0  0  0
 26 27  1  0  0  0  0
 26 28  1  0  0  0  0
 26 29  1  0  0  0  0
 24 25  1  0  0  0  0
 24 26  1  0  0  0  0
M  END
$$$$
default_name
  -OEChem-02102213163D

 29 29  0     1  0  0  0  0  0999 V2000
   -3.6042   -3.5728    1.4576 H   0  0  0  0  0  0  0  0  0  0  0  0
   -3.5202   -2.6488    0.8866 C   0  0  0  0  0  0  0  0  0  0  0  0
   -4.2052   -1.9048    1.2896 H   0  0  0  0  0  0  0  0  0  0  0  0
   -3.7552   -2.8428   -0.1584 H   0  0  0  0  0  0  0  0  0  0  0  0
   -2.1052   -2.1358    0.9946 C   0  0  0  0  0  0  0  0  0  0  0  0
   -1.2852   -2.7288    1.6826 O   0  0  0  0  0  0  0  0  0  0  0  0
   -1.8202   -1.0288    0.3146 N   0  0  0  0  0  0  0  0  0  0  0  0
   -2.5542   -0.5788   -0.2104 H   0  0  0  0  0  0  0  0  0  0  0  0
   -0.5102   -0.3728    0.3086 C   0  0  1  0  0  0  0  0  0  0  0  0
    0.2354   -1.0844   -0.0490 H   0  0  0  0  0  0  0  0  0  0  0  0
   -0.5452    0.8158   -0.6698 C   0  0  0  0  0  0  0  0  0  0  0  0
    0.4374    1.2904   -0.6907 H   0  0  0  0  0  0  0  0  0  0  0  0
   -0.7597    0.4442   -1.6735 H   0  0  0  0  0  0  0  0  0  0  0  0
   -1.5737    1.8586   -0.3163 C   0  0  0  0  0  0  0  0  0  0  0  0
   -1.6420    3.1404   -0.8188 N   0  0  0  0  0  0  0  0  0  0  0  0
   -0.9687    3.5759   -1.4313 H   0  0  0  0  0  0  0  0  0  0  0  0
   -2.7615    3.7132   -0.3454 C   0  0  0  0  0  0  0  0  0  0  0  0
   -3.0865    4.7238   -0.5602 H   0  0  0  0  0  0  0  0  0  0  0  0
   -3.4301    2.8513    0.4346 N   0  0  0  0  0  0  0  0  0  0  0  0
   -2.6831    1.6708    0.4643 C   0  0  0  0  0  0  0  0  0  0  0  0
   -2.9506    0.7582    0.9811 H   0  0  0  0  0  0  0  0  0  0  0  0
   -0.1073    0.0565    1.7296 C   0  0  0  0  0  0  0  0  0  0  0  0
    1.0285   -0.1699    2.1459 O   0  0  0  0  0  0  0  0  0  0  0  0
   -1.0395    0.6588    2.4785 N   0  0  0  0  0  0  0  0  0  0  0  0
   -1.9636    0.7597    2.0849 H   0  0  0  0  0  0  0  0  0  0  0  0
   -0.8222    1.1334    3.8425 C   0  0  0  0  0  0  0  0  0  0  0  0
   -0.0212    1.8761    3.8521 H   0  0  0  0  0  0  0  0  0  0  0  0
   -1.7349    1.5853    4.2320 H   0  0  0  0  0  0  0  0  0  0  0  0
   -0.5312    0.2997    4.4834 H   0  0  0  0  0  0  0  0  0  0  0  0
  5  6  2  0  0  0  0
  5  7  1  0  0  0  0
  2  3  1  0  0  0  0
  2  4  1  0  0  0  0
  2  5  1  0  0  0  0
  1  2  1  0  0  0  0
 22 23  2  0  0  0  0
 22 24  1  0  0  0  0
 20 21  1  0  0  0  0
 19 20  1  0  0  0  0
 17 18  1  0  0  0  0
 17 19  2  0  0  0  0
 15 16  1  0  0  0  0
 15 17  1  0  0  0  0
 14 15  1  0  0  0  0
 14 20  2  0  0  0  0
 11 12  1  0  0  0  0
 11 13  1  0  0  0  0
 11 14  1  0  0  0  0
  9 10  1  0  0  0  0
  9 11  1  0  0  0  0
  9 22  1  0  0  0  0
  7  8  1  0  0  0  0
  7  9  1  0  0  0  0
 26 27  1  0  0  0  0
 26 28  1  0  0  0  0
 26 29  1  0  0  0  0
 24 25  1  0  0  0  0
 24 26  1  0  0  0  0
M  END
$$$$
default_name
  -OEChem-02102213163D

 29 29  0     1  0  0  0  0  0999 V2000
   -3.6042   -3.5728    1.4576 H   0  0  0  0  0  0  0  0  0  0  0  0
   -3.5202   -2.6488    0.8866 C   0  0  0  0  0  0  0  0  0  0  0  0
   -4.2052   -1.9048    1.2896 H   0  0  0  0  0  0  0  0  0  0  0  0
   -3.7552   -2.8428   -0.1584 H   0  0  0  0  0  0  0  0  0  0  0  0
   -2.1052   -2.1358    0.9946 C   0  0  0  0  0  0  0  0  0  0  0  0
   -1.2852   -2.7288    1.6826 O   0  0  0  0  0  0  0  0  0  0  0  0
   -1.8202   -1.0288    0.3146 N   0  0  0  0  0  0  0  0  0  0  0  0
   -2.5542   -0.5788   -0.2104 H   0  0  0  0  0  0  0  0  0  0  0  0
   -0.5102   -0.3728    0.3086 C   0  0  1  0  0  0  0  0  0  0  0  0
    0.2354   -1.0844   -0.0490 H   0  0  0  0  0  0  0  0  0  0  0  0
   -0.5452    0.8158   -0.6698 C   0  0  0  0  0  0  0  0  0  0  0  0
    0.4775    1.1219   -0.8968 H   0  0  0  0  0  0  0  0  0  0  0  0
   -1.0143    0.4956   -1.6019 H   0  0  0  0  0  0  0  0  0  0  0  0
   -1.2970    2.0102   -0.1420 C   0  0  0  0  0  0  0  0  0  0  0  0
   -1.4892    3.2077   -0.7969 N   0  0  0  0  0  0  0  0  0  0  0  0
   -1.0876    3.4718   -1.6842 H   0  0  0  0  0  0  0  0  0  0  0  0
   -2.3023    3.9674   -0.0439 C   0  0  0  0  0  0  0  0  0  0  0  0
   -2.6320    4.9686   -0.2929 H   0  0  0  0  0  0  0  0  0  0  0  0
   -2.6565    3.3072    1.0683 N   0  0  0  0  0  0  0  0  0  0  0  0
   -2.0206    2.0639    1.0194 C   0  0  0  0  0  0  0  0  0  0  0  0
   -2.1119    1.2702    1.7496 H   0  0  0  0  0  0  0  0  0  0  0  0
   -0.1073    0.0565    1.7296 C   0  0  0  0  0  0  0  0  0  0  0  0
    1.0285   -0.1699    2.1459 O   0  0  0  0  0  0  0  0  0  0  0  0
   -1.0395    0.6588    2.4785 N   0  0  0  0  0  0  0  0  0  0  0  0
   -1.9636    0.7597    2.0849 H   0  0  0  0  0  0  0  0  0  0  0  0
   -0.8222    1.1334    3.8425 C   0  0  0  0  0  0  0  0  0  0  0  0
   -0.0212    1.8761    3.8521 H   0  0  0  0  0  0  0  0  0  0  0  0
   -1.7349    1.5853    4.2320 H   0  0  0  0  0  0  0  0  0  0  0  0
   -0.5312    0.2997    4.4834 H   0  0  0  0  0  0  0  0  0  0  0  0
  5  6  2  0  0  0  0
  5  7  1  0  0  0  0
  2  3  1  0  0  0  0
  2  4  1  0  0  0  0
  2  5  1  0  0  0  0
  1  2  1  0  0  0  0
 22 23  2  0  0  0  0
 22 24  1  0  0  0  0
 20 21  1  0  0  0  0
 19 20  1  0  0  0  0
 17 18  1  0  0  0  0
 17 19  2  0  0  0  0
 15 16  1  0  0  0  0
 15 17  1  0  0  0  0
 14 15  1  0  0  0  0
 14 20  2  0  0  0  0
 11 12  1  0  0  0  0
 11 13  1  0  0  0  0
 11 14  1  0  0  0  0
  9 10  1  0  0  0  0
  9 11  1  0  0  0  0
  9 22  1  0  0  0  0
  7  8  1  0  0  0  0
  7  9  1  0  0  0  0
 26 27  1  0  0  0  0
 26 28  1  0  0  0  0
 26 29  1  0  0  0  0
 24 25  1  0  0  0  0
 24 26  1  0  0  0  0
M  END
$$$$
default_name
  -OEChem-02102213163D

 29 29  0     1  0  0  0  0  0999 V2000
   -3.6042   -3.5728    1.4576 H   0  0  0  0  0  0  0  0  0  0  0  0
   -3.5202   -2.6488    0.8866 C   0  0  0  0  0  0  0  0  0  0  0  0
   -4.2052   -1.9048    1.2896 H   0  0  0  0  0  0  0  0  0  0  0  0
   -3.7552   -2.8428   -0.1584 H   0  0  0  0  0  0  0  0  0  0  0  0
   -2.1052   -2.1358    0.9946 C   0  0  0  0  0  0  0  0  0  0  0  0
   -1.2852   -2.7288    1.6826 O   0  0  0  0  0  0  0  0  0  0  0  0
   -1.8202   -1.0288    0.3146 N   0  0  0  0  0  0  0  0  0  0  0  0
   -2.5542   -0.5788   -0.2104 H   0  0  0  0  0  0  0  0  0  0  0  0
   -0.5102   -0.3728    0.3086 C   0  0  1  0  0  0  0  0  0  0  0  0
    0.2354   -1.0844   -0.0490 H   0  0  0  0  0  0  0  0  0  0  0  0
   -0.5452    0.8158   -0.6698 C   0  0  0  0  0  0  0  0  0  0  0  0
    0.4775    1.1219   -0.8968 H   0  0  0  0  0  0  0  0  0  0  0  0
   -1.0143    0.4956   -1.6019 H   0  0  0  0  0  0  0  0  0  0  0  0
   -1.2970    2.0102   -0.1420 C   0  0  0  0  0  0  0  0  0  0  0  0
   -1.7394    3.0870   -0.8801 N   0  0  0  0  0  0  0  0  0  0  0  0
   -1.5523    3.2557   -1.8572 H   0  0  0  0  0  0  0  0  0  0  0  0
   -2.4609    3.8786   -0.0688 C   0  0  0  0  0  0  0  0  0  0  0  0
   -2.9360    4.8072   -0.3606 H   0  0  0  0  0  0  0  0  0  0  0  0
   -2.5156    3.3536    1.1639 N   0  0  0  0  0  0  0  0  0  0  0  0
   -1.7763    2.1683    1.1310 C   0  0  0  0  0  0  0  0  0  0  0  0
   -1.6371    1.4789    1.9536 H   0  0  0  0  0  0  0  0  0  0  0  0
   -0.1073    0.0565    1.7296 C   0  0  0  0  0  0  0  0  0  0  0  0
    1.0285   -0.1699    2.1459 O   0  0  0  0  0  0  0  0  0  0  0  0
   -1.0395    0.6588    2.4785 N   0  0  0  0  0  0  0  0  0  0  0  0
   -1.9636    0.7597    2.0849 H   0  0  0  0  0  0  0  0  0  0  0  0
   -0.8222    1.1334    3.8425 C   0  0  0  0  0  0  0  0  0  0  0  0
   -0.0212    1.8761    3.8521 H   0  0  0  0  0  0  0  0  0  0  0  0
   -1.7349    1.5853    4.2320 H   0  0  0  0  0  0  0  0  0  0  0  0
   -0.5312    0.2997    4.4834 H   0  0  0  0  0  0  0  0  0  0  0  0
  5  6  2  0  0  0  0
  5  7  1  0  0  0  0
  2  3  1  0  0  0  0
  2  4  1  0  0  0  0
  2  5  1  0  0  0  0
  1  2  1  0  0  0  0
 22 23  2  0  0  0  0
 22 24  1  0  0  0  0
 20 21  1  0  0  0  0
 19 20  1  0  0  0  0
 17 18  1  0  0  0  0
 17 19  2  0  0  0  0
 15 16  1  0  0  0  0
 15 17  1  0  0  0  0
 14 15  1  0  0  0  0
 14 20  2  0  0  0  0
 11 12  1  0  0  0  0
 11 13  1  0  0  0  0
 11 14  1  0  0  0  0
  9 10  1  0  0  0  0
  9 11  1  0  0  0  0
  9 22  1  0  0  0  0
  7  8  1  0  0  0  0
  7  9  1  0  0  0  0
 26 27  1  0  0  0  0
 26 28  1  0  0  0  0
 26 29  1  0  0  0  0
 24 25  1  0  0  0  0
 24 26  1  0  0  0  0
M  END
$$$$
default_name
  -OEChem-02102213163D

 29 29  0     1  0  0  0  0  0999 V2000
   -3.6042   -3.5728    1.4576 H   0  0  0  0  0  0  0  0  0  0  0  0
   -3.5202   -2.6488    0.8866 C   0  0  0  0  0  0  0  0  0  0  0  0
   -4.2052   -1.9048    1.2896 H   0  0  0  0  0  0  0  0  0  0  0  0
   -3.7552   -2.8428   -0.1584 H   0  0  0  0  0  0  0  0  0  0  0  0
   -2.1052   -2.1358    0.9946 C   0  0  0  0  0  0  0  0  0  0  0  0
   -1.2852   -2.7288    1.6826 O   0  0  0  0  0  0  0  0  0  0  0  0
   -1.8202   -1.0288    0.3146 N   0  0  0  0  0  0  0  0  0  0  0  0
   -2.5542   -0.5788   -0.2104 H   0  0  0  0  0  0  0  0  0  0  0  0
   -0.5102   -0.3728    0.3086 C   0  0  1  0  0  0  0  0  0  0  0  0
    0.2354   -1.0844   -0.0490 H   0  0  0  0  0  0  0  0  0  0  0  0
   -0.5452    0.8158   -0.6698 C   0  0  0  0  0  0  0  0  0  0  0  0
    0.4775    1.1219   -0.8968 H   0  0  0  0  0  0  0  0  0  0  0  0
   -1.0143    0.4956   -1.6019 H   0  0  0  0  0  0  0  0  0  0  0  0
   -1.2970    2.0102   -0.1420 C   0  0  0  0  0  0  0  0  0  0  0  0
   -1.9873    2.9369   -0.8935 N   0  0  0  0  0  0  0  0  0  0  0  0
   -2.0172    2.9825   -1.9011 H   0  0  0  0  0  0  0  0  0  0  0  0
   -2.6111    3.7753   -0.0489 C   0  0  0  0  0  0  0  0  0  0  0  0
   -3.2288    4.6150   -0.3428 H   0  0  0  0  0  0  0  0  0  0  0  0
   -2.3642    3.4235    1.2214 N   0  0  0  0  0  0  0  0  0  0  0  0
   -1.5269    2.3058    1.1752 C   0  0  0  0  0  0  0  0  0  0  0  0
   -1.1556    1.7498    2.0264 H   0  0  0  0  0  0  0  0  0  0  0  0
   -0.1073    0.0565    1.7296 C   0  0  0  0  0  0  0  0  0  0  0  0
    1.0285   -0.1699    2.1459 O   0  0  0  0  0  0  0  0  0  0  0  0
   -1.0395    0.6588    2.4785 N   0  0  0  0  0  0  0  0  0  0  0  0
   -1.9636    0.7597    2.0849 H   0  0  0  0  0  0  0  0  0  0  0  0
   -0.8222    1.1334    3.8425 C   0  0  0  0  0  0  0  0  0  0  0  0
   -0.0212    1.8761    3.8521 H   0  0  0  0  0  0  0  0  0  0  0  0
   -1.7349    1.5853    4.2320 H   0  0  0  0  0  0  0  0  0  0  0  0
   -0.5312    0.2997    4.4834 H   0  0  0  0  0  0  0  0  0  0  0  0
  5  6  2  0  0  0  0
  5  7  1  0  0  0  0
  2  3  1  0  0  0  0
  2  4  1  0  0  0  0
  2  5  1  0  0  0  0
  1  2  1  0  0  0  0
 22 23  2  0  0  0  0
 22 24  1  0  0  0  0
 20 21  1  0  0  0  0
 19 20  1  0  0  0  0
 17 18  1  0  0  0  0
 17 19  2  0  0  0  0
 15 16  1  0  0  0  0
 15 17  1  0  0  0  0
 14 15  1  0  0  0  0
 14 20  2  0  0  0  0
 11 12  1  0  0  0  0
 11 13  1  0  0  0  0
 11 14  1  0  0  0  0
  9 10  1  0  0  0  0
  9 11  1  0  0  0  0
  9 22  1  0  0  0  0
  7  8  1  0  0  0  0
  7  9  1  0  0  0  0
 26 27  1  0  0  0  0
 26 28  1  0  0  0  0
 26 29  1  0  0  0  0
 24 25  1  0  0  0  0
 24 26  1  0  0  0  0
M  END
$$$$
default_name
  -OEChem-02102213163D

 29 29  0     1  0  0  0  0  0999 V2000
   -3.6042   -3.5728    1.4576 H   0  0  0  0  0  0  0  0  0  0  0  0
   -3.5202   -2.6488    0.8866 C   0  0  0  0  0  0  0  0  0  0  0  0
   -4.2052   -1.9048    1.2896 H   0  0  0  0  0  0  0  0  0  0  0  0
   -3.7552   -2.8428   -0.1584 H   0  0  0  0  0  0  0  0  0  0  0  0
   -2.1052   -2.1358    0.9946 C   0  0  0  0  0  0  0  0  0  0  0  0
   -1.2852   -2.7288    1.6826 O   0  0  0  0  0  0  0  0  0  0  0  0
   -1.8202   -1.0288    0.3146 N   0  0  0  0  0  0  0  0  0  0  0  0
   -2.5542   -0.5788   -0.2104 H   0  0  0  0  0  0  0  0  0  0  0  0
   -0.5102   -0.3728    0.3086 C   0  0  1  0  0  0  0  0  0  0  0  0
    0.2354   -1.0844   -0.0490 H   0  0  0  0  0  0  0  0  0  0  0  0
   -0.5452    0.8158   -0.6698 C   0  0  0  0  0  0  0  0  0  0  0  0
    0.4775    1.1219   -0.8968 H   0  0  0  0  0  0  0  0  0  0  0  0
   -1.0143    0.4956   -1.6019 H   0  0  0  0  0  0  0  0  0  0  0  0
   -1.2970    2.0102   -0.1420 C   0  0  0  0  0  0  0  0  0  0  0  0
   -2.2158    2.7677   -0.8363 N   0  0  0  0  0  0  0  0  0  0  0  0
   -2.4504    2.6708   -1.8128 H   0  0  0  0  0  0  0  0  0  0  0  0
   -2.7427    3.6644    0.0145 C   0  0  0  0  0  0  0  0  0  0  0  0
   -3.4907    4.4051   -0.2407 H   0  0  0  0  0  0  0  0  0  0  0  0
   -2.2125    3.5122    1.2368 N   0  0  0  0  0  0  0  0  0  0  0  0
   -1.2894    2.4669    1.1490 C   0  0  0  0  0  0  0  0  0  0  0  0
   -0.7002    2.0646    1.9629 H   0  0  0  0  0  0  0  0  0  0  0  0
   -0.1073    0.0565    1.7296 C   0  0  0  0  0  0  0  0  0  0  0  0
    1.0285   -0.1699    2.1459 O   0  0  0  0  0  0  0  0  0  0  0  0
   -1.0395    0.6588    2.4785 N   0  0  0  0  0  0  0  0  0  0  0  0
   -1.9636    0.7597    2.0849 H   0  0  0  0  0  0  0  0  0  0  0  0
   -0.8222    1.1334    3.8425 C   0  0  0  0  0  0  0  0  0  0  0  0
   -0.0212    1.8761    3.8521 H   0  0  0  0  0  0  0  0  0  0  0  0
   -1.7349    1.5853    4.2320 H   0  0  0  0  0  0  0  0  0  0  0  0
   -0.5312    0.2997    4.4834 H   0  0  0  0  0  0  0  0  0  0  0  0
  5  6  2  0  0  0  0
  5  7  1  0  0  0  0
  2  3  1  0  0  0  0
  2  4  1  0  0  0  0
  2  5  1  0  0  0  0
  1  2  1  0  0  0  0
 22 23  2  0  0  0  0
 22 24  1  0  0  0  0
 20 21  1  0  0  0  0
 19 20  1  0  0  0  0
 17 18  1  0  0  0  0
 17 19  2  0  0  0  0
 15 16  1  0  0  0  0
 15 17  1  0  0  0  0
 14 15  1  0  0  0  0
 14 20  2  0  0  0  0
 11 12  1  0  0  0  0
 11 13  1  0  0  0  0
 11 14  1  0  0  0  0
  9 10  1  0  0  0  0
  9 11  1  0  0  0  0
  9 22  1  0  0  0  0
  7  8  1  0  0  0  0
  7  9  1  0  0  0  0
 26 27  1  0  0  0  0
 26 28  1  0  0  0  0
 26 29  1  0  0  0  0
 24 25  1  0  0  0  0
 24 26  1  0  0  0  0
M  END
$$$$
default_name
  -OEChem-02102213163D

 29 29  0     1  0  0  0  0  0999 V2000
   -3.6042   -3.5728    1.4576 H   0  0  0  0  0  0  0  0  0  0  0  0
   -3.5202   -2.6488    0.8866 C   0  0  0  0  0  0  0  0  0  0  0  0
   -4.2052   -1.9048    1.2896 H   0  0  0  0  0  0  0  0  0  0  0  0
   -3.7552   -2.8428   -0.1584 H   0  0  0  0  0  0  0  0  0  0  0  0
   -2.1052   -2.1358    0.9946 C   0  0  0  0  0  0  0  0  0  0  0  0
   -1.2852   -2.7288    1.6826 O   0  0  0  0  0  0  0  0  0  0  0  0
   -1.8202   -1.0288    0.3146 N   0  0  0  0  0  0  0  0  0  0  0  0
   -2.5542   -0.5788   -0.2104 H   0  0  0  0  0  0  0  0  0  0  0  0
   -0.5102   -0.3728    0.3086 C   0  0  1  0  0  0  0  0  0  0  0  0
    0.2354   -1.0844   -0.0490 H   0  0  0  0  0  0  0  0  0  0  0  0
   -0.5452    0.8158   -0.6698 C   0  0  0  0  0  0  0  0  0  0  0  0
    0.4775    1.1219   -0.8968 H   0  0  0  0  0  0  0  0  0  0  0  0
   -1.0143    0.4956   -1.6019 H   0  0  0  0  0  0  0  0  0  0  0  0
   -1.2970    2.0102   -0.1420 C   0  0  0  0  0  0  0  0  0  0  0  0
   -2.4095    2.5910   -0.7122 N   0  0  0  0  0  0  0  0  0  0  0  0
   -2.8225    2.3418   -1.5985 H   0  0  0  0  0  0  0  0  0  0  0  0
   -2.8468    3.5535    0.1170 C   0  0  0  0  0  0  0  0  0  0  0  0
   -3.7036    4.1918   -0.0613 H   0  0  0  0  0  0  0  0  0  0  0  0
   -2.0708    3.6137    1.2091 N   0  0  0  0  0  0  0  0  0  0  0  0
   -1.0800    2.6406    1.0541 C   0  0  0  0  0  0  0  0  0  0  0  0
   -0.3018    2.4017    1.7674 H   0  0  0  0  0  0  0  0  0  0  0  0
   -0.1073    0.0565    1.7296 C   0  0  0  0  0  0  0  0  0  0  0  0
    1.0285   -0.1699    2.1459 O   0  0  0  0  0  0  0  0  0  0  0  0
   -1.0395    0.6588    2.4785 N   0  0  0  0  0  0  0  0  0  0  0  0
   -1.9636    0.7597    2.0849 H   0  0  0  0  0  0  0  0  0  0  0  0
   -0.8222    1.1334    3.8425 C   0  0  0  0  0  0  0  0  0  0  0  0
   -0.0212    1.8761    3.8521 H   0  0  0  0  0  0  0  0  0  0  0  0
   -1.7349    1.5853    4.2320 H   0  0  0  0  0  0  0  0  0  0  0  0
   -0.5312    0.2997    4.4834 H   0  0  0  0  0  0  0  0  0  0  0  0
  5  6  2  0  0  0  0
  5  7  1  0  0  0  0
  2  3  1  0  0  0  0
  2  4  1  0  0  0  0
  2  5  1  0  0  0  0
  1  2  1  0  0  0  0
 22 23  2  0  0  0  0
 22 24  1  0  0  0  0
 20 21  1  0  0  0  0
 19 20  1  0  0  0  0
 17 18  1  0  0  0  0
 17 19  2  0  0  0  0
 15 16  1  0  0  0  0
 15 17  1  0  0  0  0
 14 15  1  0  0  0  0
 14 20  2  0  0  0  0
 11 12  1  0  0  0  0
 11 13  1  0  0  0  0
 11 14  1  0  0  0  0
  9 10  1  0  0  0  0
  9 11  1  0  0  0  0
  9 22  1  0  0  0  0
  7  8  1  0  0  0  0
  7  9  1  0  0  0  0
 26 27  1  0  0  0  0
 26 28  1  0  0  0  0
 26 29  1  0  0  0  0
 24 25  1  0  0  0  0
 24 26  1  0  0  0  0
M  END
$$$$
default_name
  -OEChem-02102213163D

 29 29  0     1  0  0  0  0  0999 V2000
   -3.6042   -3.5728    1.4576 H   0  0  0  0  0  0  0  0  0  0  0  0
   -3.5202   -2.6488    0.8866 C   0  0  0  0  0  0  0  0  0  0  0  0
   -4.2052   -1.9048    1.2896 H   0  0  0  0  0  0  0  0  0  0  0  0
   -3.7552   -2.8428   -0.1584 H   0  0  0  0  0  0  0  0  0  0  0  0
   -2.1052   -2.1358    0.9946 C   0  0  0  0  0  0  0  0  0  0  0  0
   -1.2852   -2.7288    1.6826 O   0  0  0  0  0  0  0  0  0  0  0  0
   -1.8202   -1.0288    0.3146 N   0  0  0  0  0  0  0  0  0  0  0  0
   -2.5542   -0.5788   -0.2104 H   0  0  0  0  0  0  0  0  0  0  0  0
   -0.5102   -0.3728    0.3086 C   0  0  1  0  0  0  0  0  0  0  0  0
    0.2354   -1.0844   -0.0490 H   0  0  0  0  0  0  0  0  0  0  0  0
   -0.5452    0.8158   -0.6698 C   0  0  0  0  0  0  0  0  0  0  0  0
    0.4775    1.1219   -0.8968 H   0  0  0  0  0  0  0  0  0  0  0  0
   -1.0143    0.4956   -1.6019 H   0  0  0  0  0  0  0  0  0  0  0  0
   -1.2970    2.0102   -0.1420 C   0  0  0  0  0  0  0  0  0  0  0  0
   -2.5551    2.4187   -0.5298 N   0  0  0  0  0  0  0  0  0  0  0  0
   -3.1081    2.0180   -1.2726 H   0  0  0  0  0  0  0  0  0  0  0  0
   -2.9162    3.4503    0.2517 C   0  0  0  0  0  0  0  0  0  0  0  0
   -3.8531    3.9896    0.1832 H   0  0  0  0  0  0  0  0  0  0  0  0
   -1.9488    3.7209    1.1401 N   0  0  0  0  0  0  0  0  0  0  0  0
   -0.9129    2.8152    0.8971 C   0  0  0  0  0  0  0  0  0  0  0  0
    0.0123    2.7382    1.4534 H   0  0  0  0  0  0  0  0  0  0  0  0
   -0.1073    0.0565    1.7296 C   0  0  0  0  0  0  0  0  0  0  0  0
    1.0285   -0.1699    2.1459 O   0  0  0  0  0  0  0  0  0  0  0  0
   -1.0395    0.6588    2.4785 N   0  0  0  0  0  0  0  0  0  0  0  0
   -1.9636    0.7597    2.0849 H   0  0  0  0  0  0  0  0  0  0  0  0
   -0.8222    1.1334    3.8425 C   0  0  0  0  0  0  0  0  0  0  0  0
   -0.0212    1.8761    3.8521 H   0  0  0  0  0  0  0  0  0  0  0  0
   -1.7349    1.5853    4.2320 H   0  0  0  0  0  0  0  0  0  0  0  0
   -0.5312    0.2997    4.4834 H   0  0  0  0  0  0  0  0  0  0  0  0
  5  6  2  0  0  0  0
  5  7  1  0  0  0  0
  2  3  1  0  0  0  0
  2  4  1  0  0  0  0
  2  5  1  0  0  0  0
  1  2  1  0  0  0  0
 22 23  2  0  0  0  0
 22 24  1  0  0  0  0
 20 21  1  0  0  0  0
 19 20  1  0  0  0  0
 17 18  1  0  0  0  0
 17 19  2  0  0  0  0
 15 16  1  0  0  0  0
 15 17  1  0  0  0  0
 14 15  1  0  0  0  0
 14 20  2  0  0  0  0
 11 12  1  0  0  0  0
 11 13  1  0  0  0  0
 11 14  1  0  0  0  0
  9 10  1  0  0  0  0
  9 11  1  0  0  0  0
  9 22  1  0  0  0  0
  7  8  1  0  0  0  0
  7  9  1  0  0  0  0
 26 27  1  0  0  0  0
 26 28  1  0  0  0  0
 26 29  1  0  0  0  0
 24 25  1  0  0  0  0
 24 26  1  0  0  0  0
M  END
$$$$
default_name
  -OEChem-02102213163D

 29 29  0     1  0  0  0  0  0999 V2000
   -3.6042   -3.5728    1.4576 H   0  0  0  0  0  0  0  0  0  0  0  0
   -3.5202   -2.6488    0.8866 C   0  0  0  0  0  0  0  0  0  0  0  0
   -4.2052   -1.9048    1.2896 H   0  0  0  0  0  0  0  0  0  0  0  0
   -3.7552   -2.8428   -0.1584 H   0  0  0  0  0  0  0  0  0  0  0  0
   -2.1052   -2.1358    0.9946 C   0  0  0  0  0  0  0  0  0  0  0  0
   -1.2852   -2.7288    1.6826 O   0  0  0  0  0  0  0  0  0  0  0  0
   -1.8202   -1.0288    0.3146 N   0  0  0  0  0  0  0  0  0  0  0  0
   -2.5542   -0.5788   -0.2104 H   0  0  0  0  0  0  0  0  0  0  0  0
   -0.5102   -0.3728    0.3086 C   0  0  1  0  0  0  0  0  0  0  0  0
    0.2354   -1.0844   -0.0490 H   0  0  0  0  0  0  0  0  0  0  0  0
   -0.5452    0.8158   -0.6698 C   0  0  0  0  0  0  0  0  0  0  0  0
    0.4775    1.1219   -0.8968 H   0  0  0  0  0  0  0  0  0  0  0  0
   -1.0143    0.4956   -1.6019 H   0  0  0  0  0  0  0  0  0  0  0  0
   -1.2970    2.0102   -0.1420 C   0  0  0  0  0  0  0  0  0  0  0  0
   -2.6427    2.2627   -0.3015 N   0  0  0  0  0  0  0  0  0  0  0  0
   -3.2878    1.7214   -0.8573 H   0  0  0  0  0  0  0  0  0  0  0  0
   -2.9463    3.3617    0.4095 C   0  0  0  0  0  0  0  0  0  0  0  0
   -3.9290    3.8123    0.4762 H   0  0  0  0  0  0  0  0  0  0  0  0
   -1.8549    3.8266    1.0346 N   0  0  0  0  0  0  0  0  0  0  0  0
   -0.7996    2.9787    0.6886 C   0  0  0  0  0  0  0  0  0  0  0  0
    0.2208    3.0512    1.0422 H   0  0  0  0  0  0  0  0  0  0  0  0
   -0.1073    0.0565    1.7296 C   0  0  0  0  0  0  0  0  0  0  0  0
    1.0285   -0.1699    2.1459 O   0  0  0  0  0  0  0  0  0  0  0  0
   -1.0395    0.6588    2.4785 N   0  0  0  0  0  0  0  0  0  0  0  0
   -1.9636    0.7597    2.0849 H   0  0  0  0  0  0  0  0  0  0  0  0
   -0.8222    1.1334    3.8425 C   0  0  0  0  0  0  0  0  0  0  0  0
   -0.0212    1.8761    3.8521 H   0  0  0  0  0  0  0  0  0  0  0  0
   -1.7349    1.5853    4.2320 H   0  0  0  0  0  0  0  0  0  0  0  0
   -0.5312    0.2997    4.4834 H   0  0  0  0  0  0  0  0  0  0  0  0
  5  6  2  0  0  0  0
  5  7  1  0  0  0  0
  2  3  1  0  0  0  0
  2  4  1  0  0  0  0
  2  5  1  0  0  0  0
  1  2  1  0  0  0  0
 22 23  2  0  0  0  0
 22 24  1  0  0  0  0
 20 21  1  0  0  0  0
 19 20  1  0  0  0  0
 17 18  1  0  0  0  0
 17 19  2  0  0  0  0
 15 16  1  0  0  0  0
 15 17  1  0  0  0  0
 14 15  1  0  0  0  0
 14 20  2  0  0  0  0
 11 12  1  0  0  0  0
 11 13  1  0  0  0  0
 11 14  1  0  0  0  0
  9 10  1  0  0  0  0
  9 11  1  0  0  0  0
  9 22  1  0  0  0  0
  7  8  1  0  0  0  0
  7  9  1  0  0  0  0
 26 27  1  0  0  0  0
 26 28  1  0  0  0  0
 26 29  1  0  0  0  0
 24 25  1  0  0  0  0
 24 26  1  0  0  0  0
M  END
$$$$
default_name
  -OEChem-02102213163D

 29 29  0     1  0  0  0  0  0999 V2000
   -3.6042   -3.5728    1.4576 H   0  0  0  0  0  0  0  0  0  0  0  0
   -3.5202   -2.6488    0.8866 C   0  0  0  0  0  0  0  0  0  0  0  0
   -4.2052   -1.9048    1.2896 H   0  0  0  0  0  0  0  0  0  0  0  0
   -3.7552   -2.8428   -0.1584 H   0  0  0  0  0  0  0  0  0  0  0  0
   -2.1052   -2.1358    0.9946 C   0  0  0  0  0  0  0  0  0  0  0  0
   -1.2852   -2.7288    1.6826 O   0  0  0  0  0  0  0  0  0  0  0  0
   -1.8202   -1.0288    0.3146 N   0  0  0  0  0  0  0  0  0  0  0  0
   -2.5542   -0.5788   -0.2104 H   0  0  0  0  0  0  0  0  0  0  0  0
   -0.5102   -0.3728    0.3086 C   0  0  1  0  0  0  0  0  0  0  0  0
    0.2354   -1.0844   -0.0490 H   0  0  0  0  0  0  0  0  0  0  0  0
   -0.5452    0.8158   -0.6698 C   0  0  0  0  0  0  0  0  0  0  0  0
    0.4775    1.1219   -0.8968 H   0  0  0  0  0  0  0  0  0  0  0  0
   -1.0143    0.4956   -1.6019 H   0  0  0  0  0  0  0  0  0  0  0  0
   -1.2970    2.0102   -0.1420 C   0  0  0  0  0  0  0  0  0  0  0  0
   -2.6663    2.1336   -0.0429 N   0  0  0  0  0  0  0  0  0  0  0  0
   -3.3493    1.4723   -0.3811 H   0  0  0  0  0  0  0  0  0  0  0  0
   -2.9350    3.2937    0.5794 C   0  0  0  0  0  0  0  0  0  0  0  0
   -3.9262    3.6721    0.7977 H   0  0  0  0  0  0  0  0  0  0  0  0
   -1.7954    3.9237    0.8998 N   0  0  0  0  0  0  0  0  0  0  0  0
   -0.7477    3.1199    0.4428 C   0  0  0  0  0  0  0  0  0  0  0  0
    0.3094    3.3193    0.5617 H   0  0  0  0  0  0  0  0  0  0  0  0
   -0.1073    0.0565    1.7296 C   0  0  0  0  0  0  0  0  0  0  0  0
    1.0285   -0.1699    2.1459 O   0  0  0  0  0  0  0  0  0  0  0  0
   -1.0395    0.6588    2.4785 N   0  0  0  0  0  0  0  0  0  0  0  0
   -1.9636    0.7597    2.0849 H   0  0  0  0  0  0  0  0  0  0  0  0
   -0.8222    1.1334    3.8425 C   0  0  0  0  0  0  0  0  0  0  0  0
   -0.0212    1.8761    3.8521 H   0  0  0  0  0  0  0  0  0  0  0  0
   -1.7349    1.5853    4.2320 H   0  0  0  0  0  0  0  0  0  0  0  0
   -0.5312    0.2997    4.4834 H   0  0  0  0  0  0  0  0  0  0  0  0
  5  6  2  0  0  0  0
  5  7  1  0  0  0  0
  2  3  1  0  0  0  0
  2  4  1  0  0  0  0
  2  5  1  0  0  0  0
  1  2  1  0  0  0  0
 22 23  2  0  0  0  0
 22 24  1  0  0  0  0
 20 21  1  0  0  0  0
 19 20  1  0  0  0  0
 17 18  1  0  0  0  0
 17 19  2  0  0  0  0
 15 16  1  0  0  0  0
 15 17  1  0  0  0  0
 14 15  1  0  0  0  0
 14 20  2  0  0  0  0
 11 12  1  0  0  0  0
 11 13  1  0  0  0  0
 11 14  1  0  0  0  0
  9 10  1  0  0  0  0
  9 11  1  0  0  0  0
  9 22  1  0  0  0  0
  7  8  1  0  0  0  0
  7  9  1  0  0  0  0
 26 27  1  0  0  0  0
 26 28  1  0  0  0  0
 26 29  1  0  0  0  0
 24 25  1  0  0  0  0
 24 26  1  0  0  0  0
M  END
$$$$
default_name
  -OEChem-02102213163D

 29 29  0     1  0  0  0  0  0999 V2000
   -3.6042   -3.5728    1.4576 H   0  0  0  0  0  0  0  0  0  0  0  0
   -3.5202   -2.6488    0.8866 C   0  0  0  0  0  0  0  0  0  0  0  0
   -4.2052   -1.9048    1.2896 H   0  0  0  0  0  0  0  0  0  0  0  0
   -3.7552   -2.8428   -0.1584 H   0  0  0  0  0  0  0  0  0  0  0  0
   -2.1052   -2.1358    0.9946 C   0  0  0  0  0  0  0  0  0  0  0  0
   -1.2852   -2.7288    1.6826 O   0  0  0  0  0  0  0  0  0  0  0  0
   -1.8202   -1.0288    0.3146 N   0  0  0  0  0  0  0  0  0  0  0  0
   -2.5542   -0.5788   -0.2104 H   0  0  0  0  0  0  0  0  0  0  0  0
   -0.5102   -0.3728    0.3086 C   0  0  1  0  0  0  0  0  0  0  0  0
    0.2354   -1.0844   -0.0490 H   0  0  0  0  0  0  0  0  0  0  0  0
   -0.5452    0.8158   -0.6698 C   0  0  0  0  0  0  0  0  0  0  0  0
    0.4775    1.1219   -0.8968 H   0  0  0  0  0  0  0  0  0  0  0  0
   -1.0143    0.4956   -1.6019 H   0  0  0  0  0  0  0  0  0  0  0  0
   -1.2970    2.0102   -0.1420 C   0  0  0  0  0  0  0  0  0  0  0  0
   -2.6244    2.0401    0.2285 N   0  0  0  0  0  0  0  0  0  0  0  0
   -3.2884    1.2876    0.1237 H   0  0  0  0  0  0  0  0  0  0  0  0
   -2.8830    3.2510    0.7501 C   0  0  0  0  0  0  0  0  0  0  0  0
   -3.8447    3.5783    1.1258 H   0  0  0  0  0  0  0  0  0  0  0  0
   -1.7743    4.0054    0.7449 N   0  0  0  0  0  0  0  0  0  0  0  0
   -0.7608    3.2293    0.1766 C   0  0  0  0  0  0  0  0  0  0  0  0
    0.2722    3.5242    0.0449 H   0  0  0  0  0  0  0  0  0  0  0  0
   -0.1073    0.0565    1.7296 C   0  0  0  0  0  0  0  0  0  0  0  0
    1.0285   -0.1699    2.1459 O   0  0  0  0  0  0  0  0  0  0  0  0
   -1.0395    0.6588    2.4785 N   0  0  0  0  0  0  0  0  0  0  0  0
   -1.9636    0.7597    2.0849 H   0  0  0  0  0  0  0  0  0  0  0  0
   -0.8222    1.1334    3.8425 C   0  0  0  0  0  0  0  0  0  0  0  0
   -0.0212    1.8761    3.8521 H   0  0  0  0  0  0  0  0  0  0  0  0
   -1.7349    1.5853    4.2320 H   0  0  0  0  0  0  0  0  0  0  0  0
   -0.5312    0.2997    4.4834 H   0  0  0  0  0  0  0  0  0  0  0  0
  5  6  2  0  0  0  0
  5  7  1  0  0  0  0
  2  3  1  0  0  0  0
  2  4  1  0  0  0  0
  2  5  1  0  0  0  0
  1  2  1  0  0  0  0
 22 23  2  0  0  0  0
 22 24  1  0  0  0  0
 20 21  1  0  0  0  0
 19 20  1  0  0  0  0
 17 18  1  0  0  0  0
 17 19  2  0  0  0  0
 15 16  1  0  0  0  0
 15 17  1  0  0  0  0
 14 15  1  0  0  0  0
 14 20  2  0  0  0  0
 11 12  1  0  0  0  0
 11 13  1  0  0  0  0
 11 14  1  0  0  0  0
  9 10  1  0  0  0  0
  9 11  1  0  0  0  0
  9 22  1  0  0  0  0
  7  8  1  0  0  0  0
  7  9  1  0  0  0  0
 26 27  1  0  0  0  0
 26 28  1  0  0  0  0
 26 29  1  0  0  0  0
 24 25  1  0  0  0  0
 24 26  1  0  0  0  0
M  END
$$$$
default_name
  -OEChem-02102213163D

 29 29  0     1  0  0  0  0  0999 V2000
   -3.6042   -3.5728    1.4576 H   0  0  0  0  0  0  0  0  0  0  0  0
   -3.5202   -2.6488    0.8866 C   0  0  0  0  0  0  0  0  0  0  0  0
   -4.2052   -1.9048    1.2896 H   0  0  0  0  0  0  0  0  0  0  0  0
   -3.7552   -2.8428   -0.1584 H   0  0  0  0  0  0  0  0  0  0  0  0
   -2.1052   -2.1358    0.9946 C   0  0  0  0  0  0  0  0  0  0  0  0
   -1.2852   -2.7288    1.6826 O   0  0  0  0  0  0  0  0  0  0  0  0
   -1.8202   -1.0288    0.3146 N   0  0  0  0  0  0  0  0  0  0  0  0
   -2.5542   -0.5788   -0.2104 H   0  0  0  0  0  0  0  0  0  0  0  0
   -0.5102   -0.3728    0.3086 C   0  0  1  0  0  0  0  0  0  0  0  0
    0.2354   -1.0844   -0.0490 H   0  0  0  0  0  0  0  0  0  0  0  0
   -0.5452    0.8158   -0.6698 C   0  0  0  0  0  0  0  0  0  0  0  0
    0.4775    1.1219   -0.8968 H   0  0  0  0  0  0  0  0  0  0  0  0
   -1.0143    0.4956   -1.6019 H   0  0  0  0  0  0  0  0  0  0  0  0
   -1.2970    2.0102   -0.1420 C   0  0  0  0  0  0  0  0  0  0  0  0
   -2.5197    1.9886    0.4940 N   0  0  0  0  0  0  0  0  0  0  0  0
   -3.1092    1.1798    0.6226 H   0  0  0  0  0  0  0  0  0  0  0  0
   -2.7939    3.2365    0.9097 C   0  0  0  0  0  0  0  0  0  0  0  0
   -3.6903    3.5376    1.4381 H   0  0  0  0  0  0  0  0  0  0  0  0
   -1.7932    4.0662    0.5804 N   0  0  0  0  0  0  0  0  0  0  0  0
   -0.8380    3.2994   -0.0921 C   0  0  0  0  0  0  0  0  0  0  0  0
    0.1116    3.6521   -0.4732 H   0  0  0  0  0  0  0  0  0  0  0  0
   -0.1073    0.0565    1.7296 C   0  0  0  0  0  0  0  0  0  0  0  0
    1.0285   -0.1699    2.1459 O   0  0  0  0  0  0  0  0  0  0  0  0
   -1.0395    0.6588    2.4785 N   0  0  0  0  0  0  0  0  0  0  0  0
   -1.9636    0.7597    2.0849 H   0  0  0  0  0  0  0  0  0  0  0  0
   -0.8222    1.1334    3.8425 C   0  0  0  0  0  0  0  0  0  0  0  0
   -0.0212    1.8761    3.8521 H   0  0  0  0  0  0  0  0  0  0  0  0
   -1.7349    1.5853    4.2320 H   0  0  0  0  0  0  0  0  0  0  0  0
   -0.5312    0.2997    4.4834 H   0  0  0  0  0  0  0  0  0  0  0  0
  5  6  2  0  0  0  0
  5  7  1  0  0  0  0
  2  3  1  0  0  0  0
  2  4  1  0  0  0  0
  2  5  1  0  0  0  0
  1  2  1  0  0  0  0
 22 23  2  0  0  0  0
 22 24  1  0  0  0  0
 20 21  1  0  0  0  0
 19 20  1  0  0  0  0
 17 18  1  0  0  0  0
 17 19  2  0  0  0  0
 15 16  1  0  0  0  0
 15 17  1  0  0  0  0
 14 15  1  0  0  0  0
 14 20  2  0  0  0  0
 11 12  1  0  0  0  0
 11 13  1  0  0  0  0
 11 14  1  0  0  0  0
  9 10  1  0  0  0  0
  9 11  1  0  0  0  0
  9 22  1  0  0  0  0
  7  8  1  0  0  0  0
  7  9  1  0  0  0  0
 26 27  1  0  0  0  0
 26 28  1  0  0  0  0
 26 29  1  0  0  0  0
 24 25  1  0  0  0  0
 24 26  1  0  0  0  0
M  END
$$$$
default_name
  -OEChem-02102213163D

 29 29  0     1  0  0  0  0  0999 V2000
   -3.6042   -3.5728    1.4576 H   0  0  0  0  0  0  0  0  0  0  0  0
   -3.5202   -2.6488    0.8866 C   0  0  0  0  0  0  0  0  0  0  0  0
   -4.2052   -1.9048    1.2896 H   0  0  0  0  0  0  0  0  0  0  0  0
   -3.7552   -2.8428   -0.1584 H   0  0  0  0  0  0  0  0  0  0  0  0
   -2.1052   -2.1358    0.9946 C   0  0  0  0  0  0  0  0  0  0  0  0
   -1.2852   -2.7288    1.6826 O   0  0  0  0  0  0  0  0  0  0  0  0
   -1.8202   -1.0288    0.3146 N   0  0  0  0  0  0  0  0  0  0  0  0
   -2.5542   -0.5788   -0.2104 H   0  0  0  0  0  0  0  0  0  0  0  0
   -0.5102   -0.3728    0.3086 C   0  0  1  0  0  0  0  0  0  0  0  0
    0.2354   -1.0844   -0.0490 H   0  0  0  0  0  0  0  0  0  0  0  0
   -0.5452    0.8158   -0.6698 C   0  0  0  0  0  0  0  0  0  0  0  0
    0.4775    1.1219   -0.8968 H   0  0  0  0  0  0  0  0  0  0  0  0
   -1.0143    0.4956   -1.6019 H   0  0  0  0  0  0  0  0  0  0  0  0
   -1.2970    2.0102   -0.1420 C   0  0  0  0  0  0  0  0  0  0  0  0
   -2.3595    1.9827    0.7357 N   0  0  0  0  0  0  0  0  0  0  0  0
   -2.8241    1.1565    1.0817 H   0  0  0  0  0  0  0  0  0  0  0  0
   -2.6738    3.2512    1.0475 C   0  0  0  0  0  0  0  0  0  0  0  0
   -3.4733    3.5525    1.7133 H   0  0  0  0  0  0  0  0  0  0  0  0
   -1.8507    4.1020    0.4174 N   0  0  0  0  0  0  0  0  0  0  0  0
   -0.9741    3.3254   -0.3448 C   0  0  0  0  0  0  0  0  0  0  0  0
   -0.1614    3.6941   -0.9572 H   0  0  0  0  0  0  0  0  0  0  0  0
   -0.1073    0.0565    1.7296 C   0  0  0  0  0  0  0  0  0  0  0  0
    1.0285   -0.1699    2.1459 O   0  0  0  0  0  0  0  0  0  0  0  0
   -1.0395    0.6588    2.4785 N   0  0  0  0  0  0  0  0  0  0  0  0
   -1.9636    0.7597    2.0849 H   0  0  0  0  0  0  0  0  0  0  0  0
   -0.8222    1.1334    3.8425 C   0  0  0  0  0  0  0  0  0  0  0  0
   -0.0212    1.8761    3.8521 H   0  0  0  0  0  0  0  0  0  0  0  0
   -1.7349    1.5853    4.2320 H   0  0  0  0  0  0  0  0  0  0  0  0
   -0.5312    0.2997    4.4834 H   0  0  0  0  0  0  0  0  0  0  0  0
  5  6  2  0  0  0  0
  5  7  1  0  0  0  0
  2  3  1  0  0  0  0
  2  4  1  0  0  0  0
  2  5  1  0  0  0  0
  1  2  1  0  0  0  0
 22 23  2  0  0  0  0
 22 24  1  0  0  0  0
 20 21  1  0  0  0  0
 19 20  1  0  0  0  0
 17 18  1  0  0  0  0
 17 19  2  0  0  0  0
 15 16  1  0  0  0  0
 15 17  1  0  0  0  0
 14 15  1  0  0  0  0
 14 20  2  0  0  0  0
 11 12  1  0  0  0  0
 11 13  1  0  0  0  0
 11 14  1  0  0  0  0
  9 10  1  0  0  0  0
  9 11  1  0  0  0  0
  9 22  1  0  0  0  0
  7  8  1  0  0  0  0
  7  9  1  0  0  0  0
 26 27  1  0  0  0  0
 26 28  1  0  0  0  0
 26 29  1  0  0  0  0
 24 25  1  0  0  0  0
 24 26  1  0  0  0  0
M  END
$$$$
default_name
  -OEChem-02102213163D

 29 29  0     1  0  0  0  0  0999 V2000
   -3.6042   -3.5728    1.4576 H   0  0  0  0  0  0  0  0  0  0  0  0
   -3.5202   -2.6488    0.8866 C   0  0  0  0  0  0  0  0  0  0  0  0
   -4.2052   -1.9048    1.2896 H   0  0  0  0  0  0  0  0  0  0  0  0
   -3.7552   -2.8428   -0.1584 H   0  0  0  0  0  0  0  0  0  0  0  0
   -2.1052   -2.1358    0.9946 C   0  0  0  0  0  0  0  0  0  0  0  0
   -1.2852   -2.7288    1.6826 O   0  0  0  0  0  0  0  0  0  0  0  0
   -1.8202   -1.0288    0.3146 N   0  0  0  0  0  0  0  0  0  0  0  0
   -2.5542   -0.5788   -0.2104 H   0  0  0  0  0  0  0  0  0  0  0  0
   -0.5102   -0.3728    0.3086 C   0  0  1  0  0  0  0  0  0  0  0  0
    0.2354   -1.0844   -0.0490 H   0  0  0  0  0  0  0  0  0  0  0  0
   -0.5452    0.8158   -0.6698 C   0  0  0  0  0  0  0  0  0  0  0  0
    0.4775    1.1219   -0.8968 H   0  0  0  0  0  0  0  0  0  0  0  0
   -1.0143    0.4956   -1.6019 H   0  0  0  0  0  0  0  0  0  0  0  0
   -1.2970    2.0102   -0.1420 C   0  0  0  0  0  0  0  0  0  0  0  0
   -2.1545    2.0227    0.9371 N   0  0  0  0  0  0  0  0  0  0  0  0
   -2.4523    1.2190    1.4697 H   0  0  0  0  0  0  0  0  0  0  0  0
   -2.5309    3.2941    1.1541 C   0  0  0  0  0  0  0  0  0  0  0  0
   -3.2087    3.6222    1.9327 H   0  0  0  0  0  0  0  0  0  0  0  0
   -1.9429    4.1103    0.2673 N   0  0  0  0  0  0  0  0  0  0  0  0
   -1.1597    3.3056   -0.5643 C   0  0  0  0  0  0  0  0  0  0  0  0
   -0.5282    3.6475   -1.3741 H   0  0  0  0  0  0  0  0  0  0  0  0
   -0.1073    0.0565    1.7296 C   0  0  0  0  0  0  0  0  0  0  0  0
    1.0285   -0.1699    2.1459 O   0  0  0  0  0  0  0  0  0  0  0  0
   -1.0395    0.6588    2.4785 N   0  0  0  0  0  0  0  0  0  0  0  0
   -1.9636    0.7597    2.0849 H   0  0  0  0  0  0  0  0  0  0  0  0
   -0.8222    1.1334    3.8425 C   0  0  0  0  0  0  0  0  0  0  0  0
   -0.0212    1.8761    3.8521 H   0  0  0  0  0  0  0  0  0  0  0  0
   -1.7349    1.5853    4.2320 H   0  0  0  0  0  0  0  0  0  0  0  0
   -0.5312    0.2997    4.4834 H   0  0  0  0  0  0  0  0  0  0  0  0
  5  6  2  0  0  0  0
  5  7  1  0  0  0  0
  2  3  1  0  0  0  0
  2  4  1  0  0  0  0
  2  5  1  0  0  0  0
  1  2  1  0  0  0  0
 22 23  2  0  0  0  0
 22 24  1  0  0  0  0
 20 21  1  0  0  0  0
 19 20  1  0  0  0  0
 17 18  1  0  0  0  0
 17 19  2  0  0  0  0
 15 16  1  0  0  0  0
 15 17  1  0  0  0  0
 14 15  1  0  0  0  0
 14 20  2  0  0  0  0
 11 12  1  0  0  0  0
 11 13  1  0  0  0  0
 11 14  1  0  0  0  0
  9 10  1  0  0  0  0
  9 11  1  0  0  0  0
  9 22  1  0  0  0  0
  7  8  1  0  0  0  0
  7  9  1  0  0  0  0
 26 27  1  0  0  0  0
 26 28  1  0  0  0  0
 26 29  1  0  0  0  0
 24 25  1  0  0  0  0
 24 26  1  0  0  0  0
M  END
$$$$
default_name
  -OEChem-02102213163D

 29 29  0     1  0  0  0  0  0999 V2000
   -3.6042   -3.5728    1.4576 H   0  0  0  0  0  0  0  0  0  0  0  0
   -3.5202   -2.6488    0.8866 C   0  0  0  0  0  0  0  0  0  0  0  0
   -4.2052   -1.9048    1.2896 H   0  0  0  0  0  0  0  0  0  0  0  0
   -3.7552   -2.8428   -0.1584 H   0  0  0  0  0  0  0  0  0  0  0  0
   -2.1052   -2.1358    0.9946 C   0  0  0  0  0  0  0  0  0  0  0  0
   -1.2852   -2.7288    1.6826 O   0  0  0  0  0  0  0  0  0  0  0  0
   -1.8202   -1.0288    0.3146 N   0  0  0  0  0  0  0  0  0  0  0  0
   -2.5542   -0.5788   -0.2104 H   0  0  0  0  0  0  0  0  0  0  0  0
   -0.5102   -0.3728    0.3086 C   0  0  1  0  0  0  0  0  0  0  0  0
    0.2354   -1.0844   -0.0490 H   0  0  0  0  0  0  0  0  0  0  0  0
   -0.5452    0.8158   -0.6698 C   0  0  0  0  0  0  0  0  0  0  0  0
    0.4775    1.1219   -0.8968 H   0  0  0  0  0  0  0  0  0  0  0  0
   -1.0143    0.4956   -1.6019 H   0  0  0  0  0  0  0  0  0  0  0  0
   -1.2970    2.0102   -0.1420 C   0  0  0  0  0  0  0  0  0  0  0  0
   -1.9189    2.1059    1.0844 N   0  0  0  0  0  0  0  0  0  0  0  0
   -2.0193    1.3633    1.7601 H   0  0  0  0  0  0  0  0  0  0  0  0
   -2.3748    3.3623    1.2222 C   0  0  0  0  0  0  0  0  0  0  0  0
   -2.9143    3.7418    2.0813 H   0  0  0  0  0  0  0  0  0  0  0  0
   -2.0635    4.0906    0.1400 N   0  0  0  0  0  0  0  0  0  0  0  0
   -1.3822    3.2413   -0.7357 C   0  0  0  0  0  0  0  0  0  0  0  0
   -0.9638    3.5153   -1.6955 H   0  0  0  0  0  0  0  0  0  0  0  0
   -0.1073    0.0565    1.7296 C   0  0  0  0  0  0  0  0  0  0  0  0
    1.0285   -0.1699    2.1459 O   0  0  0  0  0  0  0  0  0  0  0  0
   -1.0395    0.6588    2.4785 N   0  0  0  0  0  0  0  0  0  0  0  0
   -1.9636    0.7597    2.0849 H   0  0  0  0  0  0  0  0  0  0  0  0
   -0.8222    1.1334    3.8425 C   0  0  0  0  0  0  0  0  0  0  0  0
   -0.0212    1.8761    3.8521 H   0  0  0  0  0  0  0  0  0  0  0  0
   -1.7349    1.5853    4.2320 H   0  0  0  0  0  0  0  0  0  0  0  0
   -0.5312    0.2997    4.4834 H   0  0  0  0  0  0  0  0  0  0  0  0
  5  6  2  0  0  0  0
  5  7  1  0  0  0  0
  2  3  1  0  0  0  0
  2  4  1  0  0  0  0
  2  5  1  0  0  0  0
  1  2  1  0  0  0  0
 22 23  2  0  0  0  0
 22 24  1  0  0  0  0
 20 21  1  0  0  0  0
 19 20  1  0  0  0  0
 17 18  1  0  0  0  0
 17 19  2  0  0  0  0
 15 16  1  0  0  0  0
 15 17  1  0  0  0  0
 14 15  1  0  0  0  0
 14 20  2  0  0  0  0
 11 12  1  0  0  0  0
 11 13  1  0  0  0  0
 11 14  1  0  0  0  0
  9 10  1  0  0  0  0
  9 11  1  0  0  0  0
  9 22  1  0  0  0  0
  7  8  1  0  0  0  0
  7  9  1  0  0  0  0
 26 27  1  0  0  0  0
 26 28  1  0  0  0  0
 26 29  1  0  0  0  0
 24 25  1  0  0  0  0
 24 26  1  0  0  0  0
M  END
$$$$
default_name
  -OEChem-02102213163D

 29 29  0     1  0  0  0  0  0999 V2000
   -3.6042   -3.5728    1.4576 H   0  0  0  0  0  0  0  0  0  0  0  0
   -3.5202   -2.6488    0.8866 C   0  0  0  0  0  0  0  0  0  0  0  0
   -4.2052   -1.9048    1.2896 H   0  0  0  0  0  0  0  0  0  0  0  0
   -3.7552   -2.8428   -0.1584 H   0  0  0  0  0  0  0  0  0  0  0  0
   -2.1052   -2.1358    0.9946 C   0  0  0  0  0  0  0  0  0  0  0  0
   -1.2852   -2.7288    1.6826 O   0  0  0  0  0  0  0  0  0  0  0  0
   -1.8202   -1.0288    0.3146 N   0  0  0  0  0  0  0  0  0  0  0  0
   -2.5542   -0.5788   -0.2104 H   0  0  0  0  0  0  0  0  0  0  0  0
   -0.5102   -0.3728    0.3086 C   0  0  1  0  0  0  0  0  0  0  0  0
    0.2354   -1.0844   -0.0490 H   0  0  0  0  0  0  0  0  0  0  0  0
   -0.5452    0.8158   -0.6698 C   0  0  0  0  0  0  0  0  0  0  0  0
    0.4775    1.1219   -0.8968 H   0  0  0  0  0  0  0  0  0  0  0  0
   -1.0143    0.4956   -1.6019 H   0  0  0  0  0  0  0  0  0  0  0  0
   -1.2970    2.0102   -0.1420 C   0  0  0  0  0  0  0  0  0  0  0  0
   -1.6687    2.2267    1.1676 N   0  0  0  0  0  0  0  0  0  0  0  0
   -1.5545    1.5794    1.9332 H   0  0  0  0  0  0  0  0  0  0  0  0
   -2.2163    3.4511    1.2471 C   0  0  0  0  0  0  0  0  0  0  0  0
   -2.6103    3.9032    2.1491 H   0  0  0  0  0  0  0  0  0  0  0  0
   -2.2044    4.0442    0.0444 N   0  0  0  0  0  0  0  0  0  0  0  0
   -1.6265    3.1368   -0.8473 C   0  0  0  0  0  0  0  0  0  0  0  0
   -1.4385    3.3066   -1.8996 H   0  0  0  0  0  0  0  0  0  0  0  0
   -0.1073    0.0565    1.7296 C   0  0  0  0  0  0  0  0  0  0  0  0
    1.0285   -0.1699    2.1459 O   0  0  0  0  0  0  0  0  0  0  0  0
   -1.0395    0.6588    2.4785 N   0  0  0  0  0  0  0  0  0  0  0  0
   -1.9636    0.7597    2.0849 H   0  0  0  0  0  0  0  0  0  0  0  0
   -0.8222    1.1334    3.8425 C   0  0  0  0  0  0  0  0  0  0  0  0
   -0.0212    1.8761    3.8521 H   0  0  0  0  0  0  0  0  0  0  0  0
   -1.7349    1.5853    4.2320 H   0  0  0  0  0  0  0  0  0  0  0  0
   -0.5312    0.2997    4.4834 H   0  0  0  0  0  0  0  0  0  0  0  0
  5  6  2  0  0  0  0
  5  7  1  0  0  0  0
  2  3  1  0  0  0  0
  2  4  1  0  0  0  0
  2  5  1  0  0  0  0
  1  2  1  0  0  0  0
 22 23  2  0  0  0  0
 22 24  1  0  0  0  0
 20 21  1  0  0  0  0
 19 20  1  0  0  0  0
 17 18  1  0  0  0  0
 17 19  2  0  0  0  0
 15 16  1  0  0  0  0
 15 17  1  0  0  0  0
 14 15  1  0  0  0  0
 14 20  2  0  0  0  0
 11 12  1  0  0  0  0
 11 13  1  0  0  0  0
 11 14  1  0  0  0  0
  9 10  1  0  0  0  0
  9 11  1  0  0  0  0
  9 22  1  0  0  0  0
  7  8  1  0  0  0  0
  7  9  1  0  0  0  0
 26 27  1  0  0  0  0
 26 28  1  0  0  0  0
 26 29  1  0  0  0  0
 24 25  1  0  0  0  0
 24 26  1  0  0  0  0
M  END
$$$$
default_name
  -OEChem-02102213163D

 29 29  0     1  0  0  0  0  0999 V2000
   -3.6042   -3.5728    1.4576 H   0  0  0  0  0  0  0  0  0  0  0  0
   -3.5202   -2.6488    0.8866 C   0  0  0  0  0  0  0  0  0  0  0  0
   -4.2052   -1.9048    1.2896 H   0  0  0  0  0  0  0  0  0  0  0  0
   -3.7552   -2.8428   -0.1584 H   0  0  0  0  0  0  0  0  0  0  0  0
   -2.1052   -2.1358    0.9946 C   0  0  0  0  0  0  0  0  0  0  0  0
   -1.2852   -2.7288    1.6826 O   0  0  0  0  0  0  0  0  0  0  0  0
   -1.8202   -1.0288    0.3146 N   0  0  0  0  0  0  0  0  0  0  0  0
   -2.5542   -0.5788   -0.2104 H   0  0  0  0  0  0  0  0  0  0  0  0
   -0.5102   -0.3728    0.3086 C   0  0  1  0  0  0  0  0  0  0  0  0
    0.2354   -1.0844   -0.0490 H   0  0  0  0  0  0  0  0  0  0  0  0
   -0.5452    0.8158   -0.6698 C   0  0  0  0  0  0  0  0  0  0  0  0
    0.4775    1.1219   -0.8968 H   0  0  0  0  0  0  0  0  0  0  0  0
   -1.0143    0.4956   -1.6019 H   0  0  0  0  0  0  0  0  0  0  0  0
   -1.2970    2.0102   -0.1420 C   0  0  0  0  0  0  0  0  0  0  0  0
   -1.4208    2.3767    1.1810 N   0  0  0  0  0  0  0  0  0  0  0  0
   -1.0897    1.8526    1.9770 H   0  0  0  0  0  0  0  0  0  0  0  0
   -2.0661    3.5544    1.2272 C   0  0  0  0  0  0  0  0  0  0  0  0
   -2.3175    4.0954    2.1313 H   0  0  0  0  0  0  0  0  0  0  0  0
   -2.3558    3.9742   -0.0130 N   0  0  0  0  0  0  0  0  0  0  0  0
   -1.8759    2.9994   -0.8915 C   0  0  0  0  0  0  0  0  0  0  0  0
   -1.9200    3.0357   -1.9723 H   0  0  0  0  0  0  0  0  0  0  0  0
   -0.1073    0.0565    1.7296 C   0  0  0  0  0  0  0  0  0  0  0  0
    1.0285   -0.1699    2.1459 O   0  0  0  0  0  0  0  0  0  0  0  0
   -1.0395    0.6588    2.4785 N   0  0  0  0  0  0  0  0  0  0  0  0
   -1.9636    0.7597    2.0849 H   0  0  0  0  0  0  0  0  0  0  0  0
   -0.8222    1.1334    3.8425 C   0  0  0  0  0  0  0  0  0  0  0  0
   -0.0212    1.8761    3.8521 H   0  0  0  0  0  0  0  0  0  0  0  0
   -1.7349    1.5853    4.2320 H   0  0  0  0  0  0  0  0  0  0  0  0
   -0.5312    0.2997    4.4834 H   0  0  0  0  0  0  0  0  0  0  0  0
  5  6  2  0  0  0  0
  5  7  1  0  0  0  0
  2  3  1  0  0  0  0
  2  4  1  0  0  0  0
  2  5  1  0  0  0  0
  1  2  1  0  0  0  0
 22 23  2  0  0  0  0
 22 24  1  0  0  0  0
 20 21  1  0  0  0  0
 19 20  1  0  0  0  0
 17 18  1  0  0  0  0
 17 19  2  0  0  0  0
 15 16  1  0  0  0  0
 15 17  1  0  0  0  0
 14 15  1  0  0  0  0
 14 20  2  0  0  0  0
 11 12  1  0  0  0  0
 11 13  1  0  0  0  0
 11 14  1  0  0  0  0
  9 10  1  0  0  0  0
  9 11  1  0  0  0  0
  9 22  1  0  0  0  0
  7  8  1  0  0  0  0
  7  9  1  0  0  0  0
 26 27  1  0  0  0  0
 26 28  1  0  0  0  0
 26 29  1  0  0  0  0
 24 25  1  0  0  0  0
 24 26  1  0  0  0  0
M  END
$$$$
default_name
  -OEChem-02102213163D

 29 29  0     1  0  0  0  0  0999 V2000
   -3.6042   -3.5728    1.4576 H   0  0  0  0  0  0  0  0  0  0  0  0
   -3.5202   -2.6488    0.8866 C   0  0  0  0  0  0  0  0  0  0  0  0
   -4.2052   -1.9048    1.2896 H   0  0  0  0  0  0  0  0  0  0  0  0
   -3.7552   -2.8428   -0.1584 H   0  0  0  0  0  0  0  0  0  0  0  0
   -2.1052   -2.1358    0.9946 C   0  0  0  0  0  0  0  0  0  0  0  0
   -1.2852   -2.7288    1.6826 O   0  0  0  0  0  0  0  0  0  0  0  0
   -1.8202   -1.0288    0.3146 N   0  0  0  0  0  0  0  0  0  0  0  0
   -2.5542   -0.5788   -0.2104 H   0  0  0  0  0  0  0  0  0  0  0  0
   -0.5102   -0.3728    0.3086 C   0  0  1  0  0  0  0  0  0  0  0  0
    0.2354   -1.0844   -0.0490 H   0  0  0  0  0  0  0  0  0  0  0  0
   -0.5452    0.8158   -0.6698 C   0  0  0  0  0  0  0  0  0  0  0  0
    0.4775    1.1219   -0.8968 H   0  0  0  0  0  0  0  0  0  0  0  0
   -1.0143    0.4956   -1.6019 H   0  0  0  0  0  0  0  0  0  0  0  0
   -1.2970    2.0102   -0.1420 C   0  0  0  0  0  0  0  0  0  0  0  0
   -1.1923    2.5459    1.1237 N   0  0  0  0  0  0  0  0  0  0  0  0
   -0.6565    2.1643    1.8888 H   0  0  0  0  0  0  0  0  0  0  0  0
   -1.9344    3.6653    1.1638 C   0  0  0  0  0  0  0  0  0  0  0  0
   -2.0556    4.3053    2.0292 H   0  0  0  0  0  0  0  0  0  0  0  0
   -2.5076    3.8855   -0.0284 N   0  0  0  0  0  0  0  0  0  0  0  0
   -2.1134    2.8383   -0.8653 C   0  0  0  0  0  0  0  0  0  0  0  0
   -2.3755    2.7209   -1.9088 H   0  0  0  0  0  0  0  0  0  0  0  0
   -0.1073    0.0565    1.7296 C   0  0  0  0  0  0  0  0  0  0  0  0
    1.0285   -0.1699    2.1459 O   0  0  0  0  0  0  0  0  0  0  0  0
   -1.0395    0.6588    2.4785 N   0  0  0  0  0  0  0  0  0  0  0  0
   -1.9636    0.7597    2.0849 H   0  0  0  0  0  0  0  0  0  0  0  0
   -0.8222    1.1334    3.8425 C   0  0  0  0  0  0  0  0  0  0  0  0
   -0.0212    1.8761    3.8521 H   0  0  0  0  0  0  0  0  0  0  0  0
   -1.7349    1.5853    4.2320 H   0  0  0  0  0  0  0  0  0  0  0  0
   -0.5312    0.2997    4.4834 H   0  0  0  0  0  0  0  0  0  0  0  0
  5  6  2  0  0  0  0
  5  7  1  0  0  0  0
  2  3  1  0  0  0  0
  2  4  1  0  0  0  0
  2  5  1  0  0  0  0
  1  2  1  0  0  0  0
 22 23  2  0  0  0  0
 22 24  1  0  0  0  0
 20 21  1  0  0  0  0
 19 20  1  0  0  0  0
 17 18  1  0  0  0  0
 17 19  2  0  0  0  0
 15 16  1  0  0  0  0
 15 17  1  0  0  0  0
 14 15  1  0  0  0  0
 14 20  2  0  0  0  0
 11 12  1  0  0  0  0
 11 13  1  0  0  0  0
 11 14  1  0  0  0  0
  9 10  1  0  0  0  0
  9 11  1  0  0  0  0
  9 22  1  0  0  0  0
  7  8  1  0  0  0  0
  7  9  1  0  0  0  0
 26 27  1  0  0  0  0
 26 28  1  0  0  0  0
 26 29  1  0  0  0  0
 24 25  1  0  0  0  0
 24 26  1  0  0  0  0
M  END
$$$$
default_name
  -OEChem-02102213163D

 29 29  0     1  0  0  0  0  0999 V2000
   -3.6042   -3.5728    1.4576 H   0  0  0  0  0  0  0  0  0  0  0  0
   -3.5202   -2.6488    0.8866 C   0  0  0  0  0  0  0  0  0  0  0  0
   -4.2052   -1.9048    1.2896 H   0  0  0  0  0  0  0  0  0  0  0  0
   -3.7552   -2.8428   -0.1584 H   0  0  0  0  0  0  0  0  0  0  0  0
   -2.1052   -2.1358    0.9946 C   0  0  0  0  0  0  0  0  0  0  0  0
   -1.2852   -2.7288    1.6826 O   0  0  0  0  0  0  0  0  0  0  0  0
   -1.8202   -1.0288    0.3146 N   0  0  0  0  0  0  0  0  0  0  0  0
   -2.5542   -0.5788   -0.2104 H   0  0  0  0  0  0  0  0  0  0  0  0
   -0.5102   -0.3728    0.3086 C   0  0  1  0  0  0  0  0  0  0  0  0
    0.2354   -1.0844   -0.0490 H   0  0  0  0  0  0  0  0  0  0  0  0
   -0.5452    0.8158   -0.6698 C   0  0  0  0  0  0  0  0  0  0  0  0
    0.4775    1.1219   -0.8968 H   0  0  0  0  0  0  0  0  0  0  0  0
   -1.0143    0.4956   -1.6019 H   0  0  0  0  0  0  0  0  0  0  0  0
   -1.2970    2.0102   -0.1420 C   0  0  0  0  0  0  0  0  0  0  0  0
   -0.9986    2.7226    0.9996 N   0  0  0  0  0  0  0  0  0  0  0  0
   -0.2843    2.4933    1.6744 H   0  0  0  0  0  0  0  0  0  0  0  0
   -1.8304    3.7761    1.0613 C   0  0  0  0  0  0  0  0  0  0  0  0
   -1.8427    4.5187    1.8497 H   0  0  0  0  0  0  0  0  0  0  0  0
   -2.6492    3.7841   -0.0007 N   0  0  0  0  0  0  0  0  0  0  0  0
   -2.3228    2.6645   -0.7704 C   0  0  0  0  0  0  0  0  0  0  0  0
   -2.7738    2.3838   -1.7134 H   0  0  0  0  0  0  0  0  0  0  0  0
   -0.1073    0.0565    1.7296 C   0  0  0  0  0  0  0  0  0  0  0  0
    1.0285   -0.1699    2.1459 O   0  0  0  0  0  0  0  0  0  0  0  0
   -1.0395    0.6588    2.4785 N   0  0  0  0  0  0  0  0  0  0  0  0
   -1.9636    0.7597    2.0849 H   0  0  0  0  0  0  0  0  0  0  0  0
   -0.8222    1.1334    3.8425 C   0  0  0  0  0  0  0  0  0  0  0  0
   -0.0212    1.8761    3.8521 H   0  0  0  0  0  0  0  0  0  0  0  0
   -1.7349    1.5853    4.2320 H   0  0  0  0  0  0  0  0  0  0  0  0
   -0.5312    0.2997    4.4834 H   0  0  0  0  0  0  0  0  0  0  0  0
  5  6  2  0  0  0  0
  5  7  1  0  0  0  0
  2  3  1  0  0  0  0
  2  4  1  0  0  0  0
  2  5  1  0  0  0  0
  1  2  1  0  0  0  0
 22 23  2  0  0  0  0
 22 24  1  0  0  0  0
 20 21  1  0  0  0  0
 19 20  1  0  0  0  0
 17 18  1  0  0  0  0
 17 19  2  0  0  0  0
 15 16  1  0  0  0  0
 15 17  1  0  0  0  0
 14 15  1  0  0  0  0
 14 20  2  0  0  0  0
 11 12  1  0  0  0  0
 11 13  1  0  0  0  0
 11 14  1  0  0  0  0
  9 10  1  0  0  0  0
  9 11  1  0  0  0  0
  9 22  1  0  0  0  0
  7  8  1  0  0  0  0
  7  9  1  0  0  0  0
 26 27  1  0  0  0  0
 26 28  1  0  0  0  0
 26 29  1  0  0  0  0
 24 25  1  0  0  0  0
 24 26  1  0  0  0  0
M  END
$$$$
default_name
  -OEChem-02102213163D

 29 29  0     1  0  0  0  0  0999 V2000
   -3.6042   -3.5728    1.4576 H   0  0  0  0  0  0  0  0  0  0  0  0
   -3.5202   -2.6488    0.8866 C   0  0  0  0  0  0  0  0  0  0  0  0
   -4.2052   -1.9048    1.2896 H   0  0  0  0  0  0  0  0  0  0  0  0
   -3.7552   -2.8428   -0.1584 H   0  0  0  0  0  0  0  0  0  0  0  0
   -2.1052   -2.1358    0.9946 C   0  0  0  0  0  0  0  0  0  0  0  0
   -1.2852   -2.7288    1.6826 O   0  0  0  0  0  0  0  0  0  0  0  0
   -1.8202   -1.0288    0.3146 N   0  0  0  0  0  0  0  0  0  0  0  0
   -2.5542   -0.5788   -0.2104 H   0  0  0  0  0  0  0  0  0  0  0  0
   -0.5102   -0.3728    0.3086 C   0  0  1  0  0  0  0  0  0  0  0  0
    0.2354   -1.0844   -0.0490 H   0  0  0  0  0  0  0  0  0  0  0  0
   -0.5452    0.8158   -0.6698 C   0  0  0  0  0  0  0  0  0  0  0  0
    0.4775    1.1219   -0.8968 H   0  0  0  0  0  0  0  0  0  0  0  0
   -1.0143    0.4956   -1.6019 H   0  0  0  0  0  0  0  0  0  0  0  0
   -1.2970    2.0102   -0.1420 C   0  0  0  0  0  0  0  0  0  0  0  0
   -0.8530    2.8949    0.8172 N   0  0  0  0  0  0  0  0  0  0  0  0
    0.0013    2.8171    1.3485 H   0  0  0  0  0  0  0  0  0  0  0  0
   -1.7609    3.8794    0.9265 C   0  0  0  0  0  0  0  0  0  0  0  0
   -1.6932    4.7208    1.6052 H   0  0  0  0  0  0  0  0  0  0  0  0
   -2.7712    3.6769    0.0683 N   0  0  0  0  0  0  0  0  0  0  0  0
   -2.4899    2.4900   -0.6134 C   0  0  0  0  0  0  0  0  0  0  0  0
   -3.0880    2.0473   -1.3993 H   0  0  0  0  0  0  0  0  0  0  0  0
   -0.1073    0.0565    1.7296 C   0  0  0  0  0  0  0  0  0  0  0  0
    1.0285   -0.1699    2.1459 O   0  0  0  0  0  0  0  0  0  0  0  0
   -1.0395    0.6588    2.4785 N   0  0  0  0  0  0  0  0  0  0  0  0
   -1.9636    0.7597    2.0849 H   0  0  0  0  0  0  0  0  0  0  0  0
   -0.8222    1.1334    3.8425 C   0  0  0  0  0  0  0  0  0  0  0  0
   -0.0212    1.8761    3.8521 H   0  0  0  0  0  0  0  0  0  0  0  0
   -1.7349    1.5853    4.2320 H   0  0  0  0  0  0  0  0  0  0  0  0
   -0.5312    0.2997    4.4834 H   0  0  0  0  0  0  0  0  0  0  0  0
  5  6  2  0  0  0  0
  5  7  1  0  0  0  0
  2  3  1  0  0  0  0
  2  4  1  0  0  0  0
  2  5  1  0  0  0  0
  1  2  1  0  0  0  0
 22 23  2  0  0  0  0
 22 24  1  0  0  0  0
 20 21  1  0  0  0  0
 19 20  1  0  0  0  0
 17 18  1  0  0  0  0
 17 19  2  0  0  0  0
 15 16  1  0  0  0  0
 15 17  1  0  0  0  0
 14 15  1  0  0  0  0
 14 20  2  0  0  0  0
 11 12  1  0  0  0  0
 11 13  1  0  0  0  0
 11 14  1  0  0  0  0
  9 10  1  0  0  0  0
  9 11  1  0  0  0  0
  9 22  1  0  0  0  0
  7  8  1  0  0  0  0
  7  9  1  0  0  0  0
 26 27  1  0  0  0  0
 26 28  1  0  0  0  0
 26 29  1  0  0  0  0
 24 25  1  0  0  0  0
 24 26  1  0  0  0  0
M  END
$$$$
default_name
  -OEChem-02102213163D

 29 29  0     1  0  0  0  0  0999 V2000
   -3.6042   -3.5728    1.4576 H   0  0  0  0  0  0  0  0  0  0  0  0
   -3.5202   -2.6488    0.8866 C   0  0  0  0  0  0  0  0  0  0  0  0
   -4.2052   -1.9048    1.2896 H   0  0  0  0  0  0  0  0  0  0  0  0
   -3.7552   -2.8428   -0.1584 H   0  0  0  0  0  0  0  0  0  0  0  0
   -2.1052   -2.1358    0.9946 C   0  0  0  0  0  0  0  0  0  0  0  0
   -1.2852   -2.7288    1.6826 O   0  0  0  0  0  0  0  0  0  0  0  0
   -1.8202   -1.0288    0.3146 N   0  0  0  0  0  0  0  0  0  0  0  0
   -2.5542   -0.5788   -0.2104 H   0  0  0  0  0  0  0  0  0  0  0  0
   -0.5102   -0.3728    0.3086 C   0  0  1  0  0  0  0  0  0  0  0  0
    0.2354   -1.0844   -0.0490 H   0  0  0  0  0  0  0  0  0  0  0  0
   -0.5452    0.8158   -0.6698 C   0  0  0  0  0  0  0  0  0  0  0  0
    0.4775    1.1219   -0.8968 H   0  0  0  0  0  0  0  0  0  0  0  0
   -1.0143    0.4956   -1.6019 H   0  0  0  0  0  0  0  0  0  0  0  0
   -1.2970    2.0102   -0.1420 C   0  0  0  0  0  0  0  0  0  0  0  0
   -0.7654    3.0509    0.5889 N   0  0  0  0  0  0  0  0  0  0  0  0
    0.1809    3.1137    0.9333 H   0  0  0  0  0  0  0  0  0  0  0  0
   -1.7308    3.9680    0.7688 C   0  0  0  0  0  0  0  0  0  0  0  0
   -1.6173    4.8981    1.3122 H   0  0  0  0  0  0  0  0  0  0  0  0
   -2.8651    3.5711    0.1737 N   0  0  0  0  0  0  0  0  0  0  0  0
   -2.6032    2.3265   -0.4049 C   0  0  0  0  0  0  0  0  0  0  0  0
   -3.2965    1.7343   -0.9881 H   0  0  0  0  0  0  0  0  0  0  0  0
   -0.1073    0.0565    1.7296 C   0  0  0  0  0  0  0  0  0  0  0  0
    1.0285   -0.1699    2.1459 O   0  0  0  0  0  0  0  0  0  0  0  0
   -1.0395    0.6588    2.4785 N   0  0  0  0  0  0  0  0  0  0  0  0
   -1.9636    0.7597    2.0849 H   0  0  0  0  0  0  0  0  0  0  0  0
   -0.8222    1.1334    3.8425 C   0  0  0  0  0  0  0  0  0  0  0  0
   -0.0212    1.8761    3.8521 H   0  0  0  0  0  0  0  0  0  0  0  0
   -1.7349    1.5853    4.2320 H   0  0  0  0  0  0  0  0  0  0  0  0
   -0.5312    0.2997    4.4834 H   0  0  0  0  0  0  0  0  0  0  0  0
  5  6  2  0  0  0  0
  5  7  1  0  0  0  0
  2  3  1  0  0  0  0
  2  4  1  0  0  0  0
  2  5  1  0  0  0  0
  1  2  1  0  0  0  0
 22 23  2  0  0  0  0
 22 24  1  0  0  0  0
 20 21  1  0  0  0  0
 19 20  1  0  0  0  0
 17 18  1  0  0  0  0
 17 19  2  0  0  0  0
 15 16  1  0  0  0  0
 15 17  1  0  0  0  0
 14 15  1  0  0  0  0
 14 20  2  0  0  0  0
 11 12  1  0  0  0  0
 11 13  1  0  0  0  0
 11 14  1  0  0  0  0
  9 10  1  0  0  0  0
  9 11  1  0  0  0  0
  9 22  1  0  0  0  0
  7  8  1  0  0  0  0
  7  9  1  0  0  0  0
 26 27  1  0  0  0  0
 26 28  1  0  0  0  0
 26 29  1  0  0  0  0
 24 25  1  0  0  0  0
 24 26  1  0  0  0  0
M  END
$$$$
default_name
  -OEChem-02102213163D

 29 29  0     1  0  0  0  0  0999 V2000
   -3.6042   -3.5728    1.4576 H   0  0  0  0  0  0  0  0  0  0  0  0
   -3.5202   -2.6488    0.8866 C   0  0  0  0  0  0  0  0  0  0  0  0
   -4.2052   -1.9048    1.2896 H   0  0  0  0  0  0  0  0  0  0  0  0
   -3.7552   -2.8428   -0.1584 H   0  0  0  0  0  0  0  0  0  0  0  0
   -2.1052   -2.1358    0.9946 C   0  0  0  0  0  0  0  0  0  0  0  0
   -1.2852   -2.7288    1.6826 O   0  0  0  0  0  0  0  0  0  0  0  0
   -1.8202   -1.0288    0.3146 N   0  0  0  0  0  0  0  0  0  0  0  0
   -2.5542   -0.5788   -0.2104 H   0  0  0  0  0  0  0  0  0  0  0  0
   -0.5102   -0.3728    0.3086 C   0  0  1  0  0  0  0  0  0  0  0  0
    0.2354   -1.0844   -0.0490 H   0  0  0  0  0  0  0  0  0  0  0  0
   -0.5452    0.8158   -0.6698 C   0  0  0  0  0  0  0  0  0  0  0  0
    0.4775    1.1219   -0.8968 H   0  0  0  0  0  0  0  0  0  0  0  0
   -1.0143    0.4956   -1.6019 H   0  0  0  0  0  0  0  0  0  0  0  0
   -1.2970    2.0102   -0.1420 C   0  0  0  0  0  0  0  0  0  0  0  0
   -0.7418    3.1801    0.3303 N   0  0  0  0  0  0  0  0  0  0  0  0
    0.2424    3.3628    0.4571 H   0  0  0  0  0  0  0  0  0  0  0  0
   -1.7422    4.0360    0.5989 C   0  0  0  0  0  0  0  0  0  0  0  0
   -1.6201    5.0384    0.9907 H   0  0  0  0  0  0  0  0  0  0  0  0
   -2.9247    3.4741    0.3085 N   0  0  0  0  0  0  0  0  0  0  0  0
   -2.6551    2.1853   -0.1591 C   0  0  0  0  0  0  0  0  0  0  0  0
   -3.3851    1.4662   -0.5077 H   0  0  0  0  0  0  0  0  0  0  0  0
   -0.1073    0.0565    1.7296 C   0  0  0  0  0  0  0  0  0  0  0  0
    1.0285   -0.1699    2.1459 O   0  0  0  0  0  0  0  0  0  0  0  0
   -1.0395    0.6588    2.4785 N   0  0  0  0  0  0  0  0  0  0  0  0
   -1.9636    0.7597    2.0849 H   0  0  0  0  0  0  0  0  0  0  0  0
   -0.8222    1.1334    3.8425 C   0  0  0  0  0  0  0  0  0  0  0  0
   -0.0212    1.8761    3.8521 H   0  0  0  0  0  0  0  0  0  0  0  0
   -1.7349    1.5853    4.2320 H   0  0  0  0  0  0  0  0  0  0  0  0
   -0.5312    0.2997    4.4834 H   0  0  0  0  0  0  0  0  0  0  0  0
  5  6  2  0  0  0  0
  5  7  1  0  0  0  0
  2  3  1  0  0  0  0
  2  4  1  0  0  0  0
  2  5  1  0  0  0  0
  1  2  1  0  0  0  0
 22 23  2  0  0  0  0
 22 24  1  0  0  0  0
 20 21  1  0  0  0  0
 19 20  1  0  0  0  0
 17 18  1  0  0  0  0
 17 19  2  0  0  0  0
 15 16  1  0  0  0  0
 15 17  1  0  0  0  0
 14 15  1  0  0  0  0
 14 20  2  0  0  0  0
 11 12  1  0  0  0  0
 11 13  1  0  0  0  0
 11 14  1  0  0  0  0
  9 10  1  0  0  0  0
  9 11  1  0  0  0  0
  9 22  1  0  0  0  0
  7  8  1  0  0  0  0
  7  9  1  0  0  0  0
 26 27  1  0  0  0  0
 26 28  1  0  0  0  0
 26 29  1  0  0  0  0
 24 25  1  0  0  0  0
 24 26  1  0  0  0  0
M  END
$$$$
default_name
  -OEChem-02102213163D

 29 29  0     1  0  0  0  0  0999 V2000
   -3.6042   -3.5728    1.4576 H   0  0  0  0  0  0  0  0  0  0  0  0
   -3.5202   -2.6488    0.8866 C   0  0  0  0  0  0  0  0  0  0  0  0
   -4.2052   -1.9048    1.2896 H   0  0  0  0  0  0  0  0  0  0  0  0
   -3.7552   -2.8428   -0.1584 H   0  0  0  0  0  0  0  0  0  0  0  0
   -2.1052   -2.1358    0.9946 C   0  0  0  0  0  0  0  0  0  0  0  0
   -1.2852   -2.7288    1.6826 O   0  0  0  0  0  0  0  0  0  0  0  0
   -1.8202   -1.0288    0.3146 N   0  0  0  0  0  0  0  0  0  0  0  0
   -2.5542   -0.5788   -0.2104 H   0  0  0  0  0  0  0  0  0  0  0  0
   -0.5102   -0.3728    0.3086 C   0  0  1  0  0  0  0  0  0  0  0  0
    0.2354   -1.0844   -0.0490 H   0  0  0  0  0  0  0  0  0  0  0  0
   -0.5452    0.8158   -0.6698 C   0  0  0  0  0  0  0  0  0  0  0  0
    0.4775    1.1219   -0.8968 H   0  0  0  0  0  0  0  0  0  0  0  0
   -1.0143    0.4956   -1.6019 H   0  0  0  0  0  0  0  0  0  0  0  0
   -1.2970    2.0102   -0.1420 C   0  0  0  0  0  0  0  0  0  0  0  0
   -0.7837    3.2736    0.0590 N   0  0  0  0  0  0  0  0  0  0  0  0
    0.1815    3.5475   -0.0477 H   0  0  0  0  0  0  0  0  0  0  0  0
   -1.7941    4.0787    0.4282 C   0  0  0  0  0  0  0  0  0  0  0  0
   -1.7016    5.1321    0.6626 H   0  0  0  0  0  0  0  0  0  0  0  0
   -2.9457    3.3924    0.4635 N   0  0  0  0  0  0  0  0  0  0  0  0
   -2.6420    2.0759    0.1071 C   0  0  0  0  0  0  0  0  0  0  0  0
   -3.3479    1.2613    0.0092 H   0  0  0  0  0  0  0  0  0  0  0  0
   -0.1073    0.0565    1.7296 C   0  0  0  0  0  0  0  0  0  0  0  0
    1.0285   -0.1699    2.1459 O   0  0  0  0  0  0  0  0  0  0  0  0
   -1.0395    0.6588    2.4785 N   0  0  0  0  0  0  0  0  0  0  0  0
   -1.9636    0.7597    2.0849 H   0  0  0  0  0  0  0  0  0  0  0  0
   -0.8222    1.1334    3.8425 C   0  0  0  0  0  0  0  0  0  0  0  0
   -0.0212    1.8761    3.8521 H   0  0  0  0  0  0  0  0  0  0  0  0
   -1.7349    1.5853    4.2320 H   0  0  0  0  0  0  0  0  0  0  0  0
   -0.5312    0.2997    4.4834 H   0  0  0  0  0  0  0  0  0  0  0  0
  5  6  2  0  0  0  0
  5  7  1  0  0  0  0
  2  3  1  0  0  0  0
  2  4  1  0  0  0  0
  2  5  1  0  0  0  0
  1  2  1  0  0  0  0
 22 23  2  0  0  0  0
 22 24  1  0  0  0  0
 20 21  1  0  0  0  0
 19 20  1  0  0  0  0
 17 18  1  0  0  0  0
 17 19  2  0  0  0  0
 15 16  1  0  0  0  0
 15 17  1  0  0  0  0
 14 15  1  0  0  0  0
 14 20  2  0  0  0  0
 11 12  1  0  0  0  0
 11 13  1  0  0  0  0
 11 14  1  0  0  0  0
  9 10  1  0  0  0  0
  9 11  1  0  0  0  0
  9 22  1  0  0  0  0
  7  8  1  0  0  0  0
  7  9  1  0  0  0  0
 26 27  1  0  0  0  0
 26 28  1  0  0  0  0
 26 29  1  0  0  0  0
 24 25  1  0  0  0  0
 24 26  1  0  0  0  0
M  END
$$$$
default_name
  -OEChem-02102213163D

 29 29  0     1  0  0  0  0  0999 V2000
   -3.6042   -3.5728    1.4576 H   0  0  0  0  0  0  0  0  0  0  0  0
   -3.5202   -2.6488    0.8866 C   0  0  0  0  0  0  0  0  0  0  0  0
   -4.2052   -1.9048    1.2896 H   0  0  0  0  0  0  0  0  0  0  0  0
   -3.7552   -2.8428   -0.1584 H   0  0  0  0  0  0  0  0  0  0  0  0
   -2.1052   -2.1358    0.9946 C   0  0  0  0  0  0  0  0  0  0  0  0
   -1.2852   -2.7288    1.6826 O   0  0  0  0  0  0  0  0  0  0  0  0
   -1.8202   -1.0288    0.3146 N   0  0  0  0  0  0  0  0  0  0  0  0
   -2.5542   -0.5788   -0.2104 H   0  0  0  0  0  0  0  0  0  0  0  0
   -0.5102   -0.3728    0.3086 C   0  0  1  0  0  0  0  0  0  0  0  0
    0.2354   -1.0844   -0.0490 H   0  0  0  0  0  0  0  0  0  0  0  0
   -0.5452    0.8158   -0.6698 C   0  0  0  0  0  0  0  0  0  0  0  0
    0.4775    1.1219   -0.8968 H   0  0  0  0  0  0  0  0  0  0  0  0
   -1.0143    0.4956   -1.6019 H   0  0  0  0  0  0  0  0  0  0  0  0
   -1.2970    2.0102   -0.1420 C   0  0  0  0  0  0  0  0  0  0  0  0
   -0.8884    3.3251   -0.2066 N   0  0  0  0  0  0  0  0  0  0  0  0
    0.0024    3.6552   -0.5467 H   0  0  0  0  0  0  0  0  0  0  0  0
   -1.8832    4.0931    0.2686 C   0  0  0  0  0  0  0  0  0  0  0  0
   -1.8560    5.1729    0.3503 H   0  0  0  0  0  0  0  0  0  0  0  0
   -2.9268    3.3316    0.6280 N   0  0  0  0  0  0  0  0  0  0  0  0
   -2.5648    2.0058    0.3758 C   0  0  0  0  0  0  0  0  0  0  0  0
   -3.1873    1.1334    0.5273 H   0  0  0  0  0  0  0  0  0  0  0  0
   -0.1073    0.0565    1.7296 C   0  0  0  0  0  0  0  0  0  0  0  0
    1.0285   -0.1699    2.1459 O   0  0  0  0  0  0  0  0  0  0  0  0
   -1.0395    0.6588    2.4785 N   0  0  0  0  0  0  0  0  0  0  0  0
   -1.9636    0.7597    2.0849 H   0  0  0  0  0  0  0  0  0  0  0  0
   -0.8222    1.1334    3.8425 C   0  0  0  0  0  0  0  0  0  0  0  0
   -0.0212    1.8761    3.8521 H   0  0  0  0  0  0  0  0  0  0  0  0
   -1.7349    1.5853    4.2320 H   0  0  0  0  0  0  0  0  0  0  0  0
   -0.5312    0.2997    4.4834 H   0  0  0  0  0  0  0  0  0  0  0  0
  5  6  2  0  0  0  0
  5  7  1  0  0  0  0
  2  3  1  0  0  0  0
  2  4  1  0  0  0  0
  2  5  1  0  0  0  0
  1  2  1  0  0  0  0
 22 23  2  0  0  0  0
 22 24  1  0  0  0  0
 20 21  1  0  0  0  0
 19 20  1  0  0  0  0
 17 18  1  0  0  0  0
 17 19  2  0  0  0  0
 15 16  1  0  0  0  0
 15 17  1  0  0  0  0
 14 15  1  0  0  0  0
 14 20  2  0  0  0  0
 11 12  1  0  0  0  0
 11 13  1  0  0  0  0
 11 14  1  0  0  0  0
  9 10  1  0  0  0  0
  9 11  1  0  0  0  0
  9 22  1  0  0  0  0
  7  8  1  0  0  0  0
  7  9  1  0  0  0  0
 26 27  1  0  0  0  0
 26 28  1  0  0  0  0
 26 29  1  0  0  0  0
 24 25  1  0  0  0  0
 24 26  1  0  0  0  0
M  END
$$$$
default_name
  -OEChem-02102213163D

 29 29  0     1  0  0  0  0  0999 V2000
   -3.6042   -3.5728    1.4576 H   0  0  0  0  0  0  0  0  0  0  0  0
   -3.5202   -2.6488    0.8866 C   0  0  0  0  0  0  0  0  0  0  0  0
   -4.2052   -1.9048    1.2896 H   0  0  0  0  0  0  0  0  0  0  0  0
   -3.7552   -2.8428   -0.1584 H   0  0  0  0  0  0  0  0  0  0  0  0
   -2.1052   -2.1358    0.9946 C   0  0  0  0  0  0  0  0  0  0  0  0
   -1.2852   -2.7288    1.6826 O   0  0  0  0  0  0  0  0  0  0  0  0
   -1.8202   -1.0288    0.3146 N   0  0  0  0  0  0  0  0  0  0  0  0
   -2.5542   -0.5788   -0.2104 H   0  0  0  0  0  0  0  0  0  0  0  0
   -0.5102   -0.3728    0.3086 C   0  0  1  0  0  0  0  0  0  0  0  0
    0.2354   -1.0844   -0.0490 H   0  0  0  0  0  0  0  0  0  0  0  0
   -0.5452    0.8158   -0.6698 C   0  0  0  0  0  0  0  0  0  0  0  0
    0.4775    1.1219   -0.8968 H   0  0  0  0  0  0  0  0  0  0  0  0
   -1.0143    0.4956   -1.6019 H   0  0  0  0  0  0  0  0  0  0  0  0
   -1.2970    2.0102   -0.1420 C   0  0  0  0  0  0  0  0  0  0  0  0
   -1.0487    3.3310   -0.4483 N   0  0  0  0  0  0  0  0  0  0  0  0
   -0.2828    3.6786   -1.0058 H   0  0  0  0  0  0  0  0  0  0  0  0
   -2.0033    4.0784    0.1308 C   0  0  0  0  0  0  0  0  0  0  0  0
   -2.0730    5.1579    0.0751 H   0  0  0  0  0  0  0  0  0  0  0  0
   -2.8693    3.2958    0.7909 N   0  0  0  0  0  0  0  0  0  0  0  0
   -2.4287    1.9797    0.6284 C   0  0  0  0  0  0  0  0  0  0  0  0
   -2.9143    1.0914    1.0112 H   0  0  0  0  0  0  0  0  0  0  0  0
   -0.1073    0.0565    1.7296 C   0  0  0  0  0  0  0  0  0  0  0  0
    1.0285   -0.1699    2.1459 O   0  0  0  0  0  0  0  0  0  0  0  0
   -1.0395    0.6588    2.4785 N   0  0  0  0  0  0  0  0  0  0  0  0
   -1.9636    0.7597    2.0849 H   0  0  0  0  0  0  0  0  0  0  0  0
   -0.8222    1.1334    3.8425 C   0  0  0  0  0  0  0  0  0  0  0  0
   -0.0212    1.8761    3.8521 H   0  0  0  0  0  0  0  0  0  0  0  0
   -1.7349    1.5853    4.2320 H   0  0  0  0  0  0  0  0  0  0  0  0
   -0.5312    0.2997    4.4834 H   0  0  0  0  0  0  0  0  0  0  0  0
  5  6  2  0  0  0  0
  5  7  1  0  0  0  0
  2  3  1  0  0  0  0
  2  4  1  0  0  0  0
  2  5  1  0  0  0  0
  1  2  1  0  0  0  0
 22 23  2  0  0  0  0
 22 24  1  0  0  0  0
 20 21  1  0  0  0  0
 19 20  1  0  0  0  0
 17 18  1  0  0  0  0
 17 19  2  0  0  0  0
 15 16  1  0  0  0  0
 15 17  1  0  0  0  0
 14 15  1  0  0  0  0
 14 20  2  0  0  0  0
 11 12  1  0  0  0  0
 11 13  1  0  0  0  0
 11 14  1  0  0  0  0
  9 10  1  0  0  0  0
  9 11  1  0  0  0  0
  9 22  1  0  0  0  0
  7  8  1  0  0  0  0
  7  9  1  0  0  0  0
 26 27  1  0  0  0  0
 26 28  1  0  0  0  0
 26 29  1  0  0  0  0
 24 25  1  0  0  0  0
 24 26  1  0  0  0  0
M  END
$$$$
default_name
  -OEChem-02102213163D

 29 29  0     1  0  0  0  0  0999 V2000
   -3.6042   -3.5728    1.4576 H   0  0  0  0  0  0  0  0  0  0  0  0
   -3.5202   -2.6488    0.8866 C   0  0  0  0  0  0  0  0  0  0  0  0
   -4.2052   -1.9048    1.2896 H   0  0  0  0  0  0  0  0  0  0  0  0
   -3.7552   -2.8428   -0.1584 H   0  0  0  0  0  0  0  0  0  0  0  0
   -2.1052   -2.1358    0.9946 C   0  0  0  0  0  0  0  0  0  0  0  0
   -1.2852   -2.7288    1.6826 O   0  0  0  0  0  0  0  0  0  0  0  0
   -1.8202   -1.0288    0.3146 N   0  0  0  0  0  0  0  0  0  0  0  0
   -2.5542   -0.5788   -0.2104 H   0  0  0  0  0  0  0  0  0  0  0  0
   -0.5102   -0.3728    0.3086 C   0  0  1  0  0  0  0  0  0  0  0  0
    0.2354   -1.0844   -0.0490 H   0  0  0  0  0  0  0  0  0  0  0  0
   -0.5452    0.8158   -0.6698 C   0  0  0  0  0  0  0  0  0  0  0  0
    0.4775    1.1219   -0.8968 H   0  0  0  0  0  0  0  0  0  0  0  0
   -1.0143    0.4956   -1.6019 H   0  0  0  0  0  0  0  0  0  0  0  0
   -1.2970    2.0102   -0.1420 C   0  0  0  0  0  0  0  0  0  0  0  0
   -1.2536    3.2910   -0.6497 N   0  0  0  0  0  0  0  0  0  0  0  0
   -0.6546    3.6160   -1.3938 H   0  0  0  0  0  0  0  0  0  0  0  0
   -2.1463    4.0355    0.0242 C   0  0  0  0  0  0  0  0  0  0  0  0
   -2.3377    5.0883   -0.1443 H   0  0  0  0  0  0  0  0  0  0  0  0
   -2.7771    3.2874    0.9411 N   0  0  0  0  0  0  0  0  0  0  0  0
   -2.2431    1.9996    0.8480 C   0  0  0  0  0  0  0  0  0  0  0  0
   -2.5475    1.1381    1.4282 H   0  0  0  0  0  0  0  0  0  0  0  0
   -0.1073    0.0565    1.7296 C   0  0  0  0  0  0  0  0  0  0  0  0
    1.0285   -0.1699    2.1459 O   0  0  0  0  0  0  0  0  0  0  0  0
   -1.0395    0.6588    2.4785 N   0  0  0  0  0  0  0  0  0  0  0  0
   -1.9636    0.7597    2.0849 H   0  0  0  0  0  0  0  0  0  0  0  0
   -0.8222    1.1334    3.8425 C   0  0  0  0  0  0  0  0  0  0  0  0
   -0.0212    1.8761    3.8521 H   0  0  0  0  0  0  0  0  0  0  0  0
   -1.7349    1.5853    4.2320 H   0  0  0  0  0  0  0  0  0  0  0  0
   -0.5312    0.2997    4.4834 H   0  0  0  0  0  0  0  0  0  0  0  0
  5  6  2  0  0  0  0
  5  7  1  0  0  0  0
  2  3  1  0  0  0  0
  2  4  1  0  0  0  0
  2  5  1  0  0  0  0
  1  2  1  0  0  0  0
 22 23  2  0  0  0  0
 22 24  1  0  0  0  0
 20 21  1  0  0  0  0
 19 20  1  0  0  0  0
 17 18  1  0  0  0  0
 17 19  2  0  0  0  0
 15 16  1  0  0  0  0
 15 17  1  0  0  0  0
 14 15  1  0  0  0  0
 14 20  2  0  0  0  0
 11 12  1  0  0  0  0
 11 13  1  0  0  0  0
 11 14  1  0  0  0  0
  9 10  1  0  0  0  0
  9 11  1  0  0  0  0
  9 22  1  0  0  0  0
  7  8  1  0  0  0  0
  7  9  1  0  0  0  0
 26 27  1  0  0  0  0
 26 28  1  0  0  0  0
 26 29  1  0  0  0  0
 24 25  1  0  0  0  0
 24 26  1  0  0  0  0
M  END
$$$$
default_name
  -OEChem-02102213163D

 29 29  0     1  0  0  0  0  0999 V2000
   -3.6042   -3.5728    1.4576 H   0  0  0  0  0  0  0  0  0  0  0  0
   -3.5202   -2.6488    0.8866 C   0  0  0  0  0  0  0  0  0  0  0  0
   -4.2052   -1.9048    1.2896 H   0  0  0  0  0  0  0  0  0  0  0  0
   -3.7552   -2.8428   -0.1584 H   0  0  0  0  0  0  0  0  0  0  0  0
   -2.1052   -2.1358    0.9946 C   0  0  0  0  0  0  0  0  0  0  0  0
   -1.2852   -2.7288    1.6826 O   0  0  0  0  0  0  0  0  0  0  0  0
   -1.8202   -1.0288    0.3146 N   0  0  0  0  0  0  0  0  0  0  0  0
   -2.5542   -0.5788   -0.2104 H   0  0  0  0  0  0  0  0  0  0  0  0
   -0.5102   -0.3728    0.3086 C   0  0  1  0  0  0  0  0  0  0  0  0
    0.2354   -1.0844   -0.0490 H   0  0  0  0  0  0  0  0  0  0  0  0
   -0.5452    0.8158   -0.6698 C   0  0  0  0  0  0  0  0  0  0  0  0
    0.4474    0.9514   -1.1029 H   0  0  0  0  0  0  0  0  0  0  0  0
   -1.2375    0.5875   -1.4823 H   0  0  0  0  0  0  0  0  0  0  0  0
   -0.9700    2.1121   -0.0299 C   0  0  0  0  0  0  0  0  0  0  0  0
   -1.0906    3.3320   -0.6603 N   0  0  0  0  0  0  0  0  0  0  0  0
   -0.8371    3.5357   -1.6154 H   0  0  0  0  0  0  0  0  0  0  0  0
   -1.6008    4.2072    0.2224 C   0  0  0  0  0  0  0  0  0  0  0  0
   -1.8050    5.2518    0.0215 H   0  0  0  0  0  0  0  0  0  0  0  0
   -1.8283    3.6025    1.3975 N   0  0  0  0  0  0  0  0  0  0  0  0
   -1.4275    2.2719    1.2509 C   0  0  0  0  0  0  0  0  0  0  0  0
   -1.4995    1.4963    2.0024 H   0  0  0  0  0  0  0  0  0  0  0  0
   -0.1073    0.0565    1.7296 C   0  0  0  0  0  0  0  0  0  0  0  0
    1.0285   -0.1699    2.1459 O   0  0  0  0  0  0  0  0  0  0  0  0
   -1.0395    0.6588    2.4785 N   0  0  0  0  0  0  0  0  0  0  0  0
   -1.9636    0.7597    2.0849 H   0  0  0  0  0  0  0  0  0  0  0  0
   -0.8222    1.1334    3.8425 C   0  0  0  0  0  0  0  0  0  0  0  0
   -0.0212    1.8761    3.8521 H   0  0  0  0  0  0  0  0  0  0  0  0
   -1.7349    1.5853    4.2320 H   0  0  0  0  0  0  0  0  0  0  0  0
   -0.5312    0.2997    4.4834 H   0  0  0  0  0  0  0  0  0  0  0  0
  5  6  2  0  0  0  0
  5  7  1  0  0  0  0
  2  3  1  0  0  0  0
  2  4  1  0  0  0  0
  2  5  1  0  0  0  0
  1  2  1  0  0  0  0
 22 23  2  0  0  0  0
 22 24  1  0  0  0  0
 20 21  1  0  0  0  0
 19 20  1  0  0  0  0
 17 18  1  0  0  0  0
 17 19  2  0  0  0  0
 15 16  1  0  0  0  0
 15 17  1  0  0  0  0
 14 15  1  0  0  0  0
 14 20  2  0  0  0  0
 11 12  1  0  0  0  0
 11 13  1  0  0  0  0
 11 14  1  0  0  0  0
  9 10  1  0  0  0  0
  9 11  1  0  0  0  0
  9 22  1  0  0  0  0
  7  8  1  0  0  0  0
  7  9  1  0  0  0  0
 26 27  1  0  0  0  0
 26 28  1  0  0  0  0
 26 29  1  0  0  0  0
 24 25  1  0  0  0  0
 24 26  1  0  0  0  0
M  END
$$$$
default_name
  -OEChem-02102213163D

 29 29  0     1  0  0  0  0  0999 V2000
   -3.6042   -3.5728    1.4576 H   0  0  0  0  0  0  0  0  0  0  0  0
   -3.5202   -2.6488    0.8866 C   0  0  0  0  0  0  0  0  0  0  0  0
   -4.2052   -1.9048    1.2896 H   0  0  0  0  0  0  0  0  0  0  0  0
   -3.7552   -2.8428   -0.1584 H   0  0  0  0  0  0  0  0  0  0  0  0
   -2.1052   -2.1358    0.9946 C   0  0  0  0  0  0  0  0  0  0  0  0
   -1.2852   -2.7288    1.6826 O   0  0  0  0  0  0  0  0  0  0  0  0
   -1.8202   -1.0288    0.3146 N   0  0  0  0  0  0  0  0  0  0  0  0
   -2.5542   -0.5788   -0.2104 H   0  0  0  0  0  0  0  0  0  0  0  0
   -0.5102   -0.3728    0.3086 C   0  0  1  0  0  0  0  0  0  0  0  0
    0.2354   -1.0844   -0.0490 H   0  0  0  0  0  0  0  0  0  0  0  0
   -0.5452    0.8158   -0.6698 C   0  0  0  0  0  0  0  0  0  0  0  0
    0.4474    0.9514   -1.1029 H   0  0  0  0  0  0  0  0  0  0  0  0
   -1.2375    0.5875   -1.4823 H   0  0  0  0  0  0  0  0  0  0  0  0
   -0.9700    2.1121   -0.0299 C   0  0  0  0  0  0  0  0  0  0  0  0
   -1.3687    3.2551   -0.6892 N   0  0  0  0  0  0  0  0  0  0  0  0
   -1.3561    3.4012   -1.6875 H   0  0  0  0  0  0  0  0  0  0  0  0
   -1.7734    4.1461    0.2316 C   0  0  0  0  0  0  0  0  0  0  0  0
   -2.1386    5.1435    0.0194 H   0  0  0  0  0  0  0  0  0  0  0  0
   -1.6655    3.6240    1.4620 N   0  0  0  0  0  0  0  0  0  0  0  0
   -1.1521    2.3334    1.3092 C   0  0  0  0  0  0  0  0  0  0  0  0
   -0.9659    1.6216    2.1030 H   0  0  0  0  0  0  0  0  0  0  0  0
   -0.1073    0.0565    1.7296 C   0  0  0  0  0  0  0  0  0  0  0  0
    1.0285   -0.1699    2.1459 O   0  0  0  0  0  0  0  0  0  0  0  0
   -1.0395    0.6588    2.4785 N   0  0  0  0  0  0  0  0  0  0  0  0
   -1.9636    0.7597    2.0849 H   0  0  0  0  0  0  0  0  0  0  0  0
   -0.8222    1.1334    3.8425 C   0  0  0  0  0  0  0  0  0  0  0  0
   -0.0212    1.8761    3.8521 H   0  0  0  0  0  0  0  0  0  0  0  0
   -1.7349    1.5853    4.2320 H   0  0  0  0  0  0  0  0  0  0  0  0
   -0.5312    0.2997    4.4834 H   0  0  0  0  0  0  0  0  0  0  0  0
  5  6  2  0  0  0  0
  5  7  1  0  0  0  0
  2  3  1  0  0  0  0
  2  4  1  0  0  0  0
  2  5  1  0  0  0  0
  1  2  1  0  0  0  0
 22 23  2  0  0  0  0
 22 24  1  0  0  0  0
 20 21  1  0  0  0  0
 19 20  1  0  0  0  0
 17 18  1  0  0  0  0
 17 19  2  0  0  0  0
 15 16  1  0  0  0  0
 15 17  1  0  0  0  0
 14 15  1  0  0  0  0
 14 20  2  0  0  0  0
 11 12  1  0  0  0  0
 11 13  1  0  0  0  0
 11 14  1  0  0  0  0
  9 10  1  0  0  0  0
  9 11  1  0  0  0  0
  9 22  1  0  0  0  0
  7  8  1  0  0  0  0
  7  9  1  0  0  0  0
 26 27  1  0  0  0  0
 26 28  1  0  0  0  0
 26 29  1  0  0  0  0
 24 25  1  0  0  0  0
 24 26  1  0  0  0  0
M  END
$$$$
default_name
  -OEChem-02102213163D

 29 29  0     1  0  0  0  0  0999 V2000
   -3.6042   -3.5728    1.4576 H   0  0  0  0  0  0  0  0  0  0  0  0
   -3.5202   -2.6488    0.8866 C   0  0  0  0  0  0  0  0  0  0  0  0
   -4.2052   -1.9048    1.2896 H   0  0  0  0  0  0  0  0  0  0  0  0
   -3.7552   -2.8428   -0.1584 H   0  0  0  0  0  0  0  0  0  0  0  0
   -2.1052   -2.1358    0.9946 C   0  0  0  0  0  0  0  0  0  0  0  0
   -1.2852   -2.7288    1.6826 O   0  0  0  0  0  0  0  0  0  0  0  0
   -1.8202   -1.0288    0.3146 N   0  0  0  0  0  0  0  0  0  0  0  0
   -2.5542   -0.5788   -0.2104 H   0  0  0  0  0  0  0  0  0  0  0  0
   -0.5102   -0.3728    0.3086 C   0  0  1  0  0  0  0  0  0  0  0  0
    0.2354   -1.0844   -0.0490 H   0  0  0  0  0  0  0  0  0  0  0  0
   -0.5452    0.8158   -0.6698 C   0  0  0  0  0  0  0  0  0  0  0  0
    0.4474    0.9514   -1.1029 H   0  0  0  0  0  0  0  0  0  0  0  0
   -1.2375    0.5875   -1.4823 H   0  0  0  0  0  0  0  0  0  0  0  0
   -0.9700    2.1121   -0.0299 C   0  0  0  0  0  0  0  0  0  0  0  0
   -1.6354    3.1481   -0.6495 N   0  0  0  0  0  0  0  0  0  0  0  0
   -1.8586    3.2089   -1.6317 H   0  0  0  0  0  0  0  0  0  0  0  0
   -1.9315    4.0687    0.2833 C   0  0  0  0  0  0  0  0  0  0  0  0
   -2.4495    5.0021    0.0995 H   0  0  0  0  0  0  0  0  0  0  0  0
   -1.4962    3.6673    1.4866 N   0  0  0  0  0  0  0  0  0  0  0  0
   -0.8798    2.4273    1.2997 C   0  0  0  0  0  0  0  0  0  0  0  0
   -0.4419    1.8085    2.0722 H   0  0  0  0  0  0  0  0  0  0  0  0
   -0.1073    0.0565    1.7296 C   0  0  0  0  0  0  0  0  0  0  0  0
    1.0285   -0.1699    2.1459 O   0  0  0  0  0  0  0  0  0  0  0  0
   -1.0395    0.6588    2.4785 N   0  0  0  0  0  0  0  0  0  0  0  0
   -1.9636    0.7597    2.0849 H   0  0  0  0  0  0  0  0  0  0  0  0
   -0.8222    1.1334    3.8425 C   0  0  0  0  0  0  0  0  0  0  0  0
   -0.0212    1.8761    3.8521 H   0  0  0  0  0  0  0  0  0  0  0  0
   -1.7349    1.5853    4.2320 H   0  0  0  0  0  0  0  0  0  0  0  0
   -0.5312    0.2997    4.4834 H   0  0  0  0  0  0  0  0  0  0  0  0
  5  6  2  0  0  0  0
  5  7  1  0  0  0  0
  2  3  1  0  0  0  0
  2  4  1  0  0  0  0
  2  5  1  0  0  0  0
  1  2  1  0  0  0  0
 22 23  2  0  0  0  0
 22 24  1  0  0  0  0
 20 21  1  0  0  0  0
 19 20  1  0  0  0  0
 17 18  1  0  0  0  0
 17 19  2  0  0  0  0
 15 16  1  0  0  0  0
 15 17  1  0  0  0  0
 14 15  1  0  0  0  0
 14 20  2  0  0  0  0
 11 12  1  0  0  0  0
 11 13  1  0  0  0  0
 11 14  1  0  0  0  0
  9 10  1  0  0  0  0
  9 11  1  0  0  0  0
  9 22  1  0  0  0  0
  7  8  1  0  0  0  0
  7  9  1  0  0  0  0
 26 27  1  0  0  0  0
 26 28  1  0  0  0  0
 26 29  1  0  0  0  0
 24 25  1  0  0  0  0
 24 26  1  0  0  0  0
M  END
$$$$
default_name
  -OEChem-02102213163D

 29 29  0     1  0  0  0  0  0999 V2000
   -3.6042   -3.5728    1.4576 H   0  0  0  0  0  0  0  0  0  0  0  0
   -3.5202   -2.6488    0.8866 C   0  0  0  0  0  0  0  0  0  0  0  0
   -4.2052   -1.9048    1.2896 H   0  0  0  0  0  0  0  0  0  0  0  0
   -3.7552   -2.8428   -0.1584 H   0  0  0  0  0  0  0  0  0  0  0  0
   -2.1052   -2.1358    0.9946 C   0  0  0  0  0  0  0  0  0  0  0  0
   -1.2852   -2.7288    1.6826 O   0  0  0  0  0  0  0  0  0  0  0  0
   -1.8202   -1.0288    0.3146 N   0  0  0  0  0  0  0  0  0  0  0  0
   -2.5542   -0.5788   -0.2104 H   0  0  0  0  0  0  0  0  0  0  0  0
   -0.5102   -0.3728    0.3086 C   0  0  1  0  0  0  0  0  0  0  0  0
    0.2354   -1.0844   -0.0490 H   0  0  0  0  0  0  0  0  0  0  0  0
   -0.5452    0.8158   -0.6698 C   0  0  0  0  0  0  0  0  0  0  0  0
    0.4474    0.9514   -1.1029 H   0  0  0  0  0  0  0  0  0  0  0  0
   -1.2375    0.5875   -1.4823 H   0  0  0  0  0  0  0  0  0  0  0  0
   -0.9700    2.1121   -0.0299 C   0  0  0  0  0  0  0  0  0  0  0  0
   -1.8724    3.0184   -0.5440 N   0  0  0  0  0  0  0  0  0  0  0  0
   -2.3105    2.9721   -1.4518 H   0  0  0  0  0  0  0  0  0  0  0  0
   -2.0641    3.9804    0.3742 C   0  0  0  0  0  0  0  0  0  0  0  0
   -2.7163    4.8371    0.2565 H   0  0  0  0  0  0  0  0  0  0  0  0
   -1.3320    3.7296    1.4694 N   0  0  0  0  0  0  0  0  0  0  0  0
   -0.6293    2.5473    1.2230 C   0  0  0  0  0  0  0  0  0  0  0  0
    0.0369    2.0445    1.9121 H   0  0  0  0  0  0  0  0  0  0  0  0
   -0.1073    0.0565    1.7296 C   0  0  0  0  0  0  0  0  0  0  0  0
    1.0285   -0.1699    2.1459 O   0  0  0  0  0  0  0  0  0  0  0  0
   -1.0395    0.6588    2.4785 N   0  0  0  0  0  0  0  0  0  0  0  0
   -1.9636    0.7597    2.0849 H   0  0  0  0  0  0  0  0  0  0  0  0
   -0.8222    1.1334    3.8425 C   0  0  0  0  0  0  0  0  0  0  0  0
   -0.0212    1.8761    3.8521 H   0  0  0  0  0  0  0  0  0  0  0  0
   -1.7349    1.5853    4.2320 H   0  0  0  0  0  0  0  0  0  0  0  0
   -0.5312    0.2997    4.4834 H   0  0  0  0  0  0  0  0  0  0  0  0
  5  6  2  0  0  0  0
  5  7  1  0  0  0  0
  2  3  1  0  0  0  0
  2  4  1  0  0  0  0
  2  5  1  0  0  0  0
  1  2  1  0  0  0  0
 22 23  2  0  0  0  0
 22 24  1  0  0  0  0
 20 21  1  0  0  0  0
 19 20  1  0  0  0  0
 17 18  1  0  0  0  0
 17 19  2  0  0  0  0
 15 16  1  0  0  0  0
 15 17  1  0  0  0  0
 14 15  1  0  0  0  0
 14 20  2  0  0  0  0
 11 12  1  0  0  0  0
 11 13  1  0  0  0  0
 11 14  1  0  0  0  0
  9 10  1  0  0  0  0
  9 11  1  0  0  0  0
  9 22  1  0  0  0  0
  7  8  1  0  0  0  0
  7  9  1  0  0  0  0
 26 27  1  0  0  0  0
 26 28  1  0  0  0  0
 26 29  1  0  0  0  0
 24 25  1  0  0  0  0
 24 26  1  0  0  0  0
M  END
$$$$
default_name
  -OEChem-02102213163D

 29 29  0     1  0  0  0  0  0999 V2000
   -3.6042   -3.5728    1.4576 H   0  0  0  0  0  0  0  0  0  0  0  0
   -3.5202   -2.6488    0.8866 C   0  0  0  0  0  0  0  0  0  0  0  0
   -4.2052   -1.9048    1.2896 H   0  0  0  0  0  0  0  0  0  0  0  0
   -3.7552   -2.8428   -0.1584 H   0  0  0  0  0  0  0  0  0  0  0  0
   -2.1052   -2.1358    0.9946 C   0  0  0  0  0  0  0  0  0  0  0  0
   -1.2852   -2.7288    1.6826 O   0  0  0  0  0  0  0  0  0  0  0  0
   -1.8202   -1.0288    0.3146 N   0  0  0  0  0  0  0  0  0  0  0  0
   -2.5542   -0.5788   -0.2104 H   0  0  0  0  0  0  0  0  0  0  0  0
   -0.5102   -0.3728    0.3086 C   0  0  1  0  0  0  0  0  0  0  0  0
    0.2354   -1.0844   -0.0490 H   0  0  0  0  0  0  0  0  0  0  0  0
   -0.5452    0.8158   -0.6698 C   0  0  0  0  0  0  0  0  0  0  0  0
    0.4474    0.9514   -1.1029 H   0  0  0  0  0  0  0  0  0  0  0  0
   -1.2375    0.5875   -1.4823 H   0  0  0  0  0  0  0  0  0  0  0  0
   -0.9700    2.1121   -0.0299 C   0  0  0  0  0  0  0  0  0  0  0  0
   -2.0636    2.8747   -0.3799 N   0  0  0  0  0  0  0  0  0  0  0  0
   -2.6809    2.7067   -1.1602 H   0  0  0  0  0  0  0  0  0  0  0  0
   -2.1623    3.8872    0.4979 C   0  0  0  0  0  0  0  0  0  0  0  0
   -2.9210    4.6600    0.4795 H   0  0  0  0  0  0  0  0  0  0  0  0
   -1.1841    3.8066    1.4117 N   0  0  0  0  0  0  0  0  0  0  0  0
   -0.4175    2.6851    1.0844 C   0  0  0  0  0  0  0  0  0  0  0  0
    0.4378    2.3133    1.6336 H   0  0  0  0  0  0  0  0  0  0  0  0
   -0.1073    0.0565    1.7296 C   0  0  0  0  0  0  0  0  0  0  0  0
    1.0285   -0.1699    2.1459 O   0  0  0  0  0  0  0  0  0  0  0  0
   -1.0395    0.6588    2.4785 N   0  0  0  0  0  0  0  0  0  0  0  0
   -1.9636    0.7597    2.0849 H   0  0  0  0  0  0  0  0  0  0  0  0
   -0.8222    1.1334    3.8425 C   0  0  0  0  0  0  0  0  0  0  0  0
   -0.0212    1.8761    3.8521 H   0  0  0  0  0  0  0  0  0  0  0  0
   -1.7349    1.5853    4.2320 H   0  0  0  0  0  0  0  0  0  0  0  0
   -0.5312    0.2997    4.4834 H   0  0  0  0  0  0  0  0  0  0  0  0
  5  6  2  0  0  0  0
  5  7  1  0  0  0  0
  2  3  1  0  0  0  0
  2  4  1  0  0  0  0
  2  5  1  0  0  0  0
  1  2  1  0  0  0  0
 22 23  2  0  0  0  0
 22 24  1  0  0  0  0
 20 21  1  0  0  0  0
 19 20  1  0  0  0  0
 17 18  1  0  0  0  0
 17 19  2  0  0  0  0
 15 16  1  0  0  0  0
 15 17  1  0  0  0  0
 14 15  1  0  0  0  0
 14 20  2  0  0  0  0
 11 12  1  0  0  0  0
 11 13  1  0  0  0  0
 11 14  1  0  0  0  0
  9 10  1  0  0  0  0
  9 11  1  0  0  0  0
  9 22  1  0  0  0  0
  7  8  1  0  0  0  0
  7  9  1  0  0  0  0
 26 27  1  0  0  0  0
 26 28  1  0  0  0  0
 26 29  1  0  0  0  0
 24 25  1  0  0  0  0
 24 26  1  0  0  0  0
M  END
$$$$
default_name
  -OEChem-02102213163D

 29 29  0     1  0  0  0  0  0999 V2000
   -3.6042   -3.5728    1.4576 H   0  0  0  0  0  0  0  0  0  0  0  0
   -3.5202   -2.6488    0.8866 C   0  0  0  0  0  0  0  0  0  0  0  0
   -4.2052   -1.9048    1.2896 H   0  0  0  0  0  0  0  0  0  0  0  0
   -3.7552   -2.8428   -0.1584 H   0  0  0  0  0  0  0  0  0  0  0  0
   -2.1052   -2.1358    0.9946 C   0  0  0  0  0  0  0  0  0  0  0  0
   -1.2852   -2.7288    1.6826 O   0  0  0  0  0  0  0  0  0  0  0  0
   -1.8202   -1.0288    0.3146 N   0  0  0  0  0  0  0  0  0  0  0  0
   -2.5542   -0.5788   -0.2104 H   0  0  0  0  0  0  0  0  0  0  0  0
   -0.5102   -0.3728    0.3086 C   0  0  1  0  0  0  0  0  0  0  0  0
    0.2354   -1.0844   -0.0490 H   0  0  0  0  0  0  0  0  0  0  0  0
   -0.5452    0.8158   -0.6698 C   0  0  0  0  0  0  0  0  0  0  0  0
    0.4474    0.9514   -1.1029 H   0  0  0  0  0  0  0  0  0  0  0  0
   -1.2375    0.5875   -1.4823 H   0  0  0  0  0  0  0  0  0  0  0  0
   -0.9700    2.1121   -0.0299 C   0  0  0  0  0  0  0  0  0  0  0  0
   -2.1959    2.7269   -0.1683 N   0  0  0  0  0  0  0  0  0  0  0  0
   -2.9446    2.4310   -0.7767 H   0  0  0  0  0  0  0  0  0  0  0  0
   -2.2193    3.7954    0.6460 C   0  0  0  0  0  0  0  0  0  0  0  0
   -3.0496    4.4826    0.7534 H   0  0  0  0  0  0  0  0  0  0  0  0
   -1.0625    3.8929    1.3174 N   0  0  0  0  0  0  0  0  0  0  0  0
   -0.2590    2.8314    0.8934 C   0  0  0  0  0  0  0  0  0  0  0  0
    0.7335    2.5967    1.2557 H   0  0  0  0  0  0  0  0  0  0  0  0
   -0.1073    0.0565    1.7296 C   0  0  0  0  0  0  0  0  0  0  0  0
    1.0285   -0.1699    2.1459 O   0  0  0  0  0  0  0  0  0  0  0  0
   -1.0395    0.6588    2.4785 N   0  0  0  0  0  0  0  0  0  0  0  0
   -1.9636    0.7597    2.0849 H   0  0  0  0  0  0  0  0  0  0  0  0
   -0.8222    1.1334    3.8425 C   0  0  0  0  0  0  0  0  0  0  0  0
   -0.0212    1.8761    3.8521 H   0  0  0  0  0  0  0  0  0  0  0  0
   -1.7349    1.5853    4.2320 H   0  0  0  0  0  0  0  0  0  0  0  0
   -0.5312    0.2997    4.4834 H   0  0  0  0  0  0  0  0  0  0  0  0
  5  6  2  0  0  0  0
  5  7  1  0  0  0  0
  2  3  1  0  0  0  0
  2  4  1  0  0  0  0
  2  5  1  0  0  0  0
  1  2  1  0  0  0  0
 22 23  2  0  0  0  0
 22 24  1  0  0  0  0
 20 21  1  0  0  0  0
 19 20  1  0  0  0  0
 17 18  1  0  0  0  0
 17 19  2  0  0  0  0
 15 16  1  0  0  0  0
 15 17  1  0  0  0  0
 14 15  1  0  0  0  0
 14 20  2  0  0  0  0
 11 12  1  0  0  0  0
 11 13  1  0  0  0  0
 11 14  1  0  0  0  0
  9 10  1  0  0  0  0
  9 11  1  0  0  0  0
  9 22  1  0  0  0  0
  7  8  1  0  0  0  0
  7  9  1  0  0  0  0
 26 27  1  0  0  0  0
 26 28  1  0  0  0  0
 26 29  1  0  0  0  0
 24 25  1  0  0  0  0
 24 26  1  0  0  0  0
M  END
$$$$
default_name
  -OEChem-02102213163D

 29 29  0     1  0  0  0  0  0999 V2000
   -3.6042   -3.5728    1.4576 H   0  0  0  0  0  0  0  0  0  0  0  0
   -3.5202   -2.6488    0.8866 C   0  0  0  0  0  0  0  0  0  0  0  0
   -4.2052   -1.9048    1.2896 H   0  0  0  0  0  0  0  0  0  0  0  0
   -3.7552   -2.8428   -0.1584 H   0  0  0  0  0  0  0  0  0  0  0  0
   -2.1052   -2.1358    0.9946 C   0  0  0  0  0  0  0  0  0  0  0  0
   -1.2852   -2.7288    1.6826 O   0  0  0  0  0  0  0  0  0  0  0  0
   -1.8202   -1.0288    0.3146 N   0  0  0  0  0  0  0  0  0  0  0  0
   -2.5542   -0.5788   -0.2104 H   0  0  0  0  0  0  0  0  0  0  0  0
   -0.5102   -0.3728    0.3086 C   0  0  1  0  0  0  0  0  0  0  0  0
    0.2354   -1.0844   -0.0490 H   0  0  0  0  0  0  0  0  0  0  0  0
   -0.5452    0.8158   -0.6698 C   0  0  0  0  0  0  0  0  0  0  0  0
    0.4474    0.9514   -1.1029 H   0  0  0  0  0  0  0  0  0  0  0  0
   -1.2375    0.5875   -1.4823 H   0  0  0  0  0  0  0  0  0  0  0  0
   -0.9700    2.1121   -0.0299 C   0  0  0  0  0  0  0  0  0  0  0  0
   -2.2604    2.5850    0.0763 N   0  0  0  0  0  0  0  0  0  0  0  0
   -3.0836    2.1636   -0.3274 H   0  0  0  0  0  0  0  0  0  0  0  0
   -2.2313    3.7112    0.8085 C   0  0  0  0  0  0  0  0  0  0  0  0
   -3.0933    4.3171    1.0596 H   0  0  0  0  0  0  0  0  0  0  0  0
   -0.9756    3.9829    1.1930 N   0  0  0  0  0  0  0  0  0  0  0  0
   -0.1645    2.9761    0.6628 C   0  0  0  0  0  0  0  0  0  0  0  0
    0.9038    2.8754    0.8042 H   0  0  0  0  0  0  0  0  0  0  0  0
   -0.1073    0.0565    1.7296 C   0  0  0  0  0  0  0  0  0  0  0  0
    1.0285   -0.1699    2.1459 O   0  0  0  0  0  0  0  0  0  0  0  0
   -1.0395    0.6588    2.4785 N   0  0  0  0  0  0  0  0  0  0  0  0
   -1.9636    0.7597    2.0849 H   0  0  0  0  0  0  0  0  0  0  0  0
   -0.8222    1.1334    3.8425 C   0  0  0  0  0  0  0  0  0  0  0  0
   -0.0212    1.8761    3.8521 H   0  0  0  0  0  0  0  0  0  0  0  0
   -1.7349    1.5853    4.2320 H   0  0  0  0  0  0  0  0  0  0  0  0
   -0.5312    0.2997    4.4834 H   0  0  0  0  0  0  0  0  0  0  0  0
  5  6  2  0  0  0  0
  5  7  1  0  0  0  0
  2  3  1  0  0  0  0
  2  4  1  0  0  0  0
  2  5  1  0  0  0  0
  1  2  1  0  0  0  0
 22 23  2  0  0  0  0
 22 24  1  0  0  0  0
 20 21  1  0  0  0  0
 19 20  1  0  0  0  0
 17 18  1  0  0  0  0
 17 19  2  0  0  0  0
 15 16  1  0  0  0  0
 15 17  1  0  0  0  0
 14 15  1  0  0  0  0
 14 20  2  0  0  0  0
 11 12  1  0  0  0  0
 11 13  1  0  0  0  0
 11 14  1  0  0  0  0
  9 10  1  0  0  0  0
  9 11  1  0  0  0  0
  9 22  1  0  0  0  0
  7  8  1  0  0  0  0
  7  9  1  0  0  0  0
 26 27  1  0  0  0  0
 26 28  1  0  0  0  0
 26 29  1  0  0  0  0
 24 25  1  0  0  0  0
 24 26  1  0  0  0  0
M  END
$$$$
default_name
  -OEChem-02102213163D

 29 29  0     1  0  0  0  0  0999 V2000
   -3.6042   -3.5728    1.4576 H   0  0  0  0  0  0  0  0  0  0  0  0
   -3.5202   -2.6488    0.8866 C   0  0  0  0  0  0  0  0  0  0  0  0
   -4.2052   -1.9048    1.2896 H   0  0  0  0  0  0  0  0  0  0  0  0
   -3.7552   -2.8428   -0.1584 H   0  0  0  0  0  0  0  0  0  0  0  0
   -2.1052   -2.1358    0.9946 C   0  0  0  0  0  0  0  0  0  0  0  0
   -1.2852   -2.7288    1.6826 O   0  0  0  0  0  0  0  0  0  0  0  0
   -1.8202   -1.0288    0.3146 N   0  0  0  0  0  0  0  0  0  0  0  0
   -2.5542   -0.5788   -0.2104 H   0  0  0  0  0  0  0  0  0  0  0  0
   -0.5102   -0.3728    0.3086 C   0  0  1  0  0  0  0  0  0  0  0  0
    0.2354   -1.0844   -0.0490 H   0  0  0  0  0  0  0  0  0  0  0  0
   -0.5452    0.8158   -0.6698 C   0  0  0  0  0  0  0  0  0  0  0  0
    0.4474    0.9514   -1.1029 H   0  0  0  0  0  0  0  0  0  0  0  0
   -1.2375    0.5875   -1.4823 H   0  0  0  0  0  0  0  0  0  0  0  0
   -0.9700    2.1121   -0.0299 C   0  0  0  0  0  0  0  0  0  0  0  0
   -2.2526    2.4587    0.3373 N   0  0  0  0  0  0  0  0  0  0  0  0
   -3.0884    1.9229    0.1570 H   0  0  0  0  0  0  0  0  0  0  0  0
   -2.1974    3.6405    0.9743 C   0  0  0  0  0  0  0  0  0  0  0  0
   -3.0491    4.1748    1.3772 H   0  0  0  0  0  0  0  0  0  0  0  0
   -0.9292    4.0702    1.0469 N   0  0  0  0  0  0  0  0  0  0  0  0
   -0.1405    3.1095    0.4085 C   0  0  0  0  0  0  0  0  0  0  0  0
    0.9372    3.1304    0.3099 H   0  0  0  0  0  0  0  0  0  0  0  0
   -0.1073    0.0565    1.7296 C   0  0  0  0  0  0  0  0  0  0  0  0
    1.0285   -0.1699    2.1459 O   0  0  0  0  0  0  0  0  0  0  0  0
   -1.0395    0.6588    2.4785 N   0  0  0  0  0  0  0  0  0  0  0  0
   -1.9636    0.7597    2.0849 H   0  0  0  0  0  0  0  0  0  0  0  0
   -0.8222    1.1334    3.8425 C   0  0  0  0  0  0  0  0  0  0  0  0
   -0.0212    1.8761    3.8521 H   0  0  0  0  0  0  0  0  0  0  0  0
   -1.7349    1.5853    4.2320 H   0  0  0  0  0  0  0  0  0  0  0  0
   -0.5312    0.2997    4.4834 H   0  0  0  0  0  0  0  0  0  0  0  0
  5  6  2  0  0  0  0
  5  7  1  0  0  0  0
  2  3  1  0  0  0  0
  2  4  1  0  0  0  0
  2  5  1  0  0  0  0
  1  2  1  0  0  0  0
 22 23  2  0  0  0  0
 22 24  1  0  0  0  0
 20 21  1  0  0  0  0
 19 20  1  0  0  0  0
 17 18  1  0  0  0  0
 17 19  2  0  0  0  0
 15 16  1  0  0  0  0
 15 17  1  0  0  0  0
 14 15  1  0  0  0  0
 14 20  2  0  0  0  0
 11 12  1  0  0  0  0
 11 13  1  0  0  0  0
 11 14  1  0  0  0  0
  9 10  1  0  0  0  0
  9 11  1  0  0  0  0
  9 22  1  0  0  0  0
  7  8  1  0  0  0  0
  7  9  1  0  0  0  0
 26 27  1  0  0  0  0
 26 28  1  0  0  0  0
 26 29  1  0  0  0  0
 24 25  1  0  0  0  0
 24 26  1  0  0  0  0
M  END
$$$$
default_name
  -OEChem-02102213163D

 29 29  0     1  0  0  0  0  0999 V2000
   -3.6042   -3.5728    1.4576 H   0  0  0  0  0  0  0  0  0  0  0  0
   -3.5202   -2.6488    0.8866 C   0  0  0  0  0  0  0  0  0  0  0  0
   -4.2052   -1.9048    1.2896 H   0  0  0  0  0  0  0  0  0  0  0  0
   -3.7552   -2.8428   -0.1584 H   0  0  0  0  0  0  0  0  0  0  0  0
   -2.1052   -2.1358    0.9946 C   0  0  0  0  0  0  0  0  0  0  0  0
   -1.2852   -2.7288    1.6826 O   0  0  0  0  0  0  0  0  0  0  0  0
   -1.8202   -1.0288    0.3146 N   0  0  0  0  0  0  0  0  0  0  0  0
   -2.5542   -0.5788   -0.2104 H   0  0  0  0  0  0  0  0  0  0  0  0
   -0.5102   -0.3728    0.3086 C   0  0  1  0  0  0  0  0  0  0  0  0
    0.2354   -1.0844   -0.0490 H   0  0  0  0  0  0  0  0  0  0  0  0
   -0.5452    0.8158   -0.6698 C   0  0  0  0  0  0  0  0  0  0  0  0
    0.4474    0.9514   -1.1029 H   0  0  0  0  0  0  0  0  0  0  0  0
   -1.2375    0.5875   -1.4823 H   0  0  0  0  0  0  0  0  0  0  0  0
   -0.9700    2.1121   -0.0299 C   0  0  0  0  0  0  0  0  0  0  0  0
   -2.1731    2.3566    0.5969 N   0  0  0  0  0  0  0  0  0  0  0  0
   -2.9587    1.7252    0.6436 H   0  0  0  0  0  0  0  0  0  0  0  0
   -2.1200    3.5879    1.1321 C   0  0  0  0  0  0  0  0  0  0  0  0
   -2.9201    4.0654    1.6845 H   0  0  0  0  0  0  0  0  0  0  0  0
   -0.9265    4.1490    0.8891 N   0  0  0  0  0  0  0  0  0  0  0  0
   -0.1885    3.2225    0.1478 C   0  0  0  0  0  0  0  0  0  0  0  0
    0.8313    3.3443   -0.1937 H   0  0  0  0  0  0  0  0  0  0  0  0
   -0.1073    0.0565    1.7296 C   0  0  0  0  0  0  0  0  0  0  0  0
    1.0285   -0.1699    2.1459 O   0  0  0  0  0  0  0  0  0  0  0  0
   -1.0395    0.6588    2.4785 N   0  0  0  0  0  0  0  0  0  0  0  0
   -1.9636    0.7597    2.0849 H   0  0  0  0  0  0  0  0  0  0  0  0
   -0.8222    1.1334    3.8425 C   0  0  0  0  0  0  0  0  0  0  0  0
   -0.0212    1.8761    3.8521 H   0  0  0  0  0  0  0  0  0  0  0  0
   -1.7349    1.5853    4.2320 H   0  0  0  0  0  0  0  0  0  0  0  0
   -0.5312    0.2997    4.4834 H   0  0  0  0  0  0  0  0  0  0  0  0
  5  6  2  0  0  0  0
  5  7  1  0  0  0  0
  2  3  1  0  0  0  0
  2  4  1  0  0  0  0
  2  5  1  0  0  0  0
  1  2  1  0  0  0  0
 22 23  2  0  0  0  0
 22 24  1  0  0  0  0
 20 21  1  0  0  0  0
 19 20  1  0  0  0  0
 17 18  1  0  0  0  0
 17 19  2  0  0  0  0
 15 16  1  0  0  0  0
 15 17  1  0  0  0  0
 14 15  1  0  0  0  0
 14 20  2  0  0  0  0
 11 12  1  0  0  0  0
 11 13  1  0  0  0  0
 11 14  1  0  0  0  0
  9 10  1  0  0  0  0
  9 11  1  0  0  0  0
  9 22  1  0  0  0  0
  7  8  1  0  0  0  0
  7  9  1  0  0  0  0
 26 27  1  0  0  0  0
 26 28  1  0  0  0  0
 26 29  1  0  0  0  0
 24 25  1  0  0  0  0
 24 26  1  0  0  0  0
M  END
$$$$
default_name
  -OEChem-02102213163D

 29 29  0     1  0  0  0  0  0999 V2000
   -3.6042   -3.5728    1.4576 H   0  0  0  0  0  0  0  0  0  0  0  0
   -3.5202   -2.6488    0.8866 C   0  0  0  0  0  0  0  0  0  0  0  0
   -4.2052   -1.9048    1.2896 H   0  0  0  0  0  0  0  0  0  0  0  0
   -3.7552   -2.8428   -0.1584 H   0  0  0  0  0  0  0  0  0  0  0  0
   -2.1052   -2.1358    0.9946 C   0  0  0  0  0  0  0  0  0  0  0  0
   -1.2852   -2.7288    1.6826 O   0  0  0  0  0  0  0  0  0  0  0  0
   -1.8202   -1.0288    0.3146 N   0  0  0  0  0  0  0  0  0  0  0  0
   -2.5542   -0.5788   -0.2104 H   0  0  0  0  0  0  0  0  0  0  0  0
   -0.5102   -0.3728    0.3086 C   0  0  1  0  0  0  0  0  0  0  0  0
    0.2354   -1.0844   -0.0490 H   0  0  0  0  0  0  0  0  0  0  0  0
   -0.5452    0.8158   -0.6698 C   0  0  0  0  0  0  0  0  0  0  0  0
    0.4474    0.9514   -1.1029 H   0  0  0  0  0  0  0  0  0  0  0  0
   -1.2375    0.5875   -1.4823 H   0  0  0  0  0  0  0  0  0  0  0  0
   -0.9700    2.1121   -0.0299 C   0  0  0  0  0  0  0  0  0  0  0  0
   -2.0272    2.2857    0.8374 N   0  0  0  0  0  0  0  0  0  0  0  0
   -2.7034    1.5840    1.0991 H   0  0  0  0  0  0  0  0  0  0  0  0
   -2.0044    3.5572    1.2711 C   0  0  0  0  0  0  0  0  0  0  0  0
   -2.7151    3.9963    1.9606 H   0  0  0  0  0  0  0  0  0  0  0  0
   -0.9677    4.2139    0.7303 N   0  0  0  0  0  0  0  0  0  0  0  0
   -0.3054    3.3073   -0.1015 C   0  0  0  0  0  0  0  0  0  0  0  0
    0.5933    3.5025   -0.6721 H   0  0  0  0  0  0  0  0  0  0  0  0
   -0.1073    0.0565    1.7296 C   0  0  0  0  0  0  0  0  0  0  0  0
    1.0285   -0.1699    2.1459 O   0  0  0  0  0  0  0  0  0  0  0  0
   -1.0395    0.6588    2.4785 N   0  0  0  0  0  0  0  0  0  0  0  0
   -1.9636    0.7597    2.0849 H   0  0  0  0  0  0  0  0  0  0  0  0
   -0.8222    1.1334    3.8425 C   0  0  0  0  0  0  0  0  0  0  0  0
   -0.0212    1.8761    3.8521 H   0  0  0  0  0  0  0  0  0  0  0  0
   -1.7349    1.5853    4.2320 H   0  0  0  0  0  0  0  0  0  0  0  0
   -0.5312    0.2997    4.4834 H   0  0  0  0  0  0  0  0  0  0  0  0
  5  6  2  0  0  0  0
  5  7  1  0  0  0  0
  2  3  1  0  0  0  0
  2  4  1  0  0  0  0
  2  5  1  0  0  0  0
  1  2  1  0  0  0  0
 22 23  2  0  0  0  0
 22 24  1  0  0  0  0
 20 21  1  0  0  0  0
 19 20  1  0  0  0  0
 17 18  1  0  0  0  0
 17 19  2  0  0  0  0
 15 16  1  0  0  0  0
 15 17  1  0  0  0  0
 14 15  1  0  0  0  0
 14 20  2  0  0  0  0
 11 12  1  0  0  0  0
 11 13  1  0  0  0  0
 11 14  1  0  0  0  0
  9 10  1  0  0  0  0
  9 11  1  0  0  0  0
  9 22  1  0  0  0  0
  7  8  1  0  0  0  0
  7  9  1  0  0  0  0
 26 27  1  0  0  0  0
 26 28  1  0  0  0  0
 26 29  1  0  0  0  0
 24 25  1  0  0  0  0
 24 26  1  0  0  0  0
M  END
$$$$
default_name
  -OEChem-02102213163D

 29 29  0     1  0  0  0  0  0999 V2000
   -3.6042   -3.5728    1.4576 H   0  0  0  0  0  0  0  0  0  0  0  0
   -3.5202   -2.6488    0.8866 C   0  0  0  0  0  0  0  0  0  0  0  0
   -4.2052   -1.9048    1.2896 H   0  0  0  0  0  0  0  0  0  0  0  0
   -3.7552   -2.8428   -0.1584 H   0  0  0  0  0  0  0  0  0  0  0  0
   -2.1052   -2.1358    0.9946 C   0  0  0  0  0  0  0  0  0  0  0  0
   -1.2852   -2.7288    1.6826 O   0  0  0  0  0  0  0  0  0  0  0  0
   -1.8202   -1.0288    0.3146 N   0  0  0  0  0  0  0  0  0  0  0  0
   -2.5542   -0.5788   -0.2104 H   0  0  0  0  0  0  0  0  0  0  0  0
   -0.5102   -0.3728    0.3086 C   0  0  1  0  0  0  0  0  0  0  0  0
    0.2354   -1.0844   -0.0490 H   0  0  0  0  0  0  0  0  0  0  0  0
   -0.5452    0.8158   -0.6698 C   0  0  0  0  0  0  0  0  0  0  0  0
    0.4474    0.9514   -1.1029 H   0  0  0  0  0  0  0  0  0  0  0  0
   -1.2375    0.5875   -1.4823 H   0  0  0  0  0  0  0  0  0  0  0  0
   -0.9700    2.1121   -0.0299 C   0  0  0  0  0  0  0  0  0  0  0  0
   -1.8250    2.2508    1.0424 N   0  0  0  0  0  0  0  0  0  0  0  0
   -2.3399    1.5089    1.4926 H   0  0  0  0  0  0  0  0  0  0  0  0
   -1.8584    3.5504    1.3818 C   0  0  0  0  0  0  0  0  0  0  0  0
   -2.4479    3.9723    2.1866 H   0  0  0  0  0  0  0  0  0  0  0  0
   -1.0501    4.2604    0.5813 N   0  0  0  0  0  0  0  0  0  0  0  0
   -0.4832    3.3581   -0.3226 C   0  0  0  0  0  0  0  0  0  0  0  0
    0.2396    3.5942   -1.0928 H   0  0  0  0  0  0  0  0  0  0  0  0
   -0.1073    0.0565    1.7296 C   0  0  0  0  0  0  0  0  0  0  0  0
    1.0285   -0.1699    2.1459 O   0  0  0  0  0  0  0  0  0  0  0  0
   -1.0395    0.6588    2.4785 N   0  0  0  0  0  0  0  0  0  0  0  0
   -1.9636    0.7597    2.0849 H   0  0  0  0  0  0  0  0  0  0  0  0
   -0.8222    1.1334    3.8425 C   0  0  0  0  0  0  0  0  0  0  0  0
   -0.0212    1.8761    3.8521 H   0  0  0  0  0  0  0  0  0  0  0  0
   -1.7349    1.5853    4.2320 H   0  0  0  0  0  0  0  0  0  0  0  0
   -0.5312    0.2997    4.4834 H   0  0  0  0  0  0  0  0  0  0  0  0
  5  6  2  0  0  0  0
  5  7  1  0  0  0  0
  2  3  1  0  0  0  0
  2  4  1  0  0  0  0
  2  5  1  0  0  0  0
  1  2  1  0  0  0  0
 22 23  2  0  0  0  0
 22 24  1  0  0  0  0
 20 21  1  0  0  0  0
 19 20  1  0  0  0  0
 17 18  1  0  0  0  0
 17 19  2  0  0  0  0
 15 16  1  0  0  0  0
 15 17  1  0  0  0  0
 14 15  1  0  0  0  0
 14 20  2  0  0  0  0
 11 12  1  0  0  0  0
 11 13  1  0  0  0  0
 11 14  1  0  0  0  0
  9 10  1  0  0  0  0
  9 11  1  0  0  0  0
  9 22  1  0  0  0  0
  7  8  1  0  0  0  0
  7  9  1  0  0  0  0
 26 27  1  0  0  0  0
 26 28  1  0  0  0  0
 26 29  1  0  0  0  0
 24 25  1  0  0  0  0
 24 26  1  0  0  0  0
M  END
$$$$
default_name
  -OEChem-02102213163D

 29 29  0     1  0  0  0  0  0999 V2000
   -3.6042   -3.5728    1.4576 H   0  0  0  0  0  0  0  0  0  0  0  0
   -3.5202   -2.6488    0.8866 C   0  0  0  0  0  0  0  0  0  0  0  0
   -4.2052   -1.9048    1.2896 H   0  0  0  0  0  0  0  0  0  0  0  0
   -3.7552   -2.8428   -0.1584 H   0  0  0  0  0  0  0  0  0  0  0  0
   -2.1052   -2.1358    0.9946 C   0  0  0  0  0  0  0  0  0  0  0  0
   -1.2852   -2.7288    1.6826 O   0  0  0  0  0  0  0  0  0  0  0  0
   -1.8202   -1.0288    0.3146 N   0  0  0  0  0  0  0  0  0  0  0  0
   -2.5542   -0.5788   -0.2104 H   0  0  0  0  0  0  0  0  0  0  0  0
   -0.5102   -0.3728    0.3086 C   0  0  1  0  0  0  0  0  0  0  0  0
    0.2354   -1.0844   -0.0490 H   0  0  0  0  0  0  0  0  0  0  0  0
   -0.5452    0.8158   -0.6698 C   0  0  0  0  0  0  0  0  0  0  0  0
    0.4474    0.9514   -1.1029 H   0  0  0  0  0  0  0  0  0  0  0  0
   -1.2375    0.5875   -1.4823 H   0  0  0  0  0  0  0  0  0  0  0  0
   -0.9700    2.1121   -0.0299 C   0  0  0  0  0  0  0  0  0  0  0  0
   -1.5802    2.2542    1.1979 N   0  0  0  0  0  0  0  0  0  0  0  0
   -1.8928    1.5051    1.7972 H   0  0  0  0  0  0  0  0  0  0  0  0
   -1.6919    3.5680    1.4568 C   0  0  0  0  0  0  0  0  0  0  0  0
   -2.1369    3.9949    2.3472 H   0  0  0  0  0  0  0  0  0  0  0  0
   -1.1678    4.2855    0.4524 N   0  0  0  0  0  0  0  0  0  0  0  0
   -0.7097    3.3716   -0.5002 C   0  0  0  0  0  0  0  0  0  0  0  0
   -0.2059    3.6133   -1.4271 H   0  0  0  0  0  0  0  0  0  0  0  0
   -0.1073    0.0565    1.7296 C   0  0  0  0  0  0  0  0  0  0  0  0
    1.0285   -0.1699    2.1459 O   0  0  0  0  0  0  0  0  0  0  0  0
   -1.0395    0.6588    2.4785 N   0  0  0  0  0  0  0  0  0  0  0  0
   -1.9636    0.7597    2.0849 H   0  0  0  0  0  0  0  0  0  0  0  0
   -0.8222    1.1334    3.8425 C   0  0  0  0  0  0  0  0  0  0  0  0
   -0.0212    1.8761    3.8521 H   0  0  0  0  0  0  0  0  0  0  0  0
   -1.7349    1.5853    4.2320 H   0  0  0  0  0  0  0  0  0  0  0  0
   -0.5312    0.2997    4.4834 H   0  0  0  0  0  0  0  0  0  0  0  0
  5  6  2  0  0  0  0
  5  7  1  0  0  0  0
  2  3  1  0  0  0  0
  2  4  1  0  0  0  0
  2  5  1  0  0  0  0
  1  2  1  0  0  0  0
 22 23  2  0  0  0  0
 22 24  1  0  0  0  0
 20 21  1  0  0  0  0
 19 20  1  0  0  0  0
 17 18  1  0  0  0  0
 17 19  2  0  0  0  0
 15 16  1  0  0  0  0
 15 17  1  0  0  0  0
 14 15  1  0  0  0  0
 14 20  2  0  0  0  0
 11 12  1  0  0  0  0
 11 13  1  0  0  0  0
 11 14  1  0  0  0  0
  9 10  1  0  0  0  0
  9 11  1  0  0  0  0
  9 22  1  0  0  0  0
  7  8  1  0  0  0  0
  7  9  1  0  0  0  0
 26 27  1  0  0  0  0
 26 28  1  0  0  0  0
 26 29  1  0  0  0  0
 24 25  1  0  0  0  0
 24 26  1  0  0  0  0
M  END
$$$$
default_name
  -OEChem-02102213163D

 29 29  0     1  0  0  0  0  0999 V2000
   -3.6042   -3.5728    1.4576 H   0  0  0  0  0  0  0  0  0  0  0  0
   -3.5202   -2.6488    0.8866 C   0  0  0  0  0  0  0  0  0  0  0  0
   -4.2052   -1.9048    1.2896 H   0  0  0  0  0  0  0  0  0  0  0  0
   -3.7552   -2.8428   -0.1584 H   0  0  0  0  0  0  0  0  0  0  0  0
   -2.1052   -2.1358    0.9946 C   0  0  0  0  0  0  0  0  0  0  0  0
   -1.2852   -2.7288    1.6826 O   0  0  0  0  0  0  0  0  0  0  0  0
   -1.8202   -1.0288    0.3146 N   0  0  0  0  0  0  0  0  0  0  0  0
   -2.5542   -0.5788   -0.2104 H   0  0  0  0  0  0  0  0  0  0  0  0
   -0.5102   -0.3728    0.3086 C   0  0  1  0  0  0  0  0  0  0  0  0
    0.2354   -1.0844   -0.0490 H   0  0  0  0  0  0  0  0  0  0  0  0
   -0.5452    0.8158   -0.6698 C   0  0  0  0  0  0  0  0  0  0  0  0
    0.4474    0.9514   -1.1029 H   0  0  0  0  0  0  0  0  0  0  0  0
   -1.2375    0.5875   -1.4823 H   0  0  0  0  0  0  0  0  0  0  0  0
   -0.9700    2.1121   -0.0299 C   0  0  0  0  0  0  0  0  0  0  0  0
   -1.3095    2.2958    1.2934 N   0  0  0  0  0  0  0  0  0  0  0  0
   -1.3928    1.5727    1.9921 H   0  0  0  0  0  0  0  0  0  0  0  0
   -1.5164    3.6087    1.4908 C   0  0  0  0  0  0  0  0  0  0  0  0
   -1.8032    4.0627    2.4315 H   0  0  0  0  0  0  0  0  0  0  0  0
   -1.3131    4.2873    0.3522 N   0  0  0  0  0  0  0  0  0  0  0  0
   -0.9695    3.3467   -0.6223 C   0  0  0  0  0  0  0  0  0  0  0  0
   -0.7127    3.5583   -1.6522 H   0  0  0  0  0  0  0  0  0  0  0  0
   -0.1073    0.0565    1.7296 C   0  0  0  0  0  0  0  0  0  0  0  0
    1.0285   -0.1699    2.1459 O   0  0  0  0  0  0  0  0  0  0  0  0
   -1.0395    0.6588    2.4785 N   0  0  0  0  0  0  0  0  0  0  0  0
   -1.9636    0.7597    2.0849 H   0  0  0  0  0  0  0  0  0  0  0  0
   -0.8222    1.1334    3.8425 C   0  0  0  0  0  0  0  0  0  0  0  0
   -0.0212    1.8761    3.8521 H   0  0  0  0  0  0  0  0  0  0  0  0
   -1.7349    1.5853    4.2320 H   0  0  0  0  0  0  0  0  0  0  0  0
   -0.5312    0.2997    4.4834 H   0  0  0  0  0  0  0  0  0  0  0  0
  5  6  2  0  0  0  0
  5  7  1  0  0  0  0
  2  3  1  0  0  0  0
  2  4  1  0  0  0  0
  2  5  1  0  0  0  0
  1  2  1  0  0  0  0
 22 23  2  0  0  0  0
 22 24  1  0  0  0  0
 20 21  1  0  0  0  0
 19 20  1  0  0  0  0
 17 18  1  0  0  0  0
 17 19  2  0  0  0  0
 15 16  1  0  0  0  0
 15 17  1  0  0  0  0
 14 15  1  0  0  0  0
 14 20  2  0  0  0  0
 11 12  1  0  0  0  0
 11 13  1  0  0  0  0
 11 14  1  0  0  0  0
  9 10  1  0  0  0  0
  9 11  1  0  0  0  0
  9 22  1  0  0  0  0
  7  8  1  0  0  0  0
  7  9  1  0  0  0  0
 26 27  1  0  0  0  0
 26 28  1  0  0  0  0
 26 29  1  0  0  0  0
 24 25  1  0  0  0  0
 24 26  1  0  0  0  0
M  END
$$$$
default_name
  -OEChem-02102213163D

 29 29  0     1  0  0  0  0  0999 V2000
   -3.6042   -3.5728    1.4576 H   0  0  0  0  0  0  0  0  0  0  0  0
   -3.5202   -2.6488    0.8866 C   0  0  0  0  0  0  0  0  0  0  0  0
   -4.2052   -1.9048    1.2896 H   0  0  0  0  0  0  0  0  0  0  0  0
   -3.7552   -2.8428   -0.1584 H   0  0  0  0  0  0  0  0  0  0  0  0
   -2.1052   -2.1358    0.9946 C   0  0  0  0  0  0  0  0  0  0  0  0
   -1.2852   -2.7288    1.6826 O   0  0  0  0  0  0  0  0  0  0  0  0
   -1.8202   -1.0288    0.3146 N   0  0  0  0  0  0  0  0  0  0  0  0
   -2.5542   -0.5788   -0.2104 H   0  0  0  0  0  0  0  0  0  0  0  0
   -0.5102   -0.3728    0.3086 C   0  0  1  0  0  0  0  0  0  0  0  0
    0.2354   -1.0844   -0.0490 H   0  0  0  0  0  0  0  0  0  0  0  0
   -0.5452    0.8158   -0.6698 C   0  0  0  0  0  0  0  0  0  0  0  0
    0.4474    0.9514   -1.1029 H   0  0  0  0  0  0  0  0  0  0  0  0
   -1.2375    0.5875   -1.4823 H   0  0  0  0  0  0  0  0  0  0  0  0
   -0.9700    2.1121   -0.0299 C   0  0  0  0  0  0  0  0  0  0  0  0
   -1.0313    2.3727    1.3222 N   0  0  0  0  0  0  0  0  0  0  0  0
   -0.8738    1.7072    2.0642 H   0  0  0  0  0  0  0  0  0  0  0  0
   -1.3437    3.6698    1.4817 C   0  0  0  0  0  0  0  0  0  0  0  0
   -1.4696    4.1710    2.4336 H   0  0  0  0  0  0  0  0  0  0  0  0
   -1.4759    4.2658    0.2877 N   0  0  0  0  0  0  0  0  0  0  0  0
   -1.2449    3.2852   -0.6806 C   0  0  0  0  0  0  0  0  0  0  0  0
   -1.2463    3.4331   -1.7528 H   0  0  0  0  0  0  0  0  0  0  0  0
   -0.1073    0.0565    1.7296 C   0  0  0  0  0  0  0  0  0  0  0  0
    1.0285   -0.1699    2.1459 O   0  0  0  0  0  0  0  0  0  0  0  0
   -1.0395    0.6588    2.4785 N   0  0  0  0  0  0  0  0  0  0  0  0
   -1.9636    0.7597    2.0849 H   0  0  0  0  0  0  0  0  0  0  0  0
   -0.8222    1.1334    3.8425 C   0  0  0  0  0  0  0  0  0  0  0  0
   -0.0212    1.8761    3.8521 H   0  0  0  0  0  0  0  0  0  0  0  0
   -1.7349    1.5853    4.2320 H   0  0  0  0  0  0  0  0  0  0  0  0
   -0.5312    0.2997    4.4834 H   0  0  0  0  0  0  0  0  0  0  0  0
  5  6  2  0  0  0  0
  5  7  1  0  0  0  0
  2  3  1  0  0  0  0
  2  4  1  0  0  0  0
  2  5  1  0  0  0  0
  1  2  1  0  0  0  0
 22 23  2  0  0  0  0
 22 24  1  0  0  0  0
 20 21  1  0  0  0  0
 19 20  1  0  0  0  0
 17 18  1  0  0  0  0
 17 19  2  0  0  0  0
 15 16  1  0  0  0  0
 15 17  1  0  0  0  0
 14 15  1  0  0  0  0
 14 20  2  0  0  0  0
 11 12  1  0  0  0  0
 11 13  1  0  0  0  0
 11 14  1  0  0  0  0
  9 10  1  0  0  0  0
  9 11  1  0  0  0  0
  9 22  1  0  0  0  0
  7  8  1  0  0  0  0
  7  9  1  0  0  0  0
 26 27  1  0  0  0  0
 26 28  1  0  0  0  0
 26 29  1  0  0  0  0
 24 25  1  0  0  0  0
 24 26  1  0  0  0  0
M  END
$$$$
default_name
  -OEChem-02102213163D

 29 29  0     1  0  0  0  0  0999 V2000
   -3.6042   -3.5728    1.4576 H   0  0  0  0  0  0  0  0  0  0  0  0
   -3.5202   -2.6488    0.8866 C   0  0  0  0  0  0  0  0  0  0  0  0
   -4.2052   -1.9048    1.2896 H   0  0  0  0  0  0  0  0  0  0  0  0
   -3.7552   -2.8428   -0.1584 H   0  0  0  0  0  0  0  0  0  0  0  0
   -2.1052   -2.1358    0.9946 C   0  0  0  0  0  0  0  0  0  0  0  0
   -1.2852   -2.7288    1.6826 O   0  0  0  0  0  0  0  0  0  0  0  0
   -1.8202   -1.0288    0.3146 N   0  0  0  0  0  0  0  0  0  0  0  0
   -2.5542   -0.5788   -0.2104 H   0  0  0  0  0  0  0  0  0  0  0  0
   -0.5102   -0.3728    0.3086 C   0  0  1  0  0  0  0  0  0  0  0  0
    0.2354   -1.0844   -0.0490 H   0  0  0  0  0  0  0  0  0  0  0  0
   -0.5452    0.8158   -0.6698 C   0  0  0  0  0  0  0  0  0  0  0  0
    0.4474    0.9514   -1.1029 H   0  0  0  0  0  0  0  0  0  0  0  0
   -1.2375    0.5875   -1.4823 H   0  0  0  0  0  0  0  0  0  0  0  0
   -0.9700    2.1121   -0.0299 C   0  0  0  0  0  0  0  0  0  0  0  0
   -0.7646    2.4797    1.2826 N   0  0  0  0  0  0  0  0  0  0  0  0
   -0.3712    1.8995    2.0084 H   0  0  0  0  0  0  0  0  0  0  0  0
   -1.1857    3.7472    1.4299 C   0  0  0  0  0  0  0  0  0  0  0  0
   -1.1588    4.3124    2.3535 H   0  0  0  0  0  0  0  0  0  0  0  0
   -1.6451    4.2225    0.2631 N   0  0  0  0  0  0  0  0  0  0  0  0
   -1.5172    3.1913   -0.6711 C   0  0  0  0  0  0  0  0  0  0  0  0
   -1.7703    3.2461   -1.7220 H   0  0  0  0  0  0  0  0  0  0  0  0
   -0.1073    0.0565    1.7296 C   0  0  0  0  0  0  0  0  0  0  0  0
    1.0285   -0.1699    2.1459 O   0  0  0  0  0  0  0  0  0  0  0  0
   -1.0395    0.6588    2.4785 N   0  0  0  0  0  0  0  0  0  0  0  0
   -1.9636    0.7597    2.0849 H   0  0  0  0  0  0  0  0  0  0  0  0
   -0.8222    1.1334    3.8425 C   0  0  0  0  0  0  0  0  0  0  0  0
   -0.0212    1.8761    3.8521 H   0  0  0  0  0  0  0  0  0  0  0  0
   -1.7349    1.5853    4.2320 H   0  0  0  0  0  0  0  0  0  0  0  0
   -0.5312    0.2997    4.4834 H   0  0  0  0  0  0  0  0  0  0  0  0
  5  6  2  0  0  0  0
  5  7  1  0  0  0  0
  2  3  1  0  0  0  0
  2  4  1  0  0  0  0
  2  5  1  0  0  0  0
  1  2  1  0  0  0  0
 22 23  2  0  0  0  0
 22 24  1  0  0  0  0
 20 21  1  0  0  0  0
 19 20  1  0  0  0  0
 17 18  1  0  0  0  0
 17 19  2  0  0  0  0
 15 16  1  0  0  0  0
 15 17  1  0  0  0  0
 14 15  1  0  0  0  0
 14 20  2  0  0  0  0
 11 12  1  0  0  0  0
 11 13  1  0  0  0  0
 11 14  1  0  0  0  0
  9 10  1  0  0  0  0
  9 11  1  0  0  0  0
  9 22  1  0  0  0  0
  7  8  1  0  0  0  0
  7  9  1  0  0  0  0
 26 27  1  0  0  0  0
 26 28  1  0  0  0  0
 26 29  1  0  0  0  0
 24 25  1  0  0  0  0
 24 26  1  0  0  0  0
M  END
$$$$
default_name
  -OEChem-02102213163D

 29 29  0     1  0  0  0  0  0999 V2000
   -3.6042   -3.5728    1.4576 H   0  0  0  0  0  0  0  0  0  0  0  0
   -3.5202   -2.6488    0.8866 C   0  0  0  0  0  0  0  0  0  0  0  0
   -4.2052   -1.9048    1.2896 H   0  0  0  0  0  0  0  0  0  0  0  0
   -3.7552   -2.8428   -0.1584 H   0  0  0  0  0  0  0  0  0  0  0  0
   -2.1052   -2.1358    0.9946 C   0  0  0  0  0  0  0  0  0  0  0  0
   -1.2852   -2.7288    1.6826 O   0  0  0  0  0  0  0  0  0  0  0  0
   -1.8202   -1.0288    0.3146 N   0  0  0  0  0  0  0  0  0  0  0  0
   -2.5542   -0.5788   -0.2104 H   0  0  0  0  0  0  0  0  0  0  0  0
   -0.5102   -0.3728    0.3086 C   0  0  1  0  0  0  0  0  0  0  0  0
    0.2354   -1.0844   -0.0490 H   0  0  0  0  0  0  0  0  0  0  0  0
   -0.5452    0.8158   -0.6698 C   0  0  0  0  0  0  0  0  0  0  0  0
    0.4474    0.9514   -1.1029 H   0  0  0  0  0  0  0  0  0  0  0  0
   -1.2375    0.5875   -1.4823 H   0  0  0  0  0  0  0  0  0  0  0  0
   -0.9700    2.1121   -0.0299 C   0  0  0  0  0  0  0  0  0  0  0  0
   -0.5276    2.6095    1.1771 N   0  0  0  0  0  0  0  0  0  0  0  0
    0.0807    2.1364    1.8285 H   0  0  0  0  0  0  0  0  0  0  0  0
   -1.0530    3.8355    1.3391 C   0  0  0  0  0  0  0  0  0  0  0  0
   -0.8919    4.4773    2.1965 H   0  0  0  0  0  0  0  0  0  0  0  0
   -1.8093    4.1602    0.2803 N   0  0  0  0  0  0  0  0  0  0  0  0
   -1.7677    3.0714   -0.5945 C   0  0  0  0  0  0  0  0  0  0  0  0
   -2.2491    3.0102   -1.5619 H   0  0  0  0  0  0  0  0  0  0  0  0
   -0.1073    0.0565    1.7296 C   0  0  0  0  0  0  0  0  0  0  0  0
    1.0285   -0.1699    2.1459 O   0  0  0  0  0  0  0  0  0  0  0  0
   -1.0395    0.6588    2.4785 N   0  0  0  0  0  0  0  0  0  0  0  0
   -1.9636    0.7597    2.0849 H   0  0  0  0  0  0  0  0  0  0  0  0
   -0.8222    1.1334    3.8425 C   0  0  0  0  0  0  0  0  0  0  0  0
   -0.0212    1.8761    3.8521 H   0  0  0  0  0  0  0  0  0  0  0  0
   -1.7349    1.5853    4.2320 H   0  0  0  0  0  0  0  0  0  0  0  0
   -0.5312    0.2997    4.4834 H   0  0  0  0  0  0  0  0  0  0  0  0
  5  6  2  0  0  0  0
  5  7  1  0  0  0  0
  2  3  1  0  0  0  0
  2  4  1  0  0  0  0
  2  5  1  0  0  0  0
  1  2  1  0  0  0  0
 22 23  2  0  0  0  0
 22 24  1  0  0  0  0
 20 21  1  0  0  0  0
 19 20  1  0  0  0  0
 17 18  1  0  0  0  0
 17 19  2  0  0  0  0
 15 16  1  0  0  0  0
 15 17  1  0  0  0  0
 14 15  1  0  0  0  0
 14 20  2  0  0  0  0
 11 12  1  0  0  0  0
 11 13  1  0  0  0  0
 11 14  1  0  0  0  0
  9 10  1  0  0  0  0
  9 11  1  0  0  0  0
  9 22  1  0  0  0  0
  7  8  1  0  0  0  0
  7  9  1  0  0  0  0
 26 27  1  0  0  0  0
 26 28  1  0  0  0  0
 26 29  1  0  0  0  0
 24 25  1  0  0  0  0
 24 26  1  0  0  0  0
M  END
$$$$
default_name
  -OEChem-02102213163D

 29 29  0     1  0  0  0  0  0999 V2000
   -3.6042   -3.5728    1.4576 H   0  0  0  0  0  0  0  0  0  0  0  0
   -3.5202   -2.6488    0.8866 C   0  0  0  0  0  0  0  0  0  0  0  0
   -4.2052   -1.9048    1.2896 H   0  0  0  0  0  0  0  0  0  0  0  0
   -3.7552   -2.8428   -0.1584 H   0  0  0  0  0  0  0  0  0  0  0  0
   -2.1052   -2.1358    0.9946 C   0  0  0  0  0  0  0  0  0  0  0  0
   -1.2852   -2.7288    1.6826 O   0  0  0  0  0  0  0  0  0  0  0  0
   -1.8202   -1.0288    0.3146 N   0  0  0  0  0  0  0  0  0  0  0  0
   -2.5542   -0.5788   -0.2104 H   0  0  0  0  0  0  0  0  0  0  0  0
   -0.5102   -0.3728    0.3086 C   0  0  1  0  0  0  0  0  0  0  0  0
    0.2354   -1.0844   -0.0490 H   0  0  0  0  0  0  0  0  0  0  0  0
   -0.5452    0.8158   -0.6698 C   0  0  0  0  0  0  0  0  0  0  0  0
    0.4474    0.9514   -1.1029 H   0  0  0  0  0  0  0  0  0  0  0  0
   -1.2375    0.5875   -1.4823 H   0  0  0  0  0  0  0  0  0  0  0  0
   -0.9700    2.1121   -0.0299 C   0  0  0  0  0  0  0  0  0  0  0  0
   -0.3364    2.7531    1.0130 N   0  0  0  0  0  0  0  0  0  0  0  0
    0.4511    2.4017    1.5369 H   0  0  0  0  0  0  0  0  0  0  0  0
   -0.9549    3.9287    1.2153 C   0  0  0  0  0  0  0  0  0  0  0  0
   -0.6872    4.6545    1.9735 H   0  0  0  0  0  0  0  0  0  0  0  0
   -1.9572    4.0832    0.3380 N   0  0  0  0  0  0  0  0  0  0  0  0
   -1.9795    2.9336   -0.4559 C   0  0  0  0  0  0  0  0  0  0  0  0
   -2.6500    2.7413   -1.2835 H   0  0  0  0  0  0  0  0  0  0  0  0
   -0.1073    0.0565    1.7296 C   0  0  0  0  0  0  0  0  0  0  0  0
    1.0285   -0.1699    2.1459 O   0  0  0  0  0  0  0  0  0  0  0  0
   -1.0395    0.6588    2.4785 N   0  0  0  0  0  0  0  0  0  0  0  0
   -1.9636    0.7597    2.0849 H   0  0  0  0  0  0  0  0  0  0  0  0
   -0.8222    1.1334    3.8425 C   0  0  0  0  0  0  0  0  0  0  0  0
   -0.0212    1.8761    3.8521 H   0  0  0  0  0  0  0  0  0  0  0  0
   -1.7349    1.5853    4.2320 H   0  0  0  0  0  0  0  0  0  0  0  0
   -0.5312    0.2997    4.4834 H   0  0  0  0  0  0  0  0  0  0  0  0
  5  6  2  0  0  0  0
  5  7  1  0  0  0  0
  2  3  1  0  0  0  0
  2  4  1  0  0  0  0
  2  5  1  0  0  0  0
  1  2  1  0  0  0  0
 22 23  2  0  0  0  0
 22 24  1  0  0  0  0
 20 21  1  0  0  0  0
 19 20  1  0  0  0  0
 17 18  1  0  0  0  0
 17 19  2  0  0  0  0
 15 16  1  0  0  0  0
 15 17  1  0  0  0  0
 14 15  1  0  0  0  0
 14 20  2  0  0  0  0
 11 12  1  0  0  0  0
 11 13  1  0  0  0  0
 11 14  1  0  0  0  0
  9 10  1  0  0  0  0
  9 11  1  0  0  0  0
  9 22  1  0  0  0  0
  7  8  1  0  0  0  0
  7  9  1  0  0  0  0
 26 27  1  0  0  0  0
 26 28  1  0  0  0  0
 26 29  1  0  0  0  0
 24 25  1  0  0  0  0
 24 26  1  0  0  0  0
M  END
$$$$
default_name
  -OEChem-02102213163D

 29 29  0     1  0  0  0  0  0999 V2000
   -3.6042   -3.5728    1.4576 H   0  0  0  0  0  0  0  0  0  0  0  0
   -3.5202   -2.6488    0.8866 C   0  0  0  0  0  0  0  0  0  0  0  0
   -4.2052   -1.9048    1.2896 H   0  0  0  0  0  0  0  0  0  0  0  0
   -3.7552   -2.8428   -0.1584 H   0  0  0  0  0  0  0  0  0  0  0  0
   -2.1052   -2.1358    0.9946 C   0  0  0  0  0  0  0  0  0  0  0  0
   -1.2852   -2.7288    1.6826 O   0  0  0  0  0  0  0  0  0  0  0  0
   -1.8202   -1.0288    0.3146 N   0  0  0  0  0  0  0  0  0  0  0  0
   -2.5542   -0.5788   -0.2104 H   0  0  0  0  0  0  0  0  0  0  0  0
   -0.5102   -0.3728    0.3086 C   0  0  1  0  0  0  0  0  0  0  0  0
    0.2354   -1.0844   -0.0490 H   0  0  0  0  0  0  0  0  0  0  0  0
   -0.5452    0.8158   -0.6698 C   0  0  0  0  0  0  0  0  0  0  0  0
    0.4474    0.9514   -1.1029 H   0  0  0  0  0  0  0  0  0  0  0  0
   -1.2375    0.5875   -1.4823 H   0  0  0  0  0  0  0  0  0  0  0  0
   -0.9700    2.1121   -0.0299 C   0  0  0  0  0  0  0  0  0  0  0  0
   -0.2041    2.9009    0.8014 N   0  0  0  0  0  0  0  0  0  0  0  0
    0.7148    2.6774    1.1534 H   0  0  0  0  0  0  0  0  0  0  0  0
   -0.8978    4.0205    1.0672 C   0  0  0  0  0  0  0  0  0  0  0  0
   -0.5587    4.8319    1.6996 H   0  0  0  0  0  0  0  0  0  0  0  0
   -2.0788    3.9969    0.4323 N   0  0  0  0  0  0  0  0  0  0  0  0
   -2.1380    2.7873   -0.2648 C   0  0  0  0  0  0  0  0  0  0  0  0
   -2.9457    2.4579   -0.9056 H   0  0  0  0  0  0  0  0  0  0  0  0
   -0.1073    0.0565    1.7296 C   0  0  0  0  0  0  0  0  0  0  0  0
    1.0285   -0.1699    2.1459 O   0  0  0  0  0  0  0  0  0  0  0  0
   -1.0395    0.6588    2.4785 N   0  0  0  0  0  0  0  0  0  0  0  0
   -1.9636    0.7597    2.0849 H   0  0  0  0  0  0  0  0  0  0  0  0
   -0.8222    1.1334    3.8425 C   0  0  0  0  0  0  0  0  0  0  0  0
   -0.0212    1.8761    3.8521 H   0  0  0  0  0  0  0  0  0  0  0  0
   -1.7349    1.5853    4.2320 H   0  0  0  0  0  0  0  0  0  0  0  0
   -0.5312    0.2997    4.4834 H   0  0  0  0  0  0  0  0  0  0  0  0
  5  6  2  0  0  0  0
  5  7  1  0  0  0  0
  2  3  1  0  0  0  0
  2  4  1  0  0  0  0
  2  5  1  0  0  0  0
  1  2  1  0  0  0  0
 22 23  2  0  0  0  0
 22 24  1  0  0  0  0
 20 21  1  0  0  0  0
 19 20  1  0  0  0  0
 17 18  1  0  0  0  0
 17 19  2  0  0  0  0
 15 16  1  0  0  0  0
 15 17  1  0  0  0  0
 14 15  1  0  0  0  0
 14 20  2  0  0  0  0
 11 12  1  0  0  0  0
 11 13  1  0  0  0  0
 11 14  1  0  0  0  0
  9 10  1  0  0  0  0
  9 11  1  0  0  0  0
  9 22  1  0  0  0  0
  7  8  1  0  0  0  0
  7  9  1  0  0  0  0
 26 27  1  0  0  0  0
 26 28  1  0  0  0  0
 26 29  1  0  0  0  0
 24 25  1  0  0  0  0
 24 26  1  0  0  0  0
M  END
$$$$
default_name
  -OEChem-02102213163D

 29 29  0     1  0  0  0  0  0999 V2000
   -3.6042   -3.5728    1.4576 H   0  0  0  0  0  0  0  0  0  0  0  0
   -3.5202   -2.6488    0.8866 C   0  0  0  0  0  0  0  0  0  0  0  0
   -4.2052   -1.9048    1.2896 H   0  0  0  0  0  0  0  0  0  0  0  0
   -3.7552   -2.8428   -0.1584 H   0  0  0  0  0  0  0  0  0  0  0  0
   -2.1052   -2.1358    0.9946 C   0  0  0  0  0  0  0  0  0  0  0  0
   -1.2852   -2.7288    1.6826 O   0  0  0  0  0  0  0  0  0  0  0  0
   -1.8202   -1.0288    0.3146 N   0  0  0  0  0  0  0  0  0  0  0  0
   -2.5542   -0.5788   -0.2104 H   0  0  0  0  0  0  0  0  0  0  0  0
   -0.5102   -0.3728    0.3086 C   0  0  1  0  0  0  0  0  0  0  0  0
    0.2354   -1.0844   -0.0490 H   0  0  0  0  0  0  0  0  0  0  0  0
   -0.5452    0.8158   -0.6698 C   0  0  0  0  0  0  0  0  0  0  0  0
    0.4474    0.9514   -1.1029 H   0  0  0  0  0  0  0  0  0  0  0  0
   -1.2375    0.5875   -1.4823 H   0  0  0  0  0  0  0  0  0  0  0  0
   -0.9700    2.1121   -0.0299 C   0  0  0  0  0  0  0  0  0  0  0  0
   -0.1396    3.0428    0.5568 N   0  0  0  0  0  0  0  0  0  0  0  0
    0.8538    2.9448    0.7041 H   0  0  0  0  0  0  0  0  0  0  0  0
   -0.8858    4.1047    0.9047 C   0  0  0  0  0  0  0  0  0  0  0  0
   -0.5150    4.9974    1.3934 H   0  0  0  0  0  0  0  0  0  0  0  0
   -2.1657    3.9069    0.5567 N   0  0  0  0  0  0  0  0  0  0  0  0
   -2.2325    2.6425   -0.0343 C   0  0  0  0  0  0  0  0  0  0  0  0
   -3.1160    2.1792   -0.4541 H   0  0  0  0  0  0  0  0  0  0  0  0
   -0.1073    0.0565    1.7296 C   0  0  0  0  0  0  0  0  0  0  0  0
    1.0285   -0.1699    2.1459 O   0  0  0  0  0  0  0  0  0  0  0  0
   -1.0395    0.6588    2.4785 N   0  0  0  0  0  0  0  0  0  0  0  0
   -1.9636    0.7597    2.0849 H   0  0  0  0  0  0  0  0  0  0  0  0
   -0.8222    1.1334    3.8425 C   0  0  0  0  0  0  0  0  0  0  0  0
   -0.0212    1.8761    3.8521 H   0  0  0  0  0  0  0  0  0  0  0  0
   -1.7349    1.5853    4.2320 H   0  0  0  0  0  0  0  0  0  0  0  0
   -0.5312    0.2997    4.4834 H   0  0  0  0  0  0  0  0  0  0  0  0
  5  6  2  0  0  0  0
  5  7  1  0  0  0  0
  2  3  1  0  0  0  0
  2  4  1  0  0  0  0
  2  5  1  0  0  0  0
  1  2  1  0  0  0  0
 22 23  2  0  0  0  0
 22 24  1  0  0  0  0
 20 21  1  0  0  0  0
 19 20  1  0  0  0  0
 17 18  1  0  0  0  0
 17 19  2  0  0  0  0
 15 16  1  0  0  0  0
 15 17  1  0  0  0  0
 14 15  1  0  0  0  0
 14 20  2  0  0  0  0
 11 12  1  0  0  0  0
 11 13  1  0  0  0  0
 11 14  1  0  0  0  0
  9 10  1  0  0  0  0
  9 11  1  0  0  0  0
  9 22  1  0  0  0  0
  7  8  1  0  0  0  0
  7  9  1  0  0  0  0
 26 27  1  0  0  0  0
 26 28  1  0  0  0  0
 26 29  1  0  0  0  0
 24 25  1  0  0  0  0
 24 26  1  0  0  0  0
M  END
$$$$
default_name
  -OEChem-02102213163D

 29 29  0     1  0  0  0  0  0999 V2000
   -3.6042   -3.5728    1.4576 H   0  0  0  0  0  0  0  0  0  0  0  0
   -3.5202   -2.6488    0.8866 C   0  0  0  0  0  0  0  0  0  0  0  0
   -4.2052   -1.9048    1.2896 H   0  0  0  0  0  0  0  0  0  0  0  0
   -3.7552   -2.8428   -0.1584 H   0  0  0  0  0  0  0  0  0  0  0  0
   -2.1052   -2.1358    0.9946 C   0  0  0  0  0  0  0  0  0  0  0  0
   -1.2852   -2.7288    1.6826 O   0  0  0  0  0  0  0  0  0  0  0  0
   -1.8202   -1.0288    0.3146 N   0  0  0  0  0  0  0  0  0  0  0  0
   -2.5542   -0.5788   -0.2104 H   0  0  0  0  0  0  0  0  0  0  0  0
   -0.5102   -0.3728    0.3086 C   0  0  1  0  0  0  0  0  0  0  0  0
    0.2354   -1.0844   -0.0490 H   0  0  0  0  0  0  0  0  0  0  0  0
   -0.5452    0.8158   -0.6698 C   0  0  0  0  0  0  0  0  0  0  0  0
    0.4474    0.9514   -1.1029 H   0  0  0  0  0  0  0  0  0  0  0  0
   -1.2375    0.5875   -1.4823 H   0  0  0  0  0  0  0  0  0  0  0  0
   -0.9700    2.1121   -0.0299 C   0  0  0  0  0  0  0  0  0  0  0  0
   -0.1474    3.1691    0.2958 N   0  0  0  0  0  0  0  0  0  0  0  0
    0.8586    3.1855    0.2197 H   0  0  0  0  0  0  0  0  0  0  0  0
   -0.9197    4.1754    0.7389 C   0  0  0  0  0  0  0  0  0  0  0  0
   -0.5591    5.1396    1.0758 H   0  0  0  0  0  0  0  0  0  0  0  0
   -2.2121    3.8196    0.7028 N   0  0  0  0  0  0  0  0  0  0  0  0
   -2.2566    2.5091    0.2200 C   0  0  0  0  0  0  0  0  0  0  0  0
   -3.1494    1.9242    0.0403 H   0  0  0  0  0  0  0  0  0  0  0  0
   -0.1073    0.0565    1.7296 C   0  0  0  0  0  0  0  0  0  0  0  0
    1.0285   -0.1699    2.1459 O   0  0  0  0  0  0  0  0  0  0  0  0
   -1.0395    0.6588    2.4785 N   0  0  0  0  0  0  0  0  0  0  0  0
   -1.9636    0.7597    2.0849 H   0  0  0  0  0  0  0  0  0  0  0  0
   -0.8222    1.1334    3.8425 C   0  0  0  0  0  0  0  0  0  0  0  0
   -0.0212    1.8761    3.8521 H   0  0  0  0  0  0  0  0  0  0  0  0
   -1.7349    1.5853    4.2320 H   0  0  0  0  0  0  0  0  0  0  0  0
   -0.5312    0.2997    4.4834 H   0  0  0  0  0  0  0  0  0  0  0  0
  5  6  2  0  0  0  0
  5  7  1  0  0  0  0
  2  3  1  0  0  0  0
  2  4  1  0  0  0  0
  2  5  1  0  0  0  0
  1  2  1  0  0  0  0
 22 23  2  0  0  0  0
 22 24  1  0  0  0  0
 20 21  1  0  0  0  0
 19 20  1  0  0  0  0
 17 18  1  0  0  0  0
 17 19  2  0  0  0  0
 15 16  1  0  0  0  0
 15 17  1  0  0  0  0
 14 15  1  0  0  0  0
 14 20  2  0  0  0  0
 11 12  1  0  0  0  0
 11 13  1  0  0  0  0
 11 14  1  0  0  0  0
  9 10  1  0  0  0  0
  9 11  1  0  0  0  0
  9 22  1  0  0  0  0
  7  8  1  0  0  0  0
  7  9  1  0  0  0  0
 26 27  1  0  0  0  0
 26 28  1  0  0  0  0
 26 29  1  0  0  0  0
 24 25  1  0  0  0  0
 24 26  1  0  0  0  0
M  END
$$$$
default_name
  -OEChem-02102213163D

 29 29  0     1  0  0  0  0  0999 V2000
   -3.6042   -3.5728    1.4576 H   0  0  0  0  0  0  0  0  0  0  0  0
   -3.5202   -2.6488    0.8866 C   0  0  0  0  0  0  0  0  0  0  0  0
   -4.2052   -1.9048    1.2896 H   0  0  0  0  0  0  0  0  0  0  0  0
   -3.7552   -2.8428   -0.1584 H   0  0  0  0  0  0  0  0  0  0  0  0
   -2.1052   -2.1358    0.9946 C   0  0  0  0  0  0  0  0  0  0  0  0
   -1.2852   -2.7288    1.6826 O   0  0  0  0  0  0  0  0  0  0  0  0
   -1.8202   -1.0288    0.3146 N   0  0  0  0  0  0  0  0  0  0  0  0
   -2.5542   -0.5788   -0.2104 H   0  0  0  0  0  0  0  0  0  0  0  0
   -0.5102   -0.3728    0.3086 C   0  0  1  0  0  0  0  0  0  0  0  0
    0.2354   -1.0844   -0.0490 H   0  0  0  0  0  0  0  0  0  0  0  0
   -0.5452    0.8158   -0.6698 C   0  0  0  0  0  0  0  0  0  0  0  0
    0.4474    0.9514   -1.1029 H   0  0  0  0  0  0  0  0  0  0  0  0
   -1.2375    0.5875   -1.4823 H   0  0  0  0  0  0  0  0  0  0  0  0
   -0.9700    2.1121   -0.0299 C   0  0  0  0  0  0  0  0  0  0  0  0
   -0.2270    3.2712    0.0362 N   0  0  0  0  0  0  0  0  0  0  0  0
    0.7289    3.3832   -0.2669 H   0  0  0  0  0  0  0  0  0  0  0  0
   -0.9971    4.2279    0.5811 C   0  0  0  0  0  0  0  0  0  0  0  0
   -0.6881    5.2491    0.7685 H   0  0  0  0  0  0  0  0  0  0  0  0
   -2.2148    3.7408    0.8606 N   0  0  0  0  0  0  0  0  0  0  0  0
   -2.2085    2.3961    0.4807 C   0  0  0  0  0  0  0  0  0  0  0  0
   -3.0435    1.7103    0.5439 H   0  0  0  0  0  0  0  0  0  0  0  0
   -0.1073    0.0565    1.7296 C   0  0  0  0  0  0  0  0  0  0  0  0
    1.0285   -0.1699    2.1459 O   0  0  0  0  0  0  0  0  0  0  0  0
   -1.0395    0.6588    2.4785 N   0  0  0  0  0  0  0  0  0  0  0  0
   -1.9636    0.7597    2.0849 H   0  0  0  0  0  0  0  0  0  0  0  0
   -0.8222    1.1334    3.8425 C   0  0  0  0  0  0  0  0  0  0  0  0
   -0.0212    1.8761    3.8521 H   0  0  0  0  0  0  0  0  0  0  0  0
   -1.7349    1.5853    4.2320 H   0  0  0  0  0  0  0  0  0  0  0  0
   -0.5312    0.2997    4.4834 H   0  0  0  0  0  0  0  0  0  0  0  0
  5  6  2  0  0  0  0
  5  7  1  0  0  0  0
  2  3  1  0  0  0  0
  2  4  1  0  0  0  0
  2  5  1  0  0  0  0
  1  2  1  0  0  0  0
 22 23  2  0  0  0  0
 22 24  1  0  0  0  0
 20 21  1  0  0  0  0
 19 20  1  0  0  0  0
 17 18  1  0  0  0  0
 17 19  2  0  0  0  0
 15 16  1  0  0  0  0
 15 17  1  0  0  0  0
 14 15  1  0  0  0  0
 14 20  2  0  0  0  0
 11 12  1  0  0  0  0
 11 13  1  0  0  0  0
 11 14  1  0  0  0  0
  9 10  1  0  0  0  0
  9 11  1  0  0  0  0
  9 22  1  0  0  0  0
  7  8  1  0  0  0  0
  7  9  1  0  0  0  0
 26 27  1  0  0  0  0
 26 28  1  0  0  0  0
 26 29  1  0  0  0  0
 24 25  1  0  0  0  0
 24 26  1  0  0  0  0
M  END
$$$$
default_name
  -OEChem-02102213163D

 29 29  0     1  0  0  0  0  0999 V2000
   -3.6042   -3.5728    1.4576 H   0  0  0  0  0  0  0  0  0  0  0  0
   -3.5202   -2.6488    0.8866 C   0  0  0  0  0  0  0  0  0  0  0  0
   -4.2052   -1.9048    1.2896 H   0  0  0  0  0  0  0  0  0  0  0  0
   -3.7552   -2.8428   -0.1584 H   0  0  0  0  0  0  0  0  0  0  0  0
   -2.1052   -2.1358    0.9946 C   0  0  0  0  0  0  0  0  0  0  0  0
   -1.2852   -2.7288    1.6826 O   0  0  0  0  0  0  0  0  0  0  0  0
   -1.8202   -1.0288    0.3146 N   0  0  0  0  0  0  0  0  0  0  0  0
   -2.5542   -0.5788   -0.2104 H   0  0  0  0  0  0  0  0  0  0  0  0
   -0.5102   -0.3728    0.3086 C   0  0  1  0  0  0  0  0  0  0  0  0
    0.2354   -1.0844   -0.0490 H   0  0  0  0  0  0  0  0  0  0  0  0
   -0.5452    0.8158   -0.6698 C   0  0  0  0  0  0  0  0  0  0  0  0
    0.4474    0.9514   -1.1029 H   0  0  0  0  0  0  0  0  0  0  0  0
   -1.2375    0.5875   -1.4823 H   0  0  0  0  0  0  0  0  0  0  0  0
   -0.9700    2.1121   -0.0299 C   0  0  0  0  0  0  0  0  0  0  0  0
   -0.3728    3.3421   -0.2043 N   0  0  0  0  0  0  0  0  0  0  0  0
    0.4736    3.5244   -0.7224 H   0  0  0  0  0  0  0  0  0  0  0  0
   -1.1127    4.2587    0.4421 C   0  0  0  0  0  0  0  0  0  0  0  0
   -0.8932    5.3181    0.4924 H   0  0  0  0  0  0  0  0  0  0  0  0
   -2.1736    3.6759    1.0194 N   0  0  0  0  0  0  0  0  0  0  0  0
   -2.0916    2.3113    0.7301 C   0  0  0  0  0  0  0  0  0  0  0  0
   -2.8055    1.5521    1.0223 H   0  0  0  0  0  0  0  0  0  0  0  0
   -0.1073    0.0565    1.7296 C   0  0  0  0  0  0  0  0  0  0  0  0
    1.0285   -0.1699    2.1459 O   0  0  0  0  0  0  0  0  0  0  0  0
   -1.0395    0.6588    2.4785 N   0  0  0  0  0  0  0  0  0  0  0  0
   -1.9636    0.7597    2.0849 H   0  0  0  0  0  0  0  0  0  0  0  0
   -0.8222    1.1334    3.8425 C   0  0  0  0  0  0  0  0  0  0  0  0
   -0.0212    1.8761    3.8521 H   0  0  0  0  0  0  0  0  0  0  0  0
   -1.7349    1.5853    4.2320 H   0  0  0  0  0  0  0  0  0  0  0  0
   -0.5312    0.2997    4.4834 H   0  0  0  0  0  0  0  0  0  0  0  0
  5  6  2  0  0  0  0
  5  7  1  0  0  0  0
  2  3  1  0  0  0  0
  2  4  1  0  0  0  0
  2  5  1  0  0  0  0
  1  2  1  0  0  0  0
 22 23  2  0  0  0  0
 22 24  1  0  0  0  0
 20 21  1  0  0  0  0
 19 20  1  0  0  0  0
 17 18  1  0  0  0  0
 17 19  2  0  0  0  0
 15 16  1  0  0  0  0
 15 17  1  0  0  0  0
 14 15  1  0  0  0  0
 14 20  2  0  0  0  0
 11 12  1  0  0  0  0
 11 13  1  0  0  0  0
 11 14  1  0  0  0  0
  9 10  1  0  0  0  0
  9 11  1  0  0  0  0
  9 22  1  0  0  0  0
  7  8  1  0  0  0  0
  7  9  1  0  0  0  0
 26 27  1  0  0  0  0
 26 28  1  0  0  0  0
 26 29  1  0  0  0  0
 24 25  1  0  0  0  0
 24 26  1  0  0  0  0
M  END
$$$$
default_name
  -OEChem-02102213163D

 29 29  0     1  0  0  0  0  0999 V2000
   -3.6042   -3.5728    1.4576 H   0  0  0  0  0  0  0  0  0  0  0  0
   -3.5202   -2.6488    0.8866 C   0  0  0  0  0  0  0  0  0  0  0  0
   -4.2052   -1.9048    1.2896 H   0  0  0  0  0  0  0  0  0  0  0  0
   -3.7552   -2.8428   -0.1584 H   0  0  0  0  0  0  0  0  0  0  0  0
   -2.1052   -2.1358    0.9946 C   0  0  0  0  0  0  0  0  0  0  0  0
   -1.2852   -2.7288    1.6826 O   0  0  0  0  0  0  0  0  0  0  0  0
   -1.8202   -1.0288    0.3146 N   0  0  0  0  0  0  0  0  0  0  0  0
   -2.5542   -0.5788   -0.2104 H   0  0  0  0  0  0  0  0  0  0  0  0
   -0.5102   -0.3728    0.3086 C   0  0  1  0  0  0  0  0  0  0  0  0
    0.2354   -1.0844   -0.0490 H   0  0  0  0  0  0  0  0  0  0  0  0
   -0.5452    0.8158   -0.6698 C   0  0  0  0  0  0  0  0  0  0  0  0
    0.4474    0.9514   -1.1029 H   0  0  0  0  0  0  0  0  0  0  0  0
   -1.2375    0.5875   -1.4823 H   0  0  0  0  0  0  0  0  0  0  0  0
   -0.9700    2.1121   -0.0299 C   0  0  0  0  0  0  0  0  0  0  0  0
   -0.5750    3.3770   -0.4093 N   0  0  0  0  0  0  0  0  0  0  0  0
    0.1100    3.5995   -1.1159 H   0  0  0  0  0  0  0  0  0  0  0  0
   -1.2588    4.2655    0.3314 C   0  0  0  0  0  0  0  0  0  0  0  0
   -1.1603    5.3422    0.2664 H   0  0  0  0  0  0  0  0  0  0  0  0
   -2.0913    3.6294    1.1684 N   0  0  0  0  0  0  0  0  0  0  0  0
   -1.9139    2.2605    0.9511 C   0  0  0  0  0  0  0  0  0  0  0  0
   -2.4518    1.4604    1.4430 H   0  0  0  0  0  0  0  0  0  0  0  0
   -0.1073    0.0565    1.7296 C   0  0  0  0  0  0  0  0  0  0  0  0
    1.0285   -0.1699    2.1459 O   0  0  0  0  0  0  0  0  0  0  0  0
   -1.0395    0.6588    2.4785 N   0  0  0  0  0  0  0  0  0  0  0  0
   -1.9636    0.7597    2.0849 H   0  0  0  0  0  0  0  0  0  0  0  0
   -0.8222    1.1334    3.8425 C   0  0  0  0  0  0  0  0  0  0  0  0
   -0.0212    1.8761    3.8521 H   0  0  0  0  0  0  0  0  0  0  0  0
   -1.7349    1.5853    4.2320 H   0  0  0  0  0  0  0  0  0  0  0  0
   -0.5312    0.2997    4.4834 H   0  0  0  0  0  0  0  0  0  0  0  0
  5  6  2  0  0  0  0
  5  7  1  0  0  0  0
  2  3  1  0  0  0  0
  2  4  1  0  0  0  0
  2  5  1  0  0  0  0
  1  2  1  0  0  0  0
 22 23  2  0  0  0  0
 22 24  1  0  0  0  0
 20 21  1  0  0  0  0
 19 20  1  0  0  0  0
 17 18  1  0  0  0  0
 17 19  2  0  0  0  0
 15 16  1  0  0  0  0
 15 17  1  0  0  0  0
 14 15  1  0  0  0  0
 14 20  2  0  0  0  0
 11 12  1  0  0  0  0
 11 13  1  0  0  0  0
 11 14  1  0  0  0  0
  9 10  1  0  0  0  0
  9 11  1  0  0  0  0
  9 22  1  0  0  0  0
  7  8  1  0  0  0  0
  7  9  1  0  0  0  0
 26 27  1  0  0  0  0
 26 28  1  0  0  0  0
 26 29  1  0  0  0  0
 24 25  1  0  0  0  0
 24 26  1  0  0  0  0
M  END
$$$$
default_name
  -OEChem-02102213163D

 29 29  0     1  0  0  0  0  0999 V2000
   -3.6042   -3.5728    1.4576 H   0  0  0  0  0  0  0  0  0  0  0  0
   -3.5202   -2.6488    0.8866 C   0  0  0  0  0  0  0  0  0  0  0  0
   -4.2052   -1.9048    1.2896 H   0  0  0  0  0  0  0  0  0  0  0  0
   -3.7552   -2.8428   -0.1584 H   0  0  0  0  0  0  0  0  0  0  0  0
   -2.1052   -2.1358    0.9946 C   0  0  0  0  0  0  0  0  0  0  0  0
   -1.2852   -2.7288    1.6826 O   0  0  0  0  0  0  0  0  0  0  0  0
   -1.8202   -1.0288    0.3146 N   0  0  0  0  0  0  0  0  0  0  0  0
   -2.5542   -0.5788   -0.2104 H   0  0  0  0  0  0  0  0  0  0  0  0
   -0.5102   -0.3728    0.3086 C   0  0  1  0  0  0  0  0  0  0  0  0
    0.2354   -1.0844   -0.0490 H   0  0  0  0  0  0  0  0  0  0  0  0
   -0.5452    0.8158   -0.6698 C   0  0  0  0  0  0  0  0  0  0  0  0
    0.4474    0.9514   -1.1029 H   0  0  0  0  0  0  0  0  0  0  0  0
   -1.2375    0.5875   -1.4823 H   0  0  0  0  0  0  0  0  0  0  0  0
   -0.9700    2.1121   -0.0299 C   0  0  0  0  0  0  0  0  0  0  0  0
   -0.8198    3.3736   -0.5648 N   0  0  0  0  0  0  0  0  0  0  0  0
   -0.3370    3.6034   -1.4205 H   0  0  0  0  0  0  0  0  0  0  0  0
   -1.4252    4.2479    0.2564 C   0  0  0  0  0  0  0  0  0  0  0  0
   -1.4713    5.3195    0.1058 H   0  0  0  0  0  0  0  0  0  0  0  0
   -1.9735    3.6043    1.2973 N   0  0  0  0  0  0  0  0  0  0  0  0
   -1.6873    2.2470    1.1288 C   0  0  0  0  0  0  0  0  0  0  0  0
   -2.0063    1.4414    1.7773 H   0  0  0  0  0  0  0  0  0  0  0  0
   -0.1073    0.0565    1.7296 C   0  0  0  0  0  0  0  0  0  0  0  0
    1.0285   -0.1699    2.1459 O   0  0  0  0  0  0  0  0  0  0  0  0
   -1.0395    0.6588    2.4785 N   0  0  0  0  0  0  0  0  0  0  0  0
   -1.9636    0.7597    2.0849 H   0  0  0  0  0  0  0  0  0  0  0  0
   -0.8222    1.1334    3.8425 C   0  0  0  0  0  0  0  0  0  0  0  0
   -0.0212    1.8761    3.8521 H   0  0  0  0  0  0  0  0  0  0  0  0
   -1.7349    1.5853    4.2320 H   0  0  0  0  0  0  0  0  0  0  0  0
   -0.5312    0.2997    4.4834 H   0  0  0  0  0  0  0  0  0  0  0  0
  5  6  2  0  0  0  0
  5  7  1  0  0  0  0
  2  3  1  0  0  0  0
  2  4  1  0  0  0  0
  2  5  1  0  0  0  0
  1  2  1  0  0  0  0
 22 23  2  0  0  0  0
 22 24  1  0  0  0  0
 20 21  1  0  0  0  0
 19 20  1  0  0  0  0
 17 18  1  0  0  0  0
 17 19  2  0  0  0  0
 15 16  1  0  0  0  0
 15 17  1  0  0  0  0
 14 15  1  0  0  0  0
 14 20  2  0  0  0  0
 11 12  1  0  0  0  0
 11 13  1  0  0  0  0
 11 14  1  0  0  0  0
  9 10  1  0  0  0  0
  9 11  1  0  0  0  0
  9 22  1  0  0  0  0
  7  8  1  0  0  0  0
  7  9  1  0  0  0  0
 26 27  1  0  0  0  0
 26 28  1  0  0  0  0
 26 29  1  0  0  0  0
 24 25  1  0  0  0  0
 24 26  1  0  0  0  0
M  END
$$$$
default_name
  -OEChem-02102213163D

 29 29  0     1  0  0  0  0  0999 V2000
   -3.6042   -3.5728    1.4576 H   0  0  0  0  0  0  0  0  0  0  0  0
   -3.5202   -2.6488    0.8866 C   0  0  0  0  0  0  0  0  0  0  0  0
   -4.2052   -1.9048    1.2896 H   0  0  0  0  0  0  0  0  0  0  0  0
   -3.7552   -2.8428   -0.1584 H   0  0  0  0  0  0  0  0  0  0  0  0
   -2.1052   -2.1358    0.9946 C   0  0  0  0  0  0  0  0  0  0  0  0
   -1.2852   -2.7288    1.6826 O   0  0  0  0  0  0  0  0  0  0  0  0
   -1.8202   -1.0288    0.3146 N   0  0  0  0  0  0  0  0  0  0  0  0
   -2.5542   -0.5788   -0.2104 H   0  0  0  0  0  0  0  0  0  0  0  0
   -0.5102   -0.3728    0.3086 C   0  0  1  0  0  0  0  0  0  0  0  0
    0.2354   -1.0844   -0.0490 H   0  0  0  0  0  0  0  0  0  0  0  0
   -0.5452    0.8158   -0.6698 C   0  0  0  0  0  0  0  0  0  0  0  0
    0.3491    0.7904   -1.2950 H   0  0  0  0  0  0  0  0  0  0  0  0
   -1.4140    0.7137   -1.3226 H   0  0  0  0  0  0  0  0  0  0  0  0
   -0.6150    2.1574    0.0125 C   0  0  0  0  0  0  0  0  0  0  0  0
   -0.6578    3.3872   -0.6086 N   0  0  0  0  0  0  0  0  0  0  0  0
   -0.5708    3.5567   -1.5995 H   0  0  0  0  0  0  0  0  0  0  0  0
   -0.8305    4.3250    0.3380 C   0  0  0  0  0  0  0  0  0  0  0  0
   -0.8968    5.3911    0.1584 H   0  0  0  0  0  0  0  0  0  0  0  0
   -0.9140    3.7534    1.5483 N   0  0  0  0  0  0  0  0  0  0  0  0
   -0.7742    2.3767    1.3548 C   0  0  0  0  0  0  0  0  0  0  0  0
   -0.8204    1.6155    2.1229 H   0  0  0  0  0  0  0  0  0  0  0  0
   -0.1073    0.0565    1.7296 C   0  0  0  0  0  0  0  0  0  0  0  0
    1.0285   -0.1699    2.1459 O   0  0  0  0  0  0  0  0  0  0  0  0
   -1.0395    0.6588    2.4785 N   0  0  0  0  0  0  0  0  0  0  0  0
   -1.9636    0.7597    2.0849 H   0  0  0  0  0  0  0  0  0  0  0  0
   -0.8222    1.1334    3.8425 C   0  0  0  0  0  0  0  0  0  0  0  0
   -0.0212    1.8761    3.8521 H   0  0  0  0  0  0  0  0  0  0  0  0
   -1.7349    1.5853    4.2320 H   0  0  0  0  0  0  0  0  0  0  0  0
   -0.5312    0.2997    4.4834 H   0  0  0  0  0  0  0  0  0  0  0  0
  5  6  2  0  0  0  0
  5  7  1  0  0  0  0
  2  3  1  0  0  0  0
  2  4  1  0  0  0  0
  2  5  1  0  0  0  0
  1  2  1  0  0  0  0
 22 23  2  0  0  0  0
 22 24  1  0  0  0  0
 20 21  1  0  0  0  0
 19 20  1  0  0  0  0
 17 18  1  0  0  0  0
 17 19  2  0  0  0  0
 15 16  1  0  0  0  0
 15 17  1  0  0  0  0
 14 15  1  0  0  0  0
 14 20  2  0  0  0  0
 11 12  1  0  0  0  0
 11 13  1  0  0  0  0
 11 14  1  0  0  0  0
  9 10  1  0  0  0  0
  9 11  1  0  0  0  0
  9 22  1  0  0  0  0
  7  8  1  0  0  0  0
  7  9  1  0  0  0  0
 26 27  1  0  0  0  0
 26 28  1  0  0  0  0
 26 29  1  0  0  0  0
 24 25  1  0  0  0  0
 24 26  1  0  0  0  0
M  END
$$$$
default_name
  -OEChem-02102213163D

 29 29  0     1  0  0  0  0  0999 V2000
   -3.6042   -3.5728    1.4576 H   0  0  0  0  0  0  0  0  0  0  0  0
   -3.5202   -2.6488    0.8866 C   0  0  0  0  0  0  0  0  0  0  0  0
   -4.2052   -1.9048    1.2896 H   0  0  0  0  0  0  0  0  0  0  0  0
   -3.7552   -2.8428   -0.1584 H   0  0  0  0  0  0  0  0  0  0  0  0
   -2.1052   -2.1358    0.9946 C   0  0  0  0  0  0  0  0  0  0  0  0
   -1.2852   -2.7288    1.6826 O   0  0  0  0  0  0  0  0  0  0  0  0
   -1.8202   -1.0288    0.3146 N   0  0  0  0  0  0  0  0  0  0  0  0
   -2.5542   -0.5788   -0.2104 H   0  0  0  0  0  0  0  0  0  0  0  0
   -0.5102   -0.3728    0.3086 C   0  0  1  0  0  0  0  0  0  0  0  0
    0.2354   -1.0844   -0.0490 H   0  0  0  0  0  0  0  0  0  0  0  0
   -0.5452    0.8158   -0.6698 C   0  0  0  0  0  0  0  0  0  0  0  0
    0.3491    0.7904   -1.2950 H   0  0  0  0  0  0  0  0  0  0  0  0
   -1.4140    0.7137   -1.3226 H   0  0  0  0  0  0  0  0  0  0  0  0
   -0.6150    2.1574    0.0125 C   0  0  0  0  0  0  0  0  0  0  0  0
   -0.9449    3.3576   -0.5797 N   0  0  0  0  0  0  0  0  0  0  0  0
   -1.1086    3.5104   -1.5636 H   0  0  0  0  0  0  0  0  0  0  0  0
   -1.0054    4.2931    0.3828 C   0  0  0  0  0  0  0  0  0  0  0  0
   -1.2373    5.3394    0.2252 H   0  0  0  0  0  0  0  0  0  0  0  0
   -0.7403    3.7471    1.5786 N   0  0  0  0  0  0  0  0  0  0  0  0
   -0.4865    2.3912    1.3557 C   0  0  0  0  0  0  0  0  0  0  0  0
   -0.2643    1.6499    2.1123 H   0  0  0  0  0  0  0  0  0  0  0  0
   -0.1073    0.0565    1.7296 C   0  0  0  0  0  0  0  0  0  0  0  0
    1.0285   -0.1699    2.1459 O   0  0  0  0  0  0  0  0  0  0  0  0
   -1.0395    0.6588    2.4785 N   0  0  0  0  0  0  0  0  0  0  0  0
   -1.9636    0.7597    2.0849 H   0  0  0  0  0  0  0  0  0  0  0  0
   -0.8222    1.1334    3.8425 C   0  0  0  0  0  0  0  0  0  0  0  0
   -0.0212    1.8761    3.8521 H   0  0  0  0  0  0  0  0  0  0  0  0
   -1.7349    1.5853    4.2320 H   0  0  0  0  0  0  0  0  0  0  0  0
   -0.5312    0.2997    4.4834 H   0  0  0  0  0  0  0  0  0  0  0  0
  5  6  2  0  0  0  0
  5  7  1  0  0  0  0
  2  3  1  0  0  0  0
  2  4  1  0  0  0  0
  2  5  1  0  0  0  0
  1  2  1  0  0  0  0
 22 23  2  0  0  0  0
 22 24  1  0  0  0  0
 20 21  1  0  0  0  0
 19 20  1  0  0  0  0
 17 18  1  0  0  0  0
 17 19  2  0  0  0  0
 15 16  1  0  0  0  0
 15 17  1  0  0  0  0
 14 15  1  0  0  0  0
 14 20  2  0  0  0  0
 11 12  1  0  0  0  0
 11 13  1  0  0  0  0
 11 14  1  0  0  0  0
  9 10  1  0  0  0  0
  9 11  1  0  0  0  0
  9 22  1  0  0  0  0
  7  8  1  0  0  0  0
  7  9  1  0  0  0  0
 26 27  1  0  0  0  0
 26 28  1  0  0  0  0
 26 29  1  0  0  0  0
 24 25  1  0  0  0  0
 24 26  1  0  0  0  0
M  END
$$$$
default_name
  -OEChem-02102213163D

 29 29  0     1  0  0  0  0  0999 V2000
   -3.6042   -3.5728    1.4576 H   0  0  0  0  0  0  0  0  0  0  0  0
   -3.5202   -2.6488    0.8866 C   0  0  0  0  0  0  0  0  0  0  0  0
   -4.2052   -1.9048    1.2896 H   0  0  0  0  0  0  0  0  0  0  0  0
   -3.7552   -2.8428   -0.1584 H   0  0  0  0  0  0  0  0  0  0  0  0
   -2.1052   -2.1358    0.9946 C   0  0  0  0  0  0  0  0  0  0  0  0
   -1.2852   -2.7288    1.6826 O   0  0  0  0  0  0  0  0  0  0  0  0
   -1.8202   -1.0288    0.3146 N   0  0  0  0  0  0  0  0  0  0  0  0
   -2.5542   -0.5788   -0.2104 H   0  0  0  0  0  0  0  0  0  0  0  0
   -0.5102   -0.3728    0.3086 C   0  0  1  0  0  0  0  0  0  0  0  0
    0.2354   -1.0844   -0.0490 H   0  0  0  0  0  0  0  0  0  0  0  0
   -0.5452    0.8158   -0.6698 C   0  0  0  0  0  0  0  0  0  0  0  0
    0.3491    0.7904   -1.2950 H   0  0  0  0  0  0  0  0  0  0  0  0
   -1.4140    0.7137   -1.3226 H   0  0  0  0  0  0  0  0  0  0  0  0
   -0.6150    2.1574    0.0125 C   0  0  0  0  0  0  0  0  0  0  0  0
   -1.2121    3.2957   -0.4853 N   0  0  0  0  0  0  0  0  0  0  0  0
   -1.6144    3.4032   -1.4044 H   0  0  0  0  0  0  0  0  0  0  0  0
   -1.1604    4.2424    0.4668 C   0  0  0  0  0  0  0  0  0  0  0  0
   -1.5446    5.2504    0.3688 H   0  0  0  0  0  0  0  0  0  0  0  0
   -0.5648    3.7616    1.5679 N   0  0  0  0  0  0  0  0  0  0  0  0
   -0.2100    2.4390    1.2900 C   0  0  0  0  0  0  0  0  0  0  0  0
    0.2664    1.7481    1.9734 H   0  0  0  0  0  0  0  0  0  0  0  0
   -0.1073    0.0565    1.7296 C   0  0  0  0  0  0  0  0  0  0  0  0
    1.0285   -0.1699    2.1459 O   0  0  0  0  0  0  0  0  0  0  0  0
   -1.0395    0.6588    2.4785 N   0  0  0  0  0  0  0  0  0  0  0  0
   -1.9636    0.7597    2.0849 H   0  0  0  0  0  0  0  0  0  0  0  0
   -0.8222    1.1334    3.8425 C   0  0  0  0  0  0  0  0  0  0  0  0
   -0.0212    1.8761    3.8521 H   0  0  0  0  0  0  0  0  0  0  0  0
   -1.7349    1.5853    4.2320 H   0  0  0  0  0  0  0  0  0  0  0  0
   -0.5312    0.2997    4.4834 H   0  0  0  0  0  0  0  0  0  0  0  0
  5  6  2  0  0  0  0
  5  7  1  0  0  0  0
  2  3  1  0  0  0  0
  2  4  1  0  0  0  0
  2  5  1  0  0  0  0
  1  2  1  0  0  0  0
 22 23  2  0  0  0  0
 22 24  1  0  0  0  0
 20 21  1  0  0  0  0
 19 20  1  0  0  0  0
 17 18  1  0  0  0  0
 17 19  2  0  0  0  0
 15 16  1  0  0  0  0
 15 17  1  0  0  0  0
 14 15  1  0  0  0  0
 14 20  2  0  0  0  0
 11 12  1  0  0  0  0
 11 13  1  0  0  0  0
 11 14  1  0  0  0  0
  9 10  1  0  0  0  0
  9 11  1  0  0  0  0
  9 22  1  0  0  0  0
  7  8  1  0  0  0  0
  7  9  1  0  0  0  0
 26 27  1  0  0  0  0
 26 28  1  0  0  0  0
 26 29  1  0  0  0  0
 24 25  1  0  0  0  0
 24 26  1  0  0  0  0
M  END
$$$$
default_name
  -OEChem-02102213163D

 29 29  0     1  0  0  0  0  0999 V2000
   -3.6042   -3.5728    1.4576 H   0  0  0  0  0  0  0  0  0  0  0  0
   -3.5202   -2.6488    0.8866 C   0  0  0  0  0  0  0  0  0  0  0  0
   -4.2052   -1.9048    1.2896 H   0  0  0  0  0  0  0  0  0  0  0  0
   -3.7552   -2.8428   -0.1584 H   0  0  0  0  0  0  0  0  0  0  0  0
   -2.1052   -2.1358    0.9946 C   0  0  0  0  0  0  0  0  0  0  0  0
   -1.2852   -2.7288    1.6826 O   0  0  0  0  0  0  0  0  0  0  0  0
   -1.8202   -1.0288    0.3146 N   0  0  0  0  0  0  0  0  0  0  0  0
   -2.5542   -0.5788   -0.2104 H   0  0  0  0  0  0  0  0  0  0  0  0
   -0.5102   -0.3728    0.3086 C   0  0  1  0  0  0  0  0  0  0  0  0
    0.2354   -1.0844   -0.0490 H   0  0  0  0  0  0  0  0  0  0  0  0
   -0.5452    0.8158   -0.6698 C   0  0  0  0  0  0  0  0  0  0  0  0
    0.3491    0.7904   -1.2950 H   0  0  0  0  0  0  0  0  0  0  0  0
   -1.4140    0.7137   -1.3226 H   0  0  0  0  0  0  0  0  0  0  0  0
   -0.6150    2.1574    0.0125 C   0  0  0  0  0  0  0  0  0  0  0  0
   -1.4411    3.2057   -0.3318 N   0  0  0  0  0  0  0  0  0  0  0  0
   -2.0537    3.2422   -1.1328 H   0  0  0  0  0  0  0  0  0  0  0  0
   -1.2848    4.1762    0.5842 C   0  0  0  0  0  0  0  0  0  0  0  0
   -1.7980    5.1301    0.5795 H   0  0  0  0  0  0  0  0  0  0  0  0
   -0.3994    3.7962    1.5169 N   0  0  0  0  0  0  0  0  0  0  0  0
    0.0363    2.5168    1.1622 C   0  0  0  0  0  0  0  0  0  0  0  0
    0.7355    1.9035    1.7159 H   0  0  0  0  0  0  0  0  0  0  0  0
   -0.1073    0.0565    1.7296 C   0  0  0  0  0  0  0  0  0  0  0  0
    1.0285   -0.1699    2.1459 O   0  0  0  0  0  0  0  0  0  0  0  0
   -1.0395    0.6588    2.4785 N   0  0  0  0  0  0  0  0  0  0  0  0
   -1.9636    0.7597    2.0849 H   0  0  0  0  0  0  0  0  0  0  0  0
   -0.8222    1.1334    3.8425 C   0  0  0  0  0  0  0  0  0  0  0  0
   -0.0212    1.8761    3.8521 H   0  0  0  0  0  0  0  0  0  0  0  0
   -1.7349    1.5853    4.2320 H   0  0  0  0  0  0  0  0  0  0  0  0
   -0.5312    0.2997    4.4834 H   0  0  0  0  0  0  0  0  0  0  0  0
  5  6  2  0  0  0  0
  5  7  1  0  0  0  0
  2  3  1  0  0  0  0
  2  4  1  0  0  0  0
  2  5  1  0  0  0  0
  1  2  1  0  0  0  0
 22 23  2  0  0  0  0
 22 24  1  0  0  0  0
 20 21  1  0  0  0  0
 19 20  1  0  0  0  0
 17 18  1  0  0  0  0
 17 19  2  0  0  0  0
 15 16  1  0  0  0  0
 15 17  1  0  0  0  0
 14 15  1  0  0  0  0
 14 20  2  0  0  0  0
 11 12  1  0  0  0  0
 11 13  1  0  0  0  0
 11 14  1  0  0  0  0
  9 10  1  0  0  0  0
  9 11  1  0  0  0  0
  9 22  1  0  0  0  0
  7  8  1  0  0  0  0
  7  9  1  0  0  0  0
 26 27  1  0  0  0  0
 26 28  1  0  0  0  0
 26 29  1  0  0  0  0
 24 25  1  0  0  0  0
 24 26  1  0  0  0  0
M  END
$$$$
default_name
  -OEChem-02102213163D

 29 29  0     1  0  0  0  0  0999 V2000
   -3.6042   -3.5728    1.4576 H   0  0  0  0  0  0  0  0  0  0  0  0
   -3.5202   -2.6488    0.8866 C   0  0  0  0  0  0  0  0  0  0  0  0
   -4.2052   -1.9048    1.2896 H   0  0  0  0  0  0  0  0  0  0  0  0
   -3.7552   -2.8428   -0.1584 H   0  0  0  0  0  0  0  0  0  0  0  0
   -2.1052   -2.1358    0.9946 C   0  0  0  0  0  0  0  0  0  0  0  0
   -1.2852   -2.7288    1.6826 O   0  0  0  0  0  0  0  0  0  0  0  0
   -1.8202   -1.0288    0.3146 N   0  0  0  0  0  0  0  0  0  0  0  0
   -2.5542   -0.5788   -0.2104 H   0  0  0  0  0  0  0  0  0  0  0  0
   -0.5102   -0.3728    0.3086 C   0  0  1  0  0  0  0  0  0  0  0  0
    0.2354   -1.0844   -0.0490 H   0  0  0  0  0  0  0  0  0  0  0  0
   -0.5452    0.8158   -0.6698 C   0  0  0  0  0  0  0  0  0  0  0  0
    0.3491    0.7904   -1.2950 H   0  0  0  0  0  0  0  0  0  0  0  0
   -1.4140    0.7137   -1.3226 H   0  0  0  0  0  0  0  0  0  0  0  0
   -0.6150    2.1574    0.0125 C   0  0  0  0  0  0  0  0  0  0  0  0
   -1.6165    3.0938   -0.1297 N   0  0  0  0  0  0  0  0  0  0  0  0
   -2.3965    3.0385   -0.7674 H   0  0  0  0  0  0  0  0  0  0  0  0
   -1.3701    4.0991    0.7270 C   0  0  0  0  0  0  0  0  0  0  0  0
   -1.9801    4.9867    0.8428 H   0  0  0  0  0  0  0  0  0  0  0  0
   -0.2555    3.8483    1.4292 N   0  0  0  0  0  0  0  0  0  0  0  0
    0.2357    2.6192    0.9811 C   0  0  0  0  0  0  0  0  0  0  0  0
    1.1110    2.1055    1.3571 H   0  0  0  0  0  0  0  0  0  0  0  0
   -0.1073    0.0565    1.7296 C   0  0  0  0  0  0  0  0  0  0  0  0
    1.0285   -0.1699    2.1459 O   0  0  0  0  0  0  0  0  0  0  0  0
   -1.0395    0.6588    2.4785 N   0  0  0  0  0  0  0  0  0  0  0  0
   -1.9636    0.7597    2.0849 H   0  0  0  0  0  0  0  0  0  0  0  0
   -0.8222    1.1334    3.8425 C   0  0  0  0  0  0  0  0  0  0  0  0
   -0.0212    1.8761    3.8521 H   0  0  0  0  0  0  0  0  0  0  0  0
   -1.7349    1.5853    4.2320 H   0  0  0  0  0  0  0  0  0  0  0  0
   -0.5312    0.2997    4.4834 H   0  0  0  0  0  0  0  0  0  0  0  0
  5  6  2  0  0  0  0
  5  7  1  0  0  0  0
  2  3  1  0  0  0  0
  2  4  1  0  0  0  0
  2  5  1  0  0  0  0
  1  2  1  0  0  0  0
 22 23  2  0  0  0  0
 22 24  1  0  0  0  0
 20 21  1  0  0  0  0
 19 20  1  0  0  0  0
 17 18  1  0  0  0  0
 17 19  2  0  0  0  0
 15 16  1  0  0  0  0
 15 17  1  0  0  0  0
 14 15  1  0  0  0  0
 14 20  2  0  0  0  0
 11 12  1  0  0  0  0
 11 13  1  0  0  0  0
 11 14  1  0  0  0  0
  9 10  1  0  0  0  0
  9 11  1  0  0  0  0
  9 22  1  0  0  0  0
  7  8  1  0  0  0  0
  7  9  1  0  0  0  0
 26 27  1  0  0  0  0
 26 28  1  0  0  0  0
 26 29  1  0  0  0  0
 24 25  1  0  0  0  0
 24 26  1  0  0  0  0
M  END
$$$$
default_name
  -OEChem-02102213163D

 29 29  0     1  0  0  0  0  0999 V2000
   -3.6042   -3.5728    1.4576 H   0  0  0  0  0  0  0  0  0  0  0  0
   -3.5202   -2.6488    0.8866 C   0  0  0  0  0  0  0  0  0  0  0  0
   -4.2052   -1.9048    1.2896 H   0  0  0  0  0  0  0  0  0  0  0  0
   -3.7552   -2.8428   -0.1584 H   0  0  0  0  0  0  0  0  0  0  0  0
   -2.1052   -2.1358    0.9946 C   0  0  0  0  0  0  0  0  0  0  0  0
   -1.2852   -2.7288    1.6826 O   0  0  0  0  0  0  0  0  0  0  0  0
   -1.8202   -1.0288    0.3146 N   0  0  0  0  0  0  0  0  0  0  0  0
   -2.5542   -0.5788   -0.2104 H   0  0  0  0  0  0  0  0  0  0  0  0
   -0.5102   -0.3728    0.3086 C   0  0  1  0  0  0  0  0  0  0  0  0
    0.2354   -1.0844   -0.0490 H   0  0  0  0  0  0  0  0  0  0  0  0
   -0.5452    0.8158   -0.6698 C   0  0  0  0  0  0  0  0  0  0  0  0
    0.3491    0.7904   -1.2950 H   0  0  0  0  0  0  0  0  0  0  0  0
   -1.4140    0.7137   -1.3226 H   0  0  0  0  0  0  0  0  0  0  0  0
   -0.6150    2.1574    0.0125 C   0  0  0  0  0  0  0  0  0  0  0  0
   -1.7262    2.9676    0.1073 N   0  0  0  0  0  0  0  0  0  0  0  0
   -2.6196    2.8059   -0.3329 H   0  0  0  0  0  0  0  0  0  0  0  0
   -1.4105    4.0164    0.8856 C   0  0  0  0  0  0  0  0  0  0  0  0
   -2.0785    4.8300    1.1408 H   0  0  0  0  0  0  0  0  0  0  0  0
   -0.1428    3.9144    1.3107 N   0  0  0  0  0  0  0  0  0  0  0  0
    0.3746    2.7394    0.7591 C   0  0  0  0  0  0  0  0  0  0  0  0
    1.3674    2.3403    0.9216 H   0  0  0  0  0  0  0  0  0  0  0  0
   -0.1073    0.0565    1.7296 C   0  0  0  0  0  0  0  0  0  0  0  0
    1.0285   -0.1699    2.1459 O   0  0  0  0  0  0  0  0  0  0  0  0
   -1.0395    0.6588    2.4785 N   0  0  0  0  0  0  0  0  0  0  0  0
   -1.9636    0.7597    2.0849 H   0  0  0  0  0  0  0  0  0  0  0  0
   -0.8222    1.1334    3.8425 C   0  0  0  0  0  0  0  0  0  0  0  0
   -0.0212    1.8761    3.8521 H   0  0  0  0  0  0  0  0  0  0  0  0
   -1.7349    1.5853    4.2320 H   0  0  0  0  0  0  0  0  0  0  0  0
   -0.5312    0.2997    4.4834 H   0  0  0  0  0  0  0  0  0  0  0  0
  5  6  2  0  0  0  0
  5  7  1  0  0  0  0
  2  3  1  0  0  0  0
  2  4  1  0  0  0  0
  2  5  1  0  0  0  0
  1  2  1  0  0  0  0
 22 23  2  0  0  0  0
 22 24  1  0  0  0  0
 20 21  1  0  0  0  0
 19 20  1  0  0  0  0
 17 18  1  0  0  0  0
 17 19  2  0  0  0  0
 15 16  1  0  0  0  0
 15 17  1  0  0  0  0
 14 15  1  0  0  0  0
 14 20  2  0  0  0  0
 11 12  1  0  0  0  0
 11 13  1  0  0  0  0
 11 14  1  0  0  0  0
  9 10  1  0  0  0  0
  9 11  1  0  0  0  0
  9 22  1  0  0  0  0
  7  8  1  0  0  0  0
  7  9  1  0  0  0  0
 26 27  1  0  0  0  0
 26 28  1  0  0  0  0
 26 29  1  0  0  0  0
 24 25  1  0  0  0  0
 24 26  1  0  0  0  0
M  END
$$$$
default_name
  -OEChem-02102213163D

 29 29  0     1  0  0  0  0  0999 V2000
   -3.6042   -3.5728    1.4576 H   0  0  0  0  0  0  0  0  0  0  0  0
   -3.5202   -2.6488    0.8866 C   0  0  0  0  0  0  0  0  0  0  0  0
   -4.2052   -1.9048    1.2896 H   0  0  0  0  0  0  0  0  0  0  0  0
   -3.7552   -2.8428   -0.1584 H   0  0  0  0  0  0  0  0  0  0  0  0
   -2.1052   -2.1358    0.9946 C   0  0  0  0  0  0  0  0  0  0  0  0
   -1.2852   -2.7288    1.6826 O   0  0  0  0  0  0  0  0  0  0  0  0
   -1.8202   -1.0288    0.3146 N   0  0  0  0  0  0  0  0  0  0  0  0
   -2.5542   -0.5788   -0.2104 H   0  0  0  0  0  0  0  0  0  0  0  0
   -0.5102   -0.3728    0.3086 C   0  0  1  0  0  0  0  0  0  0  0  0
    0.2354   -1.0844   -0.0490 H   0  0  0  0  0  0  0  0  0  0  0  0
   -0.5452    0.8158   -0.6698 C   0  0  0  0  0  0  0  0  0  0  0  0
    0.3491    0.7904   -1.2950 H   0  0  0  0  0  0  0  0  0  0  0  0
   -1.4140    0.7137   -1.3226 H   0  0  0  0  0  0  0  0  0  0  0  0
   -0.6150    2.1574    0.0125 C   0  0  0  0  0  0  0  0  0  0  0  0
   -1.7627    2.8356    0.3630 N   0  0  0  0  0  0  0  0  0  0  0  0
   -2.7077    2.5603    0.1410 H   0  0  0  0  0  0  0  0  0  0  0  0
   -1.4034    3.9336    1.0491 C   0  0  0  0  0  0  0  0  0  0  0  0
   -2.0865    4.6707    1.4532 H   0  0  0  0  0  0  0  0  0  0  0  0
   -0.0690    3.9901    1.1694 N   0  0  0  0  0  0  0  0  0  0  0  0
    0.4434    2.8691    0.5111 C   0  0  0  0  0  0  0  0  0  0  0  0
    1.4871    2.5919    0.4390 H   0  0  0  0  0  0  0  0  0  0  0  0
   -0.1073    0.0565    1.7296 C   0  0  0  0  0  0  0  0  0  0  0  0
    1.0285   -0.1699    2.1459 O   0  0  0  0  0  0  0  0  0  0  0  0
   -1.0395    0.6588    2.4785 N   0  0  0  0  0  0  0  0  0  0  0  0
   -1.9636    0.7597    2.0849 H   0  0  0  0  0  0  0  0  0  0  0  0
   -0.8222    1.1334    3.8425 C   0  0  0  0  0  0  0  0  0  0  0  0
   -0.0212    1.8761    3.8521 H   0  0  0  0  0  0  0  0  0  0  0  0
   -1.7349    1.5853    4.2320 H   0  0  0  0  0  0  0  0  0  0  0  0
   -0.5312    0.2997    4.4834 H   0  0  0  0  0  0  0  0  0  0  0  0
  5  6  2  0  0  0  0
  5  7  1  0  0  0  0
  2  3  1  0  0  0  0
  2  4  1  0  0  0  0
  2  5  1  0  0  0  0
  1  2  1  0  0  0  0
 22 23  2  0  0  0  0
 22 24  1  0  0  0  0
 20 21  1  0  0  0  0
 19 20  1  0  0  0  0
 17 18  1  0  0  0  0
 17 19  2  0  0  0  0
 15 16  1  0  0  0  0
 15 17  1  0  0  0  0
 14 15  1  0  0  0  0
 14 20  2  0  0  0  0
 11 12  1  0  0  0  0
 11 13  1  0  0  0  0
 11 14  1  0  0  0  0
  9 10  1  0  0  0  0
  9 11  1  0  0  0  0
  9 22  1  0  0  0  0
  7  8  1  0  0  0  0
  7  9  1  0  0  0  0
 26 27  1  0  0  0  0
 26 28  1  0  0  0  0
 26 29  1  0  0  0  0
 24 25  1  0  0  0  0
 24 26  1  0  0  0  0
M  END
$$$$
default_name
  -OEChem-02102213163D

 29 29  0     1  0  0  0  0  0999 V2000
   -3.6042   -3.5728    1.4576 H   0  0  0  0  0  0  0  0  0  0  0  0
   -3.5202   -2.6488    0.8866 C   0  0  0  0  0  0  0  0  0  0  0  0
   -4.2052   -1.9048    1.2896 H   0  0  0  0  0  0  0  0  0  0  0  0
   -3.7552   -2.8428   -0.1584 H   0  0  0  0  0  0  0  0  0  0  0  0
   -2.1052   -2.1358    0.9946 C   0  0  0  0  0  0  0  0  0  0  0  0
   -1.2852   -2.7288    1.6826 O   0  0  0  0  0  0  0  0  0  0  0  0
   -1.8202   -1.0288    0.3146 N   0  0  0  0  0  0  0  0  0  0  0  0
   -2.5542   -0.5788   -0.2104 H   0  0  0  0  0  0  0  0  0  0  0  0
   -0.5102   -0.3728    0.3086 C   0  0  1  0  0  0  0  0  0  0  0  0
    0.2354   -1.0844   -0.0490 H   0  0  0  0  0  0  0  0  0  0  0  0
   -0.5452    0.8158   -0.6698 C   0  0  0  0  0  0  0  0  0  0  0  0
    0.3491    0.7904   -1.2950 H   0  0  0  0  0  0  0  0  0  0  0  0
   -1.4140    0.7137   -1.3226 H   0  0  0  0  0  0  0  0  0  0  0  0
   -0.6150    2.1574    0.0125 C   0  0  0  0  0  0  0  0  0  0  0  0
   -1.7236    2.7070    0.6200 N   0  0  0  0  0  0  0  0  0  0  0  0
   -2.6548    2.3184    0.6220 H   0  0  0  0  0  0  0  0  0  0  0  0
   -1.3491    3.8564    1.2064 C   0  0  0  0  0  0  0  0  0  0  0  0
   -2.0035    4.5196    1.7587 H   0  0  0  0  0  0  0  0  0  0  0  0
   -0.0391    4.0701    1.0151 N   0  0  0  0  0  0  0  0  0  0  0  0
    0.4375    2.9995    0.2542 C   0  0  0  0  0  0  0  0  0  0  0  0
    1.4621    2.8433   -0.0577 H   0  0  0  0  0  0  0  0  0  0  0  0
   -0.1073    0.0565    1.7296 C   0  0  0  0  0  0  0  0  0  0  0  0
    1.0285   -0.1699    2.1459 O   0  0  0  0  0  0  0  0  0  0  0  0
   -1.0395    0.6588    2.4785 N   0  0  0  0  0  0  0  0  0  0  0  0
   -1.9636    0.7597    2.0849 H   0  0  0  0  0  0  0  0  0  0  0  0
   -0.8222    1.1334    3.8425 C   0  0  0  0  0  0  0  0  0  0  0  0
   -0.0212    1.8761    3.8521 H   0  0  0  0  0  0  0  0  0  0  0  0
   -1.7349    1.5853    4.2320 H   0  0  0  0  0  0  0  0  0  0  0  0
   -0.5312    0.2997    4.4834 H   0  0  0  0  0  0  0  0  0  0  0  0
  5  6  2  0  0  0  0
  5  7  1  0  0  0  0
  2  3  1  0  0  0  0
  2  4  1  0  0  0  0
  2  5  1  0  0  0  0
  1  2  1  0  0  0  0
 22 23  2  0  0  0  0
 22 24  1  0  0  0  0
 20 21  1  0  0  0  0
 19 20  1  0  0  0  0
 17 18  1  0  0  0  0
 17 19  2  0  0  0  0
 15 16  1  0  0  0  0
 15 17  1  0  0  0  0
 14 15  1  0  0  0  0
 14 20  2  0  0  0  0
 11 12  1  0  0  0  0
 11 13  1  0  0  0  0
 11 14  1  0  0  0  0
  9 10  1  0  0  0  0
  9 11  1  0  0  0  0
  9 22  1  0  0  0  0
  7  8  1  0  0  0  0
  7  9  1  0  0  0  0
 26 27  1  0  0  0  0
 26 28  1  0  0  0  0
 26 29  1  0  0  0  0
 24 25  1  0  0  0  0
 24 26  1  0  0  0  0
M  END
$$$$
default_name
  -OEChem-02102213163D

 29 29  0     1  0  0  0  0  0999 V2000
   -3.6042   -3.5728    1.4576 H   0  0  0  0  0  0  0  0  0  0  0  0
   -3.5202   -2.6488    0.8866 C   0  0  0  0  0  0  0  0  0  0  0  0
   -4.2052   -1.9048    1.2896 H   0  0  0  0  0  0  0  0  0  0  0  0
   -3.7552   -2.8428   -0.1584 H   0  0  0  0  0  0  0  0  0  0  0  0
   -2.1052   -2.1358    0.9946 C   0  0  0  0  0  0  0  0  0  0  0  0
   -1.2852   -2.7288    1.6826 O   0  0  0  0  0  0  0  0  0  0  0  0
   -1.8202   -1.0288    0.3146 N   0  0  0  0  0  0  0  0  0  0  0  0
   -2.5542   -0.5788   -0.2104 H   0  0  0  0  0  0  0  0  0  0  0  0
   -0.5102   -0.3728    0.3086 C   0  0  1  0  0  0  0  0  0  0  0  0
    0.2354   -1.0844   -0.0490 H   0  0  0  0  0  0  0  0  0  0  0  0
   -0.5452    0.8158   -0.6698 C   0  0  0  0  0  0  0  0  0  0  0  0
    0.3491    0.7904   -1.2950 H   0  0  0  0  0  0  0  0  0  0  0  0
   -1.4140    0.7137   -1.3226 H   0  0  0  0  0  0  0  0  0  0  0  0
   -0.6150    2.1574    0.0125 C   0  0  0  0  0  0  0  0  0  0  0  0
   -1.6115    2.5903    0.8608 N   0  0  0  0  0  0  0  0  0  0  0  0
   -2.4645    2.0968    1.0773 H   0  0  0  0  0  0  0  0  0  0  0  0
   -1.2513    3.7901    1.3467 C   0  0  0  0  0  0  0  0  0  0  0  0
   -1.8353    4.3871    2.0365 H   0  0  0  0  0  0  0  0  0  0  0  0
   -0.0552    4.1491    0.8581 N   0  0  0  0  0  0  0  0  0  0  0  0
    0.3574    3.1216    0.0058 C   0  0  0  0  0  0  0  0  0  0  0  0
    1.2940    3.0771   -0.5348 H   0  0  0  0  0  0  0  0  0  0  0  0
   -0.1073    0.0565    1.7296 C   0  0  0  0  0  0  0  0  0  0  0  0
    1.0285   -0.1699    2.1459 O   0  0  0  0  0  0  0  0  0  0  0  0
   -1.0395    0.6588    2.4785 N   0  0  0  0  0  0  0  0  0  0  0  0
   -1.9636    0.7597    2.0849 H   0  0  0  0  0  0  0  0  0  0  0  0
   -0.8222    1.1334    3.8425 C   0  0  0  0  0  0  0  0  0  0  0  0
   -0.0212    1.8761    3.8521 H   0  0  0  0  0  0  0  0  0  0  0  0
   -1.7349    1.5853    4.2320 H   0  0  0  0  0  0  0  0  0  0  0  0
   -0.5312    0.2997    4.4834 H   0  0  0  0  0  0  0  0  0  0  0  0
  5  6  2  0  0  0  0
  5  7  1  0  0  0  0
  2  3  1  0  0  0  0
  2  4  1  0  0  0  0
  2  5  1  0  0  0  0
  1  2  1  0  0  0  0
 22 23  2  0  0  0  0
 22 24  1  0  0  0  0
 20 21  1  0  0  0  0
 19 20  1  0  0  0  0
 17 18  1  0  0  0  0
 17 19  2  0  0  0  0
 15 16  1  0  0  0  0
 15 17  1  0  0  0  0
 14 15  1  0  0  0  0
 14 20  2  0  0  0  0
 11 12  1  0  0  0  0
 11 13  1  0  0  0  0
 11 14  1  0  0  0  0
  9 10  1  0  0  0  0
  9 11  1  0  0  0  0
  9 22  1  0  0  0  0
  7  8  1  0  0  0  0
  7  9  1  0  0  0  0
 26 27  1  0  0  0  0
 26 28  1  0  0  0  0
 26 29  1  0  0  0  0
 24 25  1  0  0  0  0
 24 26  1  0  0  0  0
M  END
$$$$
default_name
  -OEChem-02102213163D

 29 29  0     1  0  0  0  0  0999 V2000
   -3.6042   -3.5728    1.4576 H   0  0  0  0  0  0  0  0  0  0  0  0
   -3.5202   -2.6488    0.8866 C   0  0  0  0  0  0  0  0  0  0  0  0
   -4.2052   -1.9048    1.2896 H   0  0  0  0  0  0  0  0  0  0  0  0
   -3.7552   -2.8428   -0.1584 H   0  0  0  0  0  0  0  0  0  0  0  0
   -2.1052   -2.1358    0.9946 C   0  0  0  0  0  0  0  0  0  0  0  0
   -1.2852   -2.7288    1.6826 O   0  0  0  0  0  0  0  0  0  0  0  0
   -1.8202   -1.0288    0.3146 N   0  0  0  0  0  0  0  0  0  0  0  0
   -2.5542   -0.5788   -0.2104 H   0  0  0  0  0  0  0  0  0  0  0  0
   -0.5102   -0.3728    0.3086 C   0  0  1  0  0  0  0  0  0  0  0  0
    0.2354   -1.0844   -0.0490 H   0  0  0  0  0  0  0  0  0  0  0  0
   -0.5452    0.8158   -0.6698 C   0  0  0  0  0  0  0  0  0  0  0  0
    0.3491    0.7904   -1.2950 H   0  0  0  0  0  0  0  0  0  0  0  0
   -1.4140    0.7137   -1.3226 H   0  0  0  0  0  0  0  0  0  0  0  0
   -0.6150    2.1574    0.0125 C   0  0  0  0  0  0  0  0  0  0  0  0
   -1.4341    2.4937    1.0689 N   0  0  0  0  0  0  0  0  0  0  0  0
   -2.1498    1.9105    1.4759 H   0  0  0  0  0  0  0  0  0  0  0  0
   -1.1168    3.7393    1.4605 C   0  0  0  0  0  0  0  0  0  0  0  0
   -1.5933    4.2821    2.2677 H   0  0  0  0  0  0  0  0  0  0  0  0
   -0.1162    4.2216    0.7093 N   0  0  0  0  0  0  0  0  0  0  0  0
    0.2085    3.2272   -0.2171 C   0  0  0  0  0  0  0  0  0  0  0  0
    0.9943    3.2776   -0.9597 H   0  0  0  0  0  0  0  0  0  0  0  0
   -0.1073    0.0565    1.7296 C   0  0  0  0  0  0  0  0  0  0  0  0
    1.0285   -0.1699    2.1459 O   0  0  0  0  0  0  0  0  0  0  0  0
   -1.0395    0.6588    2.4785 N   0  0  0  0  0  0  0  0  0  0  0  0
   -1.9636    0.7597    2.0849 H   0  0  0  0  0  0  0  0  0  0  0  0
   -0.8222    1.1334    3.8425 C   0  0  0  0  0  0  0  0  0  0  0  0
   -0.0212    1.8761    3.8521 H   0  0  0  0  0  0  0  0  0  0  0  0
   -1.7349    1.5853    4.2320 H   0  0  0  0  0  0  0  0  0  0  0  0
   -0.5312    0.2997    4.4834 H   0  0  0  0  0  0  0  0  0  0  0  0
  5  6  2  0  0  0  0
  5  7  1  0  0  0  0
  2  3  1  0  0  0  0
  2  4  1  0  0  0  0
  2  5  1  0  0  0  0
  1  2  1  0  0  0  0
 22 23  2  0  0  0  0
 22 24  1  0  0  0  0
 20 21  1  0  0  0  0
 19 20  1  0  0  0  0
 17 18  1  0  0  0  0
 17 19  2  0  0  0  0
 15 16  1  0  0  0  0
 15 17  1  0  0  0  0
 14 15  1  0  0  0  0
 14 20  2  0  0  0  0
 11 12  1  0  0  0  0
 11 13  1  0  0  0  0
 11 14  1  0  0  0  0
  9 10  1  0  0  0  0
  9 11  1  0  0  0  0
  9 22  1  0  0  0  0
  7  8  1  0  0  0  0
  7  9  1  0  0  0  0
 26 27  1  0  0  0  0
 26 28  1  0  0  0  0
 26 29  1  0  0  0  0
 24 25  1  0  0  0  0
 24 26  1  0  0  0  0
M  END
$$$$
default_name
  -OEChem-02102213163D

 29 29  0     1  0  0  0  0  0999 V2000
   -3.6042   -3.5728    1.4576 H   0  0  0  0  0  0  0  0  0  0  0  0
   -3.5202   -2.6488    0.8866 C   0  0  0  0  0  0  0  0  0  0  0  0
   -4.2052   -1.9048    1.2896 H   0  0  0  0  0  0  0  0  0  0  0  0
   -3.7552   -2.8428   -0.1584 H   0  0  0  0  0  0  0  0  0  0  0  0
   -2.1052   -2.1358    0.9946 C   0  0  0  0  0  0  0  0  0  0  0  0
   -1.2852   -2.7288    1.6826 O   0  0  0  0  0  0  0  0  0  0  0  0
   -1.8202   -1.0288    0.3146 N   0  0  0  0  0  0  0  0  0  0  0  0
   -2.5542   -0.5788   -0.2104 H   0  0  0  0  0  0  0  0  0  0  0  0
   -0.5102   -0.3728    0.3086 C   0  0  1  0  0  0  0  0  0  0  0  0
    0.2354   -1.0844   -0.0490 H   0  0  0  0  0  0  0  0  0  0  0  0
   -0.5452    0.8158   -0.6698 C   0  0  0  0  0  0  0  0  0  0  0  0
    0.3491    0.7904   -1.2950 H   0  0  0  0  0  0  0  0  0  0  0  0
   -1.4140    0.7137   -1.3226 H   0  0  0  0  0  0  0  0  0  0  0  0
   -0.6150    2.1574    0.0125 C   0  0  0  0  0  0  0  0  0  0  0  0
   -1.2034    2.4237    1.2302 N   0  0  0  0  0  0  0  0  0  0  0  0
   -1.7321    1.7721    1.7907 H   0  0  0  0  0  0  0  0  0  0  0  0
   -0.9547    3.7072    1.5401 C   0  0  0  0  0  0  0  0  0  0  0  0
   -1.2939    4.2119    2.4365 H   0  0  0  0  0  0  0  0  0  0  0  0
   -0.2179    4.2827    0.5787 N   0  0  0  0  0  0  0  0  0  0  0  0
    0.0008    3.3091   -0.3994 C   0  0  0  0  0  0  0  0  0  0  0  0
    0.5834    3.4310   -1.3034 H   0  0  0  0  0  0  0  0  0  0  0  0
   -0.1073    0.0565    1.7296 C   0  0  0  0  0  0  0  0  0  0  0  0
    1.0285   -0.1699    2.1459 O   0  0  0  0  0  0  0  0  0  0  0  0
   -1.0395    0.6588    2.4785 N   0  0  0  0  0  0  0  0  0  0  0  0
   -1.9636    0.7597    2.0849 H   0  0  0  0  0  0  0  0  0  0  0  0
   -0.8222    1.1334    3.8425 C   0  0  0  0  0  0  0  0  0  0  0  0
   -0.0212    1.8761    3.8521 H   0  0  0  0  0  0  0  0  0  0  0  0
   -1.7349    1.5853    4.2320 H   0  0  0  0  0  0  0  0  0  0  0  0
   -0.5312    0.2997    4.4834 H   0  0  0  0  0  0  0  0  0  0  0  0
  5  6  2  0  0  0  0
  5  7  1  0  0  0  0
  2  3  1  0  0  0  0
  2  4  1  0  0  0  0
  2  5  1  0  0  0  0
  1  2  1  0  0  0  0
 22 23  2  0  0  0  0
 22 24  1  0  0  0  0
 20 21  1  0  0  0  0
 19 20  1  0  0  0  0
 17 18  1  0  0  0  0
 17 19  2  0  0  0  0
 15 16  1  0  0  0  0
 15 17  1  0  0  0  0
 14 15  1  0  0  0  0
 14 20  2  0  0  0  0
 11 12  1  0  0  0  0
 11 13  1  0  0  0  0
 11 14  1  0  0  0  0
  9 10  1  0  0  0  0
  9 11  1  0  0  0  0
  9 22  1  0  0  0  0
  7  8  1  0  0  0  0
  7  9  1  0  0  0  0
 26 27  1  0  0  0  0
 26 28  1  0  0  0  0
 26 29  1  0  0  0  0
 24 25  1  0  0  0  0
 24 26  1  0  0  0  0
M  END
$$$$
default_name
  -OEChem-02102213163D

 29 29  0     1  0  0  0  0  0999 V2000
   -3.6042   -3.5728    1.4576 H   0  0  0  0  0  0  0  0  0  0  0  0
   -3.5202   -2.6488    0.8866 C   0  0  0  0  0  0  0  0  0  0  0  0
   -4.2052   -1.9048    1.2896 H   0  0  0  0  0  0  0  0  0  0  0  0
   -3.7552   -2.8428   -0.1584 H   0  0  0  0  0  0  0  0  0  0  0  0
   -2.1052   -2.1358    0.9946 C   0  0  0  0  0  0  0  0  0  0  0  0
   -1.2852   -2.7288    1.6826 O   0  0  0  0  0  0  0  0  0  0  0  0
   -1.8202   -1.0288    0.3146 N   0  0  0  0  0  0  0  0  0  0  0  0
   -2.5542   -0.5788   -0.2104 H   0  0  0  0  0  0  0  0  0  0  0  0
   -0.5102   -0.3728    0.3086 C   0  0  1  0  0  0  0  0  0  0  0  0
    0.2354   -1.0844   -0.0490 H   0  0  0  0  0  0  0  0  0  0  0  0
   -0.5452    0.8158   -0.6698 C   0  0  0  0  0  0  0  0  0  0  0  0
    0.3491    0.7904   -1.2950 H   0  0  0  0  0  0  0  0  0  0  0  0
   -1.4140    0.7137   -1.3226 H   0  0  0  0  0  0  0  0  0  0  0  0
   -0.6150    2.1574    0.0125 C   0  0  0  0  0  0  0  0  0  0  0  0
   -0.9352    2.3850    1.3337 N   0  0  0  0  0  0  0  0  0  0  0  0
   -1.2399    1.6913    2.0001 H   0  0  0  0  0  0  0  0  0  0  0  0
   -0.7760    3.6963    1.5799 C   0  0  0  0  0  0  0  0  0  0  0  0
   -0.9576    4.1811    2.5313 H   0  0  0  0  0  0  0  0  0  0  0  0
   -0.3534    4.3283    0.4753 N   0  0  0  0  0  0  0  0  0  0  0  0
   -0.2513    3.3617   -0.5286 C   0  0  0  0  0  0  0  0  0  0  0  0
    0.0893    3.5270   -1.5425 H   0  0  0  0  0  0  0  0  0  0  0  0
   -0.1073    0.0565    1.7296 C   0  0  0  0  0  0  0  0  0  0  0  0
    1.0285   -0.1699    2.1459 O   0  0  0  0  0  0  0  0  0  0  0  0
   -1.0395    0.6588    2.4785 N   0  0  0  0  0  0  0  0  0  0  0  0
   -1.9636    0.7597    2.0849 H   0  0  0  0  0  0  0  0  0  0  0  0
   -0.8222    1.1334    3.8425 C   0  0  0  0  0  0  0  0  0  0  0  0
   -0.0212    1.8761    3.8521 H   0  0  0  0  0  0  0  0  0  0  0  0
   -1.7349    1.5853    4.2320 H   0  0  0  0  0  0  0  0  0  0  0  0
   -0.5312    0.2997    4.4834 H   0  0  0  0  0  0  0  0  0  0  0  0
  5  6  2  0  0  0  0
  5  7  1  0  0  0  0
  2  3  1  0  0  0  0
  2  4  1  0  0  0  0
  2  5  1  0  0  0  0
  1  2  1  0  0  0  0
 22 23  2  0  0  0  0
 22 24  1  0  0  0  0
 20 21  1  0  0  0  0
 19 20  1  0  0  0  0
 17 18  1  0  0  0  0
 17 19  2  0  0  0  0
 15 16  1  0  0  0  0
 15 17  1  0  0  0  0
 14 15  1  0  0  0  0
 14 20  2  0  0  0  0
 11 12  1  0  0  0  0
 11 13  1  0  0  0  0
 11 14  1  0  0  0  0
  9 10  1  0  0  0  0
  9 11  1  0  0  0  0
  9 22  1  0  0  0  0
  7  8  1  0  0  0  0
  7  9  1  0  0  0  0
 26 27  1  0  0  0  0
 26 28  1  0  0  0  0
 26 29  1  0  0  0  0
 24 25  1  0  0  0  0
 24 26  1  0  0  0  0
M  END
$$$$
default_name
  -OEChem-02102213163D

 29 29  0     1  0  0  0  0  0999 V2000
   -3.6042   -3.5728    1.4576 H   0  0  0  0  0  0  0  0  0  0  0  0
   -3.5202   -2.6488    0.8866 C   0  0  0  0  0  0  0  0  0  0  0  0
   -4.2052   -1.9048    1.2896 H   0  0  0  0  0  0  0  0  0  0  0  0
   -3.7552   -2.8428   -0.1584 H   0  0  0  0  0  0  0  0  0  0  0  0
   -2.1052   -2.1358    0.9946 C   0  0  0  0  0  0  0  0  0  0  0  0
   -1.2852   -2.7288    1.6826 O   0  0  0  0  0  0  0  0  0  0  0  0
   -1.8202   -1.0288    0.3146 N   0  0  0  0  0  0  0  0  0  0  0  0
   -2.5542   -0.5788   -0.2104 H   0  0  0  0  0  0  0  0  0  0  0  0
   -0.5102   -0.3728    0.3086 C   0  0  1  0  0  0  0  0  0  0  0  0
    0.2354   -1.0844   -0.0490 H   0  0  0  0  0  0  0  0  0  0  0  0
   -0.5452    0.8158   -0.6698 C   0  0  0  0  0  0  0  0  0  0  0  0
    0.3491    0.7904   -1.2950 H   0  0  0  0  0  0  0  0  0  0  0  0
   -1.4140    0.7137   -1.3226 H   0  0  0  0  0  0  0  0  0  0  0  0
   -0.6150    2.1574    0.0125 C   0  0  0  0  0  0  0  0  0  0  0  0
   -0.6478    2.3803    1.3724 N   0  0  0  0  0  0  0  0  0  0  0  0
   -0.7068    1.6733    2.0899 H   0  0  0  0  0  0  0  0  0  0  0  0
   -0.5930    3.7071    1.5774 C   0  0  0  0  0  0  0  0  0  0  0  0
   -0.6073    4.1920    2.5458 H   0  0  0  0  0  0  0  0  0  0  0  0
   -0.5134    4.3552    0.4061 N   0  0  0  0  0  0  0  0  0  0  0  0
   -0.5308    3.3814   -0.5959 C   0  0  0  0  0  0  0  0  0  0  0  0
   -0.4543    3.5588   -1.6608 H   0  0  0  0  0  0  0  0  0  0  0  0
   -0.1073    0.0565    1.7296 C   0  0  0  0  0  0  0  0  0  0  0  0
    1.0285   -0.1699    2.1459 O   0  0  0  0  0  0  0  0  0  0  0  0
   -1.0395    0.6588    2.4785 N   0  0  0  0  0  0  0  0  0  0  0  0
   -1.9636    0.7597    2.0849 H   0  0  0  0  0  0  0  0  0  0  0  0
   -0.8222    1.1334    3.8425 C   0  0  0  0  0  0  0  0  0  0  0  0
   -0.0212    1.8761    3.8521 H   0  0  0  0  0  0  0  0  0  0  0  0
   -1.7349    1.5853    4.2320 H   0  0  0  0  0  0  0  0  0  0  0  0
   -0.5312    0.2997    4.4834 H   0  0  0  0  0  0  0  0  0  0  0  0
  5  6  2  0  0  0  0
  5  7  1  0  0  0  0
  2  3  1  0  0  0  0
  2  4  1  0  0  0  0
  2  5  1  0  0  0  0
  1  2  1  0  0  0  0
 22 23  2  0  0  0  0
 22 24  1  0  0  0  0
 20 21  1  0  0  0  0
 19 20  1  0  0  0  0
 17 18  1  0  0  0  0
 17 19  2  0  0  0  0
 15 16  1  0  0  0  0
 15 17  1  0  0  0  0
 14 15  1  0  0  0  0
 14 20  2  0  0  0  0
 11 12  1  0  0  0  0
 11 13  1  0  0  0  0
 11 14  1  0  0  0  0
  9 10  1  0  0  0  0
  9 11  1  0  0  0  0
  9 22  1  0  0  0  0
  7  8  1  0  0  0  0
  7  9  1  0  0  0  0
 26 27  1  0  0  0  0
 26 28  1  0  0  0  0
 26 29  1  0  0  0  0
 24 25  1  0  0  0  0
 24 26  1  0  0  0  0
M  END
$$$$
default_name
  -OEChem-02102213163D

 29 29  0     1  0  0  0  0  0999 V2000
   -3.6042   -3.5728    1.4576 H   0  0  0  0  0  0  0  0  0  0  0  0
   -3.5202   -2.6488    0.8866 C   0  0  0  0  0  0  0  0  0  0  0  0
   -4.2052   -1.9048    1.2896 H   0  0  0  0  0  0  0  0  0  0  0  0
   -3.7552   -2.8428   -0.1584 H   0  0  0  0  0  0  0  0  0  0  0  0
   -2.1052   -2.1358    0.9946 C   0  0  0  0  0  0  0  0  0  0  0  0
   -1.2852   -2.7288    1.6826 O   0  0  0  0  0  0  0  0  0  0  0  0
   -1.8202   -1.0288    0.3146 N   0  0  0  0  0  0  0  0  0  0  0  0
   -2.5542   -0.5788   -0.2104 H   0  0  0  0  0  0  0  0  0  0  0  0
   -0.5102   -0.3728    0.3086 C   0  0  1  0  0  0  0  0  0  0  0  0
    0.2354   -1.0844   -0.0490 H   0  0  0  0  0  0  0  0  0  0  0  0
   -0.5452    0.8158   -0.6698 C   0  0  0  0  0  0  0  0  0  0  0  0
    0.3491    0.7904   -1.2950 H   0  0  0  0  0  0  0  0  0  0  0  0
   -1.4140    0.7137   -1.3226 H   0  0  0  0  0  0  0  0  0  0  0  0
   -0.6150    2.1574    0.0125 C   0  0  0  0  0  0  0  0  0  0  0  0
   -0.3607    2.4099    1.3435 N   0  0  0  0  0  0  0  0  0  0  0  0
   -0.1690    1.7196    2.0540 H   0  0  0  0  0  0  0  0  0  0  0  0
   -0.4180    3.7390    1.5326 C   0  0  0  0  0  0  0  0  0  0  0  0
   -0.2669    4.2437    2.4790 H   0  0  0  0  0  0  0  0  0  0  0  0
   -0.6871    4.3615    0.3758 N   0  0  0  0  0  0  0  0  0  0  0  0
   -0.8186    3.3668   -0.5967 C   0  0  0  0  0  0  0  0  0  0  0  0
   -1.0104    3.5245   -1.6502 H   0  0  0  0  0  0  0  0  0  0  0  0
   -0.1073    0.0565    1.7296 C   0  0  0  0  0  0  0  0  0  0  0  0
    1.0285   -0.1699    2.1459 O   0  0  0  0  0  0  0  0  0  0  0  0
   -1.0395    0.6588    2.4785 N   0  0  0  0  0  0  0  0  0  0  0  0
   -1.9636    0.7597    2.0849 H   0  0  0  0  0  0  0  0  0  0  0  0
   -0.8222    1.1334    3.8425 C   0  0  0  0  0  0  0  0  0  0  0  0
   -0.0212    1.8761    3.8521 H   0  0  0  0  0  0  0  0  0  0  0  0
   -1.7349    1.5853    4.2320 H   0  0  0  0  0  0  0  0  0  0  0  0
   -0.5312    0.2997    4.4834 H   0  0  0  0  0  0  0  0  0  0  0  0
  5  6  2  0  0  0  0
  5  7  1  0  0  0  0
  2  3  1  0  0  0  0
  2  4  1  0  0  0  0
  2  5  1  0  0  0  0
  1  2  1  0  0  0  0
 22 23  2  0  0  0  0
 22 24  1  0  0  0  0
 20 21  1  0  0  0  0
 19 20  1  0  0  0  0
 17 18  1  0  0  0  0
 17 19  2  0  0  0  0
 15 16  1  0  0  0  0
 15 17  1  0  0  0  0
 14 15  1  0  0  0  0
 14 20  2  0  0  0  0
 11 12  1  0  0  0  0
 11 13  1  0  0  0  0
 11 14  1  0  0  0  0
  9 10  1  0  0  0  0
  9 11  1  0  0  0  0
  9 22  1  0  0  0  0
  7  8  1  0  0  0  0
  7  9  1  0  0  0  0
 26 27  1  0  0  0  0
 26 28  1  0  0  0  0
 26 29  1  0  0  0  0
 24 25  1  0  0  0  0
 24 26  1  0  0  0  0
M  END
$$$$
default_name
  -OEChem-02102213163D

 29 29  0     1  0  0  0  0  0999 V2000
   -3.6042   -3.5728    1.4576 H   0  0  0  0  0  0  0  0  0  0  0  0
   -3.5202   -2.6488    0.8866 C   0  0  0  0  0  0  0  0  0  0  0  0
   -4.2052   -1.9048    1.2896 H   0  0  0  0  0  0  0  0  0  0  0  0
   -3.7552   -2.8428   -0.1584 H   0  0  0  0  0  0  0  0  0  0  0  0
   -2.1052   -2.1358    0.9946 C   0  0  0  0  0  0  0  0  0  0  0  0
   -1.2852   -2.7288    1.6826 O   0  0  0  0  0  0  0  0  0  0  0  0
   -1.8202   -1.0288    0.3146 N   0  0  0  0  0  0  0  0  0  0  0  0
   -2.5542   -0.5788   -0.2104 H   0  0  0  0  0  0  0  0  0  0  0  0
   -0.5102   -0.3728    0.3086 C   0  0  1  0  0  0  0  0  0  0  0  0
    0.2354   -1.0844   -0.0490 H   0  0  0  0  0  0  0  0  0  0  0  0
   -0.5452    0.8158   -0.6698 C   0  0  0  0  0  0  0  0  0  0  0  0
    0.3491    0.7904   -1.2950 H   0  0  0  0  0  0  0  0  0  0  0  0
   -1.4140    0.7137   -1.3226 H   0  0  0  0  0  0  0  0  0  0  0  0
   -0.6150    2.1574    0.0125 C   0  0  0  0  0  0  0  0  0  0  0  0
   -0.0935    2.4718    1.2491 N   0  0  0  0  0  0  0  0  0  0  0  0
    0.3368    1.8268    1.8948 H   0  0  0  0  0  0  0  0  0  0  0  0
   -0.2630    3.7897    1.4487 C   0  0  0  0  0  0  0  0  0  0  0  0
    0.0405    4.3327    2.3354 H   0  0  0  0  0  0  0  0  0  0  0  0
   -0.8626    4.3470    0.3865 N   0  0  0  0  0  0  0  0  0  0  0  0
   -1.0951    3.3190   -0.5310 C   0  0  0  0  0  0  0  0  0  0  0  0
   -1.5411    3.4263   -1.5114 H   0  0  0  0  0  0  0  0  0  0  0  0
   -0.1073    0.0565    1.7296 C   0  0  0  0  0  0  0  0  0  0  0  0
    1.0285   -0.1699    2.1459 O   0  0  0  0  0  0  0  0  0  0  0  0
   -1.0395    0.6588    2.4785 N   0  0  0  0  0  0  0  0  0  0  0  0
   -1.9636    0.7597    2.0849 H   0  0  0  0  0  0  0  0  0  0  0  0
   -0.8222    1.1334    3.8425 C   0  0  0  0  0  0  0  0  0  0  0  0
   -0.0212    1.8761    3.8521 H   0  0  0  0  0  0  0  0  0  0  0  0
   -1.7349    1.5853    4.2320 H   0  0  0  0  0  0  0  0  0  0  0  0
   -0.5312    0.2997    4.4834 H   0  0  0  0  0  0  0  0  0  0  0  0
  5  6  2  0  0  0  0
  5  7  1  0  0  0  0
  2  3  1  0  0  0  0
  2  4  1  0  0  0  0
  2  5  1  0  0  0  0
  1  2  1  0  0  0  0
 22 23  2  0  0  0  0
 22 24  1  0  0  0  0
 20 21  1  0  0  0  0
 19 20  1  0  0  0  0
 17 18  1  0  0  0  0
 17 19  2  0  0  0  0
 15 16  1  0  0  0  0
 15 17  1  0  0  0  0
 14 15  1  0  0  0  0
 14 20  2  0  0  0  0
 11 12  1  0  0  0  0
 11 13  1  0  0  0  0
 11 14  1  0  0  0  0
  9 10  1  0  0  0  0
  9 11  1  0  0  0  0
  9 22  1  0  0  0  0
  7  8  1  0  0  0  0
  7  9  1  0  0  0  0
 26 27  1  0  0  0  0
 26 28  1  0  0  0  0
 26 29  1  0  0  0  0
 24 25  1  0  0  0  0
 24 26  1  0  0  0  0
M  END
$$$$
default_name
  -OEChem-02102213163D

 29 29  0     1  0  0  0  0  0999 V2000
   -3.6042   -3.5728    1.4576 H   0  0  0  0  0  0  0  0  0  0  0  0
   -3.5202   -2.6488    0.8866 C   0  0  0  0  0  0  0  0  0  0  0  0
   -4.2052   -1.9048    1.2896 H   0  0  0  0  0  0  0  0  0  0  0  0
   -3.7552   -2.8428   -0.1584 H   0  0  0  0  0  0  0  0  0  0  0  0
   -2.1052   -2.1358    0.9946 C   0  0  0  0  0  0  0  0  0  0  0  0
   -1.2852   -2.7288    1.6826 O   0  0  0  0  0  0  0  0  0  0  0  0
   -1.8202   -1.0288    0.3146 N   0  0  0  0  0  0  0  0  0  0  0  0
   -2.5542   -0.5788   -0.2104 H   0  0  0  0  0  0  0  0  0  0  0  0
   -0.5102   -0.3728    0.3086 C   0  0  1  0  0  0  0  0  0  0  0  0
    0.2354   -1.0844   -0.0490 H   0  0  0  0  0  0  0  0  0  0  0  0
   -0.5452    0.8158   -0.6698 C   0  0  0  0  0  0  0  0  0  0  0  0
    0.3491    0.7904   -1.2950 H   0  0  0  0  0  0  0  0  0  0  0  0
   -1.4140    0.7137   -1.3226 H   0  0  0  0  0  0  0  0  0  0  0  0
   -0.6150    2.1574    0.0125 C   0  0  0  0  0  0  0  0  0  0  0  0
    0.1356    2.5618    1.0956 N   0  0  0  0  0  0  0  0  0  0  0  0
    0.7761    1.9878    1.6232 H   0  0  0  0  0  0  0  0  0  0  0  0
   -0.1387    3.8559    1.3313 C   0  0  0  0  0  0  0  0  0  0  0  0
    0.2939    4.4531    2.1247 H   0  0  0  0  0  0  0  0  0  0  0  0
   -1.0280    4.3125    0.4374 N   0  0  0  0  0  0  0  0  0  0  0  0
   -1.3414    3.2413   -0.4033 C   0  0  0  0  0  0  0  0  0  0  0  0
   -2.0102    3.2709   -1.2538 H   0  0  0  0  0  0  0  0  0  0  0  0
   -0.1073    0.0565    1.7296 C   0  0  0  0  0  0  0  0  0  0  0  0
    1.0285   -0.1699    2.1459 O   0  0  0  0  0  0  0  0  0  0  0  0
   -1.0395    0.6588    2.4785 N   0  0  0  0  0  0  0  0  0  0  0  0
   -1.9636    0.7597    2.0849 H   0  0  0  0  0  0  0  0  0  0  0  0
   -0.8222    1.1334    3.8425 C   0  0  0  0  0  0  0  0  0  0  0  0
   -0.0212    1.8761    3.8521 H   0  0  0  0  0  0  0  0  0  0  0  0
   -1.7349    1.5853    4.2320 H   0  0  0  0  0  0  0  0  0  0  0  0
   -0.5312    0.2997    4.4834 H   0  0  0  0  0  0  0  0  0  0  0  0
  5  6  2  0  0  0  0
  5  7  1  0  0  0  0
  2  3  1  0  0  0  0
  2  4  1  0  0  0  0
  2  5  1  0  0  0  0
  1  2  1  0  0  0  0
 22 23  2  0  0  0  0
 22 24  1  0  0  0  0
 20 21  1  0  0  0  0
 19 20  1  0  0  0  0
 17 18  1  0  0  0  0
 17 19  2  0  0  0  0
 15 16  1  0  0  0  0
 15 17  1  0  0  0  0
 14 15  1  0  0  0  0
 14 20  2  0  0  0  0
 11 12  1  0  0  0  0
 11 13  1  0  0  0  0
 11 14  1  0  0  0  0
  9 10  1  0  0  0  0
  9 11  1  0  0  0  0
  9 22  1  0  0  0  0
  7  8  1  0  0  0  0
  7  9  1  0  0  0  0
 26 27  1  0  0  0  0
 26 28  1  0  0  0  0
 26 29  1  0  0  0  0
 24 25  1  0  0  0  0
 24 26  1  0  0  0  0
M  END
$$$$
default_name
  -OEChem-02102213163D

 29 29  0     1  0  0  0  0  0999 V2000
   -3.6042   -3.5728    1.4576 H   0  0  0  0  0  0  0  0  0  0  0  0
   -3.5202   -2.6488    0.8866 C   0  0  0  0  0  0  0  0  0  0  0  0
   -4.2052   -1.9048    1.2896 H   0  0  0  0  0  0  0  0  0  0  0  0
   -3.7552   -2.8428   -0.1584 H   0  0  0  0  0  0  0  0  0  0  0  0
   -2.1052   -2.1358    0.9946 C   0  0  0  0  0  0  0  0  0  0  0  0
   -1.2852   -2.7288    1.6826 O   0  0  0  0  0  0  0  0  0  0  0  0
   -1.8202   -1.0288    0.3146 N   0  0  0  0  0  0  0  0  0  0  0  0
   -2.5542   -0.5788   -0.2104 H   0  0  0  0  0  0  0  0  0  0  0  0
   -0.5102   -0.3728    0.3086 C   0  0  1  0  0  0  0  0  0  0  0  0
    0.2354   -1.0844   -0.0490 H   0  0  0  0  0  0  0  0  0  0  0  0
   -0.5452    0.8158   -0.6698 C   0  0  0  0  0  0  0  0  0  0  0  0
    0.3491    0.7904   -1.2950 H   0  0  0  0  0  0  0  0  0  0  0  0
   -1.4140    0.7137   -1.3226 H   0  0  0  0  0  0  0  0  0  0  0  0
   -0.6150    2.1574    0.0125 C   0  0  0  0  0  0  0  0  0  0  0  0
    0.3109    2.6738    0.8935 N   0  0  0  0  0  0  0  0  0  0  0  0
    1.1189    2.1915    1.2577 H   0  0  0  0  0  0  0  0  0  0  0  0
   -0.0533    3.9330    1.1884 C   0  0  0  0  0  0  0  0  0  0  0  0
    0.4759    4.5964    1.8614 H   0  0  0  0  0  0  0  0  0  0  0  0
   -1.1719    4.2604    0.5251 N   0  0  0  0  0  0  0  0  0  0  0  0
   -1.5408    3.1388   -0.2222 C   0  0  0  0  0  0  0  0  0  0  0  0
   -2.3857    3.0689   -0.8950 H   0  0  0  0  0  0  0  0  0  0  0  0
   -0.1073    0.0565    1.7296 C   0  0  0  0  0  0  0  0  0  0  0  0
    1.0285   -0.1699    2.1459 O   0  0  0  0  0  0  0  0  0  0  0  0
   -1.0395    0.6588    2.4785 N   0  0  0  0  0  0  0  0  0  0  0  0
   -1.9636    0.7597    2.0849 H   0  0  0  0  0  0  0  0  0  0  0  0
   -0.8222    1.1334    3.8425 C   0  0  0  0  0  0  0  0  0  0  0  0
   -0.0212    1.8761    3.8521 H   0  0  0  0  0  0  0  0  0  0  0  0
   -1.7349    1.5853    4.2320 H   0  0  0  0  0  0  0  0  0  0  0  0
   -0.5312    0.2997    4.4834 H   0  0  0  0  0  0  0  0  0  0  0  0
  5  6  2  0  0  0  0
  5  7  1  0  0  0  0
  2  3  1  0  0  0  0
  2  4  1  0  0  0  0
  2  5  1  0  0  0  0
  1  2  1  0  0  0  0
 22 23  2  0  0  0  0
 22 24  1  0  0  0  0
 20 21  1  0  0  0  0
 19 20  1  0  0  0  0
 17 18  1  0  0  0  0
 17 19  2  0  0  0  0
 15 16  1  0  0  0  0
 15 17  1  0  0  0  0
 14 15  1  0  0  0  0
 14 20  2  0  0  0  0
 11 12  1  0  0  0  0
 11 13  1  0  0  0  0
 11 14  1  0  0  0  0
  9 10  1  0  0  0  0
  9 11  1  0  0  0  0
  9 22  1  0  0  0  0
  7  8  1  0  0  0  0
  7  9  1  0  0  0  0
 26 27  1  0  0  0  0
 26 28  1  0  0  0  0
 26 29  1  0  0  0  0
 24 25  1  0  0  0  0
 24 26  1  0  0  0  0
M  END
$$$$
default_name
  -OEChem-02102213163D

 29 29  0     1  0  0  0  0  0999 V2000
   -3.6042   -3.5728    1.4576 H   0  0  0  0  0  0  0  0  0  0  0  0
   -3.5202   -2.6488    0.8866 C   0  0  0  0  0  0  0  0  0  0  0  0
   -4.2052   -1.9048    1.2896 H   0  0  0  0  0  0  0  0  0  0  0  0
   -3.7552   -2.8428   -0.1584 H   0  0  0  0  0  0  0  0  0  0  0  0
   -2.1052   -2.1358    0.9946 C   0  0  0  0  0  0  0  0  0  0  0  0
   -1.2852   -2.7288    1.6826 O   0  0  0  0  0  0  0  0  0  0  0  0
   -1.8202   -1.0288    0.3146 N   0  0  0  0  0  0  0  0  0  0  0  0
   -2.5542   -0.5788   -0.2104 H   0  0  0  0  0  0  0  0  0  0  0  0
   -0.5102   -0.3728    0.3086 C   0  0  1  0  0  0  0  0  0  0  0  0
    0.2354   -1.0844   -0.0490 H   0  0  0  0  0  0  0  0  0  0  0  0
   -0.5452    0.8158   -0.6698 C   0  0  0  0  0  0  0  0  0  0  0  0
    0.3491    0.7904   -1.2950 H   0  0  0  0  0  0  0  0  0  0  0  0
   -1.4140    0.7137   -1.3226 H   0  0  0  0  0  0  0  0  0  0  0  0
   -0.6150    2.1574    0.0125 C   0  0  0  0  0  0  0  0  0  0  0  0
    0.4206    2.8000    0.6565 N   0  0  0  0  0  0  0  0  0  0  0  0
    1.3420    2.4241    0.8232 H   0  0  0  0  0  0  0  0  0  0  0  0
   -0.0129    4.0158    1.0298 C   0  0  0  0  0  0  0  0  0  0  0  0
    0.5743    4.7531    1.5634 H   0  0  0  0  0  0  0  0  0  0  0  0
   -1.2846    4.1942    0.6437 N   0  0  0  0  0  0  0  0  0  0  0  0
   -1.6796    3.0186   -0.0001 C   0  0  0  0  0  0  0  0  0  0  0  0
   -2.6421    2.8340   -0.4595 H   0  0  0  0  0  0  0  0  0  0  0  0
   -0.1073    0.0565    1.7296 C   0  0  0  0  0  0  0  0  0  0  0  0
    1.0285   -0.1699    2.1459 O   0  0  0  0  0  0  0  0  0  0  0  0
   -1.0395    0.6588    2.4785 N   0  0  0  0  0  0  0  0  0  0  0  0
   -1.9636    0.7597    2.0849 H   0  0  0  0  0  0  0  0  0  0  0  0
   -0.8222    1.1334    3.8425 C   0  0  0  0  0  0  0  0  0  0  0  0
   -0.0212    1.8761    3.8521 H   0  0  0  0  0  0  0  0  0  0  0  0
   -1.7349    1.5853    4.2320 H   0  0  0  0  0  0  0  0  0  0  0  0
   -0.5312    0.2997    4.4834 H   0  0  0  0  0  0  0  0  0  0  0  0
  5  6  2  0  0  0  0
  5  7  1  0  0  0  0
  2  3  1  0  0  0  0
  2  4  1  0  0  0  0
  2  5  1  0  0  0  0
  1  2  1  0  0  0  0
 22 23  2  0  0  0  0
 22 24  1  0  0  0  0
 20 21  1  0  0  0  0
 19 20  1  0  0  0  0
 17 18  1  0  0  0  0
 17 19  2  0  0  0  0
 15 16  1  0  0  0  0
 15 17  1  0  0  0  0
 14 15  1  0  0  0  0
 14 20  2  0  0  0  0
 11 12  1  0  0  0  0
 11 13  1  0  0  0  0
 11 14  1  0  0  0  0
  9 10  1  0  0  0  0
  9 11  1  0  0  0  0
  9 22  1  0  0  0  0
  7  8  1  0  0  0  0
  7  9  1  0  0  0  0
 26 27  1  0  0  0  0
 26 28  1  0  0  0  0
 26 29  1  0  0  0  0
 24 25  1  0  0  0  0
 24 26  1  0  0  0  0
M  END
$$$$
default_name
  -OEChem-02102213163D

 29 29  0     1  0  0  0  0  0999 V2000
   -3.6042   -3.5728    1.4576 H   0  0  0  0  0  0  0  0  0  0  0  0
   -3.5202   -2.6488    0.8866 C   0  0  0  0  0  0  0  0  0  0  0  0
   -4.2052   -1.9048    1.2896 H   0  0  0  0  0  0  0  0  0  0  0  0
   -3.7552   -2.8428   -0.1584 H   0  0  0  0  0  0  0  0  0  0  0  0
   -2.1052   -2.1358    0.9946 C   0  0  0  0  0  0  0  0  0  0  0  0
   -1.2852   -2.7288    1.6826 O   0  0  0  0  0  0  0  0  0  0  0  0
   -1.8202   -1.0288    0.3146 N   0  0  0  0  0  0  0  0  0  0  0  0
   -2.5542   -0.5788   -0.2104 H   0  0  0  0  0  0  0  0  0  0  0  0
   -0.5102   -0.3728    0.3086 C   0  0  1  0  0  0  0  0  0  0  0  0
    0.2354   -1.0844   -0.0490 H   0  0  0  0  0  0  0  0  0  0  0  0
   -0.5452    0.8158   -0.6698 C   0  0  0  0  0  0  0  0  0  0  0  0
    0.3491    0.7904   -1.2950 H   0  0  0  0  0  0  0  0  0  0  0  0
   -1.4140    0.7137   -1.3226 H   0  0  0  0  0  0  0  0  0  0  0  0
   -0.6150    2.1574    0.0125 C   0  0  0  0  0  0  0  0  0  0  0  0
    0.4571    2.9319    0.4007 N   0  0  0  0  0  0  0  0  0  0  0  0
    1.4301    2.6697    0.3493 H   0  0  0  0  0  0  0  0  0  0  0  0
   -0.0200    4.0985    0.8663 C   0  0  0  0  0  0  0  0  0  0  0  0
    0.5823    4.9124    1.2510 H   0  0  0  0  0  0  0  0  0  0  0  0
   -1.3584    4.1185    0.7849 N   0  0  0  0  0  0  0  0  0  0  0  0
   -1.7485    2.8889    0.2478 C   0  0  0  0  0  0  0  0  0  0  0  0
   -2.7619    2.5824    0.0231 H   0  0  0  0  0  0  0  0  0  0  0  0
   -0.1073    0.0565    1.7296 C   0  0  0  0  0  0  0  0  0  0  0  0
    1.0285   -0.1699    2.1459 O   0  0  0  0  0  0  0  0  0  0  0  0
   -1.0395    0.6588    2.4785 N   0  0  0  0  0  0  0  0  0  0  0  0
   -1.9636    0.7597    2.0849 H   0  0  0  0  0  0  0  0  0  0  0  0
   -0.8222    1.1334    3.8425 C   0  0  0  0  0  0  0  0  0  0  0  0
   -0.0212    1.8761    3.8521 H   0  0  0  0  0  0  0  0  0  0  0  0
   -1.7349    1.5853    4.2320 H   0  0  0  0  0  0  0  0  0  0  0  0
   -0.5312    0.2997    4.4834 H   0  0  0  0  0  0  0  0  0  0  0  0
  5  6  2  0  0  0  0
  5  7  1  0  0  0  0
  2  3  1  0  0  0  0
  2  4  1  0  0  0  0
  2  5  1  0  0  0  0
  1  2  1  0  0  0  0
 22 23  2  0  0  0  0
 22 24  1  0  0  0  0
 20 21  1  0  0  0  0
 19 20  1  0  0  0  0
 17 18  1  0  0  0  0
 17 19  2  0  0  0  0
 15 16  1  0  0  0  0
 15 17  1  0  0  0  0
 14 15  1  0  0  0  0
 14 20  2  0  0  0  0
 11 12  1  0  0  0  0
 11 13  1  0  0  0  0
 11 14  1  0  0  0  0
  9 10  1  0  0  0  0
  9 11  1  0  0  0  0
  9 22  1  0  0  0  0
  7  8  1  0  0  0  0
  7  9  1  0  0  0  0
 26 27  1  0  0  0  0
 26 28  1  0  0  0  0
 26 29  1  0  0  0  0
 24 25  1  0  0  0  0
 24 26  1  0  0  0  0
M  END
$$$$
default_name
  -OEChem-02102213163D

 29 29  0     1  0  0  0  0  0999 V2000
   -3.6042   -3.5728    1.4576 H   0  0  0  0  0  0  0  0  0  0  0  0
   -3.5202   -2.6488    0.8866 C   0  0  0  0  0  0  0  0  0  0  0  0
   -4.2052   -1.9048    1.2896 H   0  0  0  0  0  0  0  0  0  0  0  0
   -3.7552   -2.8428   -0.1584 H   0  0  0  0  0  0  0  0  0  0  0  0
   -2.1052   -2.1358    0.9946 C   0  0  0  0  0  0  0  0  0  0  0  0
   -1.2852   -2.7288    1.6826 O   0  0  0  0  0  0  0  0  0  0  0  0
   -1.8202   -1.0288    0.3146 N   0  0  0  0  0  0  0  0  0  0  0  0
   -2.5542   -0.5788   -0.2104 H   0  0  0  0  0  0  0  0  0  0  0  0
   -0.5102   -0.3728    0.3086 C   0  0  1  0  0  0  0  0  0  0  0  0
    0.2354   -1.0844   -0.0490 H   0  0  0  0  0  0  0  0  0  0  0  0
   -0.5452    0.8158   -0.6698 C   0  0  0  0  0  0  0  0  0  0  0  0
    0.3491    0.7904   -1.2950 H   0  0  0  0  0  0  0  0  0  0  0  0
   -1.4140    0.7137   -1.3226 H   0  0  0  0  0  0  0  0  0  0  0  0
   -0.6150    2.1574    0.0125 C   0  0  0  0  0  0  0  0  0  0  0  0
    0.4180    3.0606    0.1437 N   0  0  0  0  0  0  0  0  0  0  0  0
    1.3772    2.9115   -0.1317 H   0  0  0  0  0  0  0  0  0  0  0  0
   -0.0743    4.1757    0.7090 C   0  0  0  0  0  0  0  0  0  0  0  0
    0.4994    5.0635    0.9455 H   0  0  0  0  0  0  0  0  0  0  0  0
   -1.3883    4.0385    0.9393 N   0  0  0  0  0  0  0  0  0  0  0  0
   -1.7426    2.7586    0.5047 C   0  0  0  0  0  0  0  0  0  0  0  0
   -2.7368    2.3311    0.5198 H   0  0  0  0  0  0  0  0  0  0  0  0
   -0.1073    0.0565    1.7296 C   0  0  0  0  0  0  0  0  0  0  0  0
    1.0285   -0.1699    2.1459 O   0  0  0  0  0  0  0  0  0  0  0  0
   -1.0395    0.6588    2.4785 N   0  0  0  0  0  0  0  0  0  0  0  0
   -1.9636    0.7597    2.0849 H   0  0  0  0  0  0  0  0  0  0  0  0
   -0.8222    1.1334    3.8425 C   0  0  0  0  0  0  0  0  0  0  0  0
   -0.0212    1.8761    3.8521 H   0  0  0  0  0  0  0  0  0  0  0  0
   -1.7349    1.5853    4.2320 H   0  0  0  0  0  0  0  0  0  0  0  0
   -0.5312    0.2997    4.4834 H   0  0  0  0  0  0  0  0  0  0  0  0
  5  6  2  0  0  0  0
  5  7  1  0  0  0  0
  2  3  1  0  0  0  0
  2  4  1  0  0  0  0
  2  5  1  0  0  0  0
  1  2  1  0  0  0  0
 22 23  2  0  0  0  0
 22 24  1  0  0  0  0
 20 21  1  0  0  0  0
 19 20  1  0  0  0  0
 17 18  1  0  0  0  0
 17 19  2  0  0  0  0
 15 16  1  0  0  0  0
 15 17  1  0  0  0  0
 14 15  1  0  0  0  0
 14 20  2  0  0  0  0
 11 12  1  0  0  0  0
 11 13  1  0  0  0  0
 11 14  1  0  0  0  0
  9 10  1  0  0  0  0
  9 11  1  0  0  0  0
  9 22  1  0  0  0  0
  7  8  1  0  0  0  0
  7  9  1  0  0  0  0
 26 27  1  0  0  0  0
 26 28  1  0  0  0  0
 26 29  1  0  0  0  0
 24 25  1  0  0  0  0
 24 26  1  0  0  0  0
M  END
$$$$
default_name
  -OEChem-02102213163D

 29 29  0     1  0  0  0  0  0999 V2000
   -3.6042   -3.5728    1.4576 H   0  0  0  0  0  0  0  0  0  0  0  0
   -3.5202   -2.6488    0.8866 C   0  0  0  0  0  0  0  0  0  0  0  0
   -4.2052   -1.9048    1.2896 H   0  0  0  0  0  0  0  0  0  0  0  0
   -3.7552   -2.8428   -0.1584 H   0  0  0  0  0  0  0  0  0  0  0  0
   -2.1052   -2.1358    0.9946 C   0  0  0  0  0  0  0  0  0  0  0  0
   -1.2852   -2.7288    1.6826 O   0  0  0  0  0  0  0  0  0  0  0  0
   -1.8202   -1.0288    0.3146 N   0  0  0  0  0  0  0  0  0  0  0  0
   -2.5542   -0.5788   -0.2104 H   0  0  0  0  0  0  0  0  0  0  0  0
   -0.5102   -0.3728    0.3086 C   0  0  1  0  0  0  0  0  0  0  0  0
    0.2354   -1.0844   -0.0490 H   0  0  0  0  0  0  0  0  0  0  0  0
   -0.5452    0.8158   -0.6698 C   0  0  0  0  0  0  0  0  0  0  0  0
    0.3491    0.7904   -1.2950 H   0  0  0  0  0  0  0  0  0  0  0  0
   -1.4140    0.7137   -1.3226 H   0  0  0  0  0  0  0  0  0  0  0  0
   -0.6150    2.1574    0.0125 C   0  0  0  0  0  0  0  0  0  0  0  0
    0.3059    3.1772   -0.0970 N   0  0  0  0  0  0  0  0  0  0  0  0
    1.1869    3.1332   -0.5870 H   0  0  0  0  0  0  0  0  0  0  0  0
   -0.1721    4.2420    0.5687 C   0  0  0  0  0  0  0  0  0  0  0  0
    0.3312    5.1960    0.6677 H   0  0  0  0  0  0  0  0  0  0  0  0
   -1.3722    3.9595    1.0962 N   0  0  0  0  0  0  0  0  0  0  0  0
   -1.6625    2.6364    0.7531 C   0  0  0  0  0  0  0  0  0  0  0  0
   -2.5687    2.0972    0.9969 H   0  0  0  0  0  0  0  0  0  0  0  0
   -0.1073    0.0565    1.7296 C   0  0  0  0  0  0  0  0  0  0  0  0
    1.0285   -0.1699    2.1459 O   0  0  0  0  0  0  0  0  0  0  0  0
   -1.0395    0.6588    2.4785 N   0  0  0  0  0  0  0  0  0  0  0  0
   -1.9636    0.7597    2.0849 H   0  0  0  0  0  0  0  0  0  0  0  0
   -0.8222    1.1334    3.8425 C   0  0  0  0  0  0  0  0  0  0  0  0
   -0.0212    1.8761    3.8521 H   0  0  0  0  0  0  0  0  0  0  0  0
   -1.7349    1.5853    4.2320 H   0  0  0  0  0  0  0  0  0  0  0  0
   -0.5312    0.2997    4.4834 H   0  0  0  0  0  0  0  0  0  0  0  0
  5  6  2  0  0  0  0
  5  7  1  0  0  0  0
  2  3  1  0  0  0  0
  2  4  1  0  0  0  0
  2  5  1  0  0  0  0
  1  2  1  0  0  0  0
 22 23  2  0  0  0  0
 22 24  1  0  0  0  0
 20 21  1  0  0  0  0
 19 20  1  0  0  0  0
 17 18  1  0  0  0  0
 17 19  2  0  0  0  0
 15 16  1  0  0  0  0
 15 17  1  0  0  0  0
 14 15  1  0  0  0  0
 14 20  2  0  0  0  0
 11 12  1  0  0  0  0
 11 13  1  0  0  0  0
 11 14  1  0  0  0  0
  9 10  1  0  0  0  0
  9 11  1  0  0  0  0
  9 22  1  0  0  0  0
  7  8  1  0  0  0  0
  7  9  1  0  0  0  0
 26 27  1  0  0  0  0
 26 28  1  0  0  0  0
 26 29  1  0  0  0  0
 24 25  1  0  0  0  0
 24 26  1  0  0  0  0
M  END
$$$$
default_name
  -OEChem-02102213163D

 29 29  0     1  0  0  0  0  0999 V2000
   -3.6042   -3.5728    1.4576 H   0  0  0  0  0  0  0  0  0  0  0  0
   -3.5202   -2.6488    0.8866 C   0  0  0  0  0  0  0  0  0  0  0  0
   -4.2052   -1.9048    1.2896 H   0  0  0  0  0  0  0  0  0  0  0  0
   -3.7552   -2.8428   -0.1584 H   0  0  0  0  0  0  0  0  0  0  0  0
   -2.1052   -2.1358    0.9946 C   0  0  0  0  0  0  0  0  0  0  0  0
   -1.2852   -2.7288    1.6826 O   0  0  0  0  0  0  0  0  0  0  0  0
   -1.8202   -1.0288    0.3146 N   0  0  0  0  0  0  0  0  0  0  0  0
   -2.5542   -0.5788   -0.2104 H   0  0  0  0  0  0  0  0  0  0  0  0
   -0.5102   -0.3728    0.3086 C   0  0  1  0  0  0  0  0  0  0  0  0
    0.2354   -1.0844   -0.0490 H   0  0  0  0  0  0  0  0  0  0  0  0
   -0.5452    0.8158   -0.6698 C   0  0  0  0  0  0  0  0  0  0  0  0
    0.3491    0.7904   -1.2950 H   0  0  0  0  0  0  0  0  0  0  0  0
   -1.4140    0.7137   -1.3226 H   0  0  0  0  0  0  0  0  0  0  0  0
   -0.6150    2.1574    0.0125 C   0  0  0  0  0  0  0  0  0  0  0  0
    0.1285    3.2738   -0.3052 N   0  0  0  0  0  0  0  0  0  0  0  0
    0.8722    3.3195   -0.9856 H   0  0  0  0  0  0  0  0  0  0  0  0
   -0.3066    4.2929    0.4549 C   0  0  0  0  0  0  0  0  0  0  0  0
    0.0891    5.3010    0.4365 H   0  0  0  0  0  0  0  0  0  0  0  0
   -1.3112    3.8870    1.2450 N   0  0  0  0  0  0  0  0  0  0  0  0
   -1.5135    2.5308    0.9761 C   0  0  0  0  0  0  0  0  0  0  0  0
   -2.2690    1.8967    1.4217 H   0  0  0  0  0  0  0  0  0  0  0  0
   -0.1073    0.0565    1.7296 C   0  0  0  0  0  0  0  0  0  0  0  0
    1.0285   -0.1699    2.1459 O   0  0  0  0  0  0  0  0  0  0  0  0
   -1.0395    0.6588    2.4785 N   0  0  0  0  0  0  0  0  0  0  0  0
   -1.9636    0.7597    2.0849 H   0  0  0  0  0  0  0  0  0  0  0  0
   -0.8222    1.1334    3.8425 C   0  0  0  0  0  0  0  0  0  0  0  0
   -0.0212    1.8761    3.8521 H   0  0  0  0  0  0  0  0  0  0  0  0
   -1.7349    1.5853    4.2320 H   0  0  0  0  0  0  0  0  0  0  0  0
   -0.5312    0.2997    4.4834 H   0  0  0  0  0  0  0  0  0  0  0  0
  5  6  2  0  0  0  0
  5  7  1  0  0  0  0
  2  3  1  0  0  0  0
  2  4  1  0  0  0  0
  2  5  1  0  0  0  0
  1  2  1  0  0  0  0
 22 23  2  0  0  0  0
 22 24  1  0  0  0  0
 20 21  1  0  0  0  0
 19 20  1  0  0  0  0
 17 18  1  0  0  0  0
 17 19  2  0  0  0  0
 15 16  1  0  0  0  0
 15 17  1  0  0  0  0
 14 15  1  0  0  0  0
 14 20  2  0  0  0  0
 11 12  1  0  0  0  0
 11 13  1  0  0  0  0
 11 14  1  0  0  0  0
  9 10  1  0  0  0  0
  9 11  1  0  0  0  0
  9 22  1  0  0  0  0
  7  8  1  0  0  0  0
  7  9  1  0  0  0  0
 26 27  1  0  0  0  0
 26 28  1  0  0  0  0
 26 29  1  0  0  0  0
 24 25  1  0  0  0  0
 24 26  1  0  0  0  0
M  END
$$$$
default_name
  -OEChem-02102213163D

 29 29  0     1  0  0  0  0  0999 V2000
   -3.6042   -3.5728    1.4576 H   0  0  0  0  0  0  0  0  0  0  0  0
   -3.5202   -2.6488    0.8866 C   0  0  0  0  0  0  0  0  0  0  0  0
   -4.2052   -1.9048    1.2896 H   0  0  0  0  0  0  0  0  0  0  0  0
   -3.7552   -2.8428   -0.1584 H   0  0  0  0  0  0  0  0  0  0  0  0
   -2.1052   -2.1358    0.9946 C   0  0  0  0  0  0  0  0  0  0  0  0
   -1.2852   -2.7288    1.6826 O   0  0  0  0  0  0  0  0  0  0  0  0
   -1.8202   -1.0288    0.3146 N   0  0  0  0  0  0  0  0  0  0  0  0
   -2.5542   -0.5788   -0.2104 H   0  0  0  0  0  0  0  0  0  0  0  0
   -0.5102   -0.3728    0.3086 C   0  0  1  0  0  0  0  0  0  0  0  0
    0.2354   -1.0844   -0.0490 H   0  0  0  0  0  0  0  0  0  0  0  0
   -0.5452    0.8158   -0.6698 C   0  0  0  0  0  0  0  0  0  0  0  0
    0.3491    0.7904   -1.2950 H   0  0  0  0  0  0  0  0  0  0  0  0
   -1.4140    0.7137   -1.3226 H   0  0  0  0  0  0  0  0  0  0  0  0
   -0.6150    2.1574    0.0125 C   0  0  0  0  0  0  0  0  0  0  0  0
   -0.1022    3.3439   -0.4665 N   0  0  0  0  0  0  0  0  0  0  0  0
    0.4545    3.4579   -1.3003 H   0  0  0  0  0  0  0  0  0  0  0  0
   -0.4687    4.3249    0.3753 C   0  0  0  0  0  0  0  0  0  0  0  0
   -0.2102    5.3712    0.2677 H   0  0  0  0  0  0  0  0  0  0  0  0
   -1.2095    3.8259    1.3756 N   0  0  0  0  0  0  0  0  0  0  0  0
   -1.3059    2.4489    1.1583 C   0  0  0  0  0  0  0  0  0  0  0  0
   -1.8581    1.7433    1.7655 H   0  0  0  0  0  0  0  0  0  0  0  0
   -0.1073    0.0565    1.7296 C   0  0  0  0  0  0  0  0  0  0  0  0
    1.0285   -0.1699    2.1459 O   0  0  0  0  0  0  0  0  0  0  0  0
   -1.0395    0.6588    2.4785 N   0  0  0  0  0  0  0  0  0  0  0  0
   -1.9636    0.7597    2.0849 H   0  0  0  0  0  0  0  0  0  0  0  0
   -0.8222    1.1334    3.8425 C   0  0  0  0  0  0  0  0  0  0  0  0
   -0.0212    1.8761    3.8521 H   0  0  0  0  0  0  0  0  0  0  0  0
   -1.7349    1.5853    4.2320 H   0  0  0  0  0  0  0  0  0  0  0  0
   -0.5312    0.2997    4.4834 H   0  0  0  0  0  0  0  0  0  0  0  0
  5  6  2  0  0  0  0
  5  7  1  0  0  0  0
  2  3  1  0  0  0  0
  2  4  1  0  0  0  0
  2  5  1  0  0  0  0
  1  2  1  0  0  0  0
 22 23  2  0  0  0  0
 22 24  1  0  0  0  0
 20 21  1  0  0  0  0
 19 20  1  0  0  0  0
 17 18  1  0  0  0  0
 17 19  2  0  0  0  0
 15 16  1  0  0  0  0
 15 17  1  0  0  0  0
 14 15  1  0  0  0  0
 14 20  2  0  0  0  0
 11 12  1  0  0  0  0
 11 13  1  0  0  0  0
 11 14  1  0  0  0  0
  9 10  1  0  0  0  0
  9 11  1  0  0  0  0
  9 22  1  0  0  0  0
  7  8  1  0  0  0  0
  7  9  1  0  0  0  0
 26 27  1  0  0  0  0
 26 28  1  0  0  0  0
 26 29  1  0  0  0  0
 24 25  1  0  0  0  0
 24 26  1  0  0  0  0
M  END
$$$$
default_name
  -OEChem-02102213163D

 29 29  0     1  0  0  0  0  0999 V2000
   -3.6042   -3.5728    1.4576 H   0  0  0  0  0  0  0  0  0  0  0  0
   -3.5202   -2.6488    0.8866 C   0  0  0  0  0  0  0  0  0  0  0  0
   -4.2052   -1.9048    1.2896 H   0  0  0  0  0  0  0  0  0  0  0  0
   -3.7552   -2.8428   -0.1584 H   0  0  0  0  0  0  0  0  0  0  0  0
   -2.1052   -2.1358    0.9946 C   0  0  0  0  0  0  0  0  0  0  0  0
   -1.2852   -2.7288    1.6826 O   0  0  0  0  0  0  0  0  0  0  0  0
   -1.8202   -1.0288    0.3146 N   0  0  0  0  0  0  0  0  0  0  0  0
   -2.5542   -0.5788   -0.2104 H   0  0  0  0  0  0  0  0  0  0  0  0
   -0.5102   -0.3728    0.3086 C   0  0  1  0  0  0  0  0  0  0  0  0
    0.2354   -1.0844   -0.0490 H   0  0  0  0  0  0  0  0  0  0  0  0
   -0.5452    0.8158   -0.6698 C   0  0  0  0  0  0  0  0  0  0  0  0
    0.3491    0.7904   -1.2950 H   0  0  0  0  0  0  0  0  0  0  0  0
   -1.4140    0.7137   -1.3226 H   0  0  0  0  0  0  0  0  0  0  0  0
   -0.6150    2.1574    0.0125 C   0  0  0  0  0  0  0  0  0  0  0  0
   -0.3704    3.3825   -0.5700 N   0  0  0  0  0  0  0  0  0  0  0  0
   -0.0377    3.5387   -1.5097 H   0  0  0  0  0  0  0  0  0  0  0  0
   -0.6474    4.3358    0.3355 C   0  0  0  0  0  0  0  0  0  0  0  0
   -0.5465    5.4020    0.1729 H   0  0  0  0  0  0  0  0  0  0  0  0
   -1.0740    3.7803    1.4790 N   0  0  0  0  0  0  0  0  0  0  0  0
   -1.0537    2.3963    1.2875 C   0  0  0  0  0  0  0  0  0  0  0  0
   -1.3640    1.6474    2.0046 H   0  0  0  0  0  0  0  0  0  0  0  0
   -0.1073    0.0565    1.7296 C   0  0  0  0  0  0  0  0  0  0  0  0
    1.0285   -0.1699    2.1459 O   0  0  0  0  0  0  0  0  0  0  0  0
   -1.0395    0.6588    2.4785 N   0  0  0  0  0  0  0  0  0  0  0  0
   -1.9636    0.7597    2.0849 H   0  0  0  0  0  0  0  0  0  0  0  0
   -0.8222    1.1334    3.8425 C   0  0  0  0  0  0  0  0  0  0  0  0
   -0.0212    1.8761    3.8521 H   0  0  0  0  0  0  0  0  0  0  0  0
   -1.7349    1.5853    4.2320 H   0  0  0  0  0  0  0  0  0  0  0  0
   -0.5312    0.2997    4.4834 H   0  0  0  0  0  0  0  0  0  0  0  0
  5  6  2  0  0  0  0
  5  7  1  0  0  0  0
  2  3  1  0  0  0  0
  2  4  1  0  0  0  0
  2  5  1  0  0  0  0
  1  2  1  0  0  0  0
 22 23  2  0  0  0  0
 22 24  1  0  0  0  0
 20 21  1  0  0  0  0
 19 20  1  0  0  0  0
 17 18  1  0  0  0  0
 17 19  2  0  0  0  0
 15 16  1  0  0  0  0
 15 17  1  0  0  0  0
 14 15  1  0  0  0  0
 14 20  2  0  0  0  0
 11 12  1  0  0  0  0
 11 13  1  0  0  0  0
 11 14  1  0  0  0  0
  9 10  1  0  0  0  0
  9 11  1  0  0  0  0
  9 22  1  0  0  0  0
  7  8  1  0  0  0  0
  7  9  1  0  0  0  0
 26 27  1  0  0  0  0
 26 28  1  0  0  0  0
 26 29  1  0  0  0  0
 24 25  1  0  0  0  0
 24 26  1  0  0  0  0
M  END
$$$$
default_name
  -OEChem-02102213163D

 29 29  0     1  0  0  0  0  0999 V2000
   -3.6042   -3.5728    1.4576 H   0  0  0  0  0  0  0  0  0  0  0  0
   -3.5202   -2.6488    0.8866 C   0  0  0  0  0  0  0  0  0  0  0  0
   -4.2052   -1.9048    1.2896 H   0  0  0  0  0  0  0  0  0  0  0  0
   -3.7552   -2.8428   -0.1584 H   0  0  0  0  0  0  0  0  0  0  0  0
   -2.1052   -2.1358    0.9946 C   0  0  0  0  0  0  0  0  0  0  0  0
   -1.2852   -2.7288    1.6826 O   0  0  0  0  0  0  0  0  0  0  0  0
   -1.8202   -1.0288    0.3146 N   0  0  0  0  0  0  0  0  0  0  0  0
   -2.5542   -0.5788   -0.2104 H   0  0  0  0  0  0  0  0  0  0  0  0
   -0.5102   -0.3728    0.3086 C   0  0  1  0  0  0  0  0  0  0  0  0
    0.2354   -1.0844   -0.0490 H   0  0  0  0  0  0  0  0  0  0  0  0
   -0.5452    0.8158   -0.6698 C   0  0  0  0  0  0  0  0  0  0  0  0
    0.1893    0.6499   -1.4599 H   0  0  0  0  0  0  0  0  0  0  0  0
   -1.5319    0.8656   -1.1339 H   0  0  0  0  0  0  0  0  0  0  0  0
   -0.2562    2.1430   -0.0178 C   0  0  0  0  0  0  0  0  0  0  0  0
   -0.2204    3.3697   -0.6455 N   0  0  0  0  0  0  0  0  0  0  0  0
   -0.3071    3.5332   -1.6374 H   0  0  0  0  0  0  0  0  0  0  0  0
   -0.0439    4.3129    0.2952 C   0  0  0  0  0  0  0  0  0  0  0  0
    0.0307    5.3772    0.1083 H   0  0  0  0  0  0  0  0  0  0  0  0
    0.0241    3.7498    1.5103 N   0  0  0  0  0  0  0  0  0  0  0  0
   -0.1052    2.3710    1.3241 C   0  0  0  0  0  0  0  0  0  0  0  0
   -0.1207    1.6196    2.1029 H   0  0  0  0  0  0  0  0  0  0  0  0
   -0.1073    0.0565    1.7296 C   0  0  0  0  0  0  0  0  0  0  0  0
    1.0285   -0.1699    2.1459 O   0  0  0  0  0  0  0  0  0  0  0  0
   -1.0395    0.6588    2.4785 N   0  0  0  0  0  0  0  0  0  0  0  0
   -1.9636    0.7597    2.0849 H   0  0  0  0  0  0  0  0  0  0  0  0
   -0.8222    1.1334    3.8425 C   0  0  0  0  0  0  0  0  0  0  0  0
   -0.0212    1.8761    3.8521 H   0  0  0  0  0  0  0  0  0  0  0  0
   -1.7349    1.5853    4.2320 H   0  0  0  0  0  0  0  0  0  0  0  0
   -0.5312    0.2997    4.4834 H   0  0  0  0  0  0  0  0  0  0  0  0
  5  6  2  0  0  0  0
  5  7  1  0  0  0  0
  2  3  1  0  0  0  0
  2  4  1  0  0  0  0
  2  5  1  0  0  0  0
  1  2  1  0  0  0  0
 22 23  2  0  0  0  0
 22 24  1  0  0  0  0
 20 21  1  0  0  0  0
 19 20  1  0  0  0  0
 17 18  1  0  0  0  0
 17 19  2  0  0  0  0
 15 16  1  0  0  0  0
 15 17  1  0  0  0  0
 14 15  1  0  0  0  0
 14 20  2  0  0  0  0
 11 12  1  0  0  0  0
 11 13  1  0  0  0  0
 11 14  1  0  0  0  0
  9 10  1  0  0  0  0
  9 11  1  0  0  0  0
  9 22  1  0  0  0  0
  7  8  1  0  0  0  0
  7  9  1  0  0  0  0
 26 27  1  0  0  0  0
 26 28  1  0  0  0  0
 26 29  1  0  0  0  0
 24 25  1  0  0  0  0
 24 26  1  0  0  0  0
M  END
$$$$
default_name
  -OEChem-02102213163D

 29 29  0     1  0  0  0  0  0999 V2000
   -3.6042   -3.5728    1.4576 H   0  0  0  0  0  0  0  0  0  0  0  0
   -3.5202   -2.6488    0.8866 C   0  0  0  0  0  0  0  0  0  0  0  0
   -4.2052   -1.9048    1.2896 H   0  0  0  0  0  0  0  0  0  0  0  0
   -3.7552   -2.8428   -0.1584 H   0  0  0  0  0  0  0  0  0  0  0  0
   -2.1052   -2.1358    0.9946 C   0  0  0  0  0  0  0  0  0  0  0  0
   -1.2852   -2.7288    1.6826 O   0  0  0  0  0  0  0  0  0  0  0  0
   -1.8202   -1.0288    0.3146 N   0  0  0  0  0  0  0  0  0  0  0  0
   -2.5542   -0.5788   -0.2104 H   0  0  0  0  0  0  0  0  0  0  0  0
   -0.5102   -0.3728    0.3086 C   0  0  1  0  0  0  0  0  0  0  0  0
    0.2354   -1.0844   -0.0490 H   0  0  0  0  0  0  0  0  0  0  0  0
   -0.5452    0.8158   -0.6698 C   0  0  0  0  0  0  0  0  0  0  0  0
    0.1893    0.6499   -1.4599 H   0  0  0  0  0  0  0  0  0  0  0  0
   -1.5319    0.8656   -1.1339 H   0  0  0  0  0  0  0  0  0  0  0  0
   -0.2562    2.1430   -0.0178 C   0  0  0  0  0  0  0  0  0  0  0  0
   -0.4968    3.3876   -0.5593 N   0  0  0  0  0  0  0  0  0  0  0  0
   -0.8269    3.5760   -1.4940 H   0  0  0  0  0  0  0  0  0  0  0  0
   -0.2092    4.3098    0.3746 C   0  0  0  0  0  0  0  0  0  0  0  0
   -0.2932    5.3816    0.2428 H   0  0  0  0  0  0  0  0  0  0  0  0
    0.1969    3.7145    1.5056 N   0  0  0  0  0  0  0  0  0  0  0  0
    0.1753    2.3379    1.2672 C   0  0  0  0  0  0  0  0  0  0  0  0
    0.4200    1.5619    1.9809 H   0  0  0  0  0  0  0  0  0  0  0  0
   -0.1073    0.0565    1.7296 C   0  0  0  0  0  0  0  0  0  0  0  0
    1.0285   -0.1699    2.1459 O   0  0  0  0  0  0  0  0  0  0  0  0
   -1.0395    0.6588    2.4785 N   0  0  0  0  0  0  0  0  0  0  0  0
   -1.9636    0.7597    2.0849 H   0  0  0  0  0  0  0  0  0  0  0  0
   -0.8222    1.1334    3.8425 C   0  0  0  0  0  0  0  0  0  0  0  0
   -0.0212    1.8761    3.8521 H   0  0  0  0  0  0  0  0  0  0  0  0
   -1.7349    1.5853    4.2320 H   0  0  0  0  0  0  0  0  0  0  0  0
   -0.5312    0.2997    4.4834 H   0  0  0  0  0  0  0  0  0  0  0  0
  5  6  2  0  0  0  0
  5  7  1  0  0  0  0
  2  3  1  0  0  0  0
  2  4  1  0  0  0  0
  2  5  1  0  0  0  0
  1  2  1  0  0  0  0
 22 23  2  0  0  0  0
 22 24  1  0  0  0  0
 20 21  1  0  0  0  0
 19 20  1  0  0  0  0
 17 18  1  0  0  0  0
 17 19  2  0  0  0  0
 15 16  1  0  0  0  0
 15 17  1  0  0  0  0
 14 15  1  0  0  0  0
 14 20  2  0  0  0  0
 11 12  1  0  0  0  0
 11 13  1  0  0  0  0
 11 14  1  0  0  0  0
  9 10  1  0  0  0  0
  9 11  1  0  0  0  0
  9 22  1  0  0  0  0
  7  8  1  0  0  0  0
  7  9  1  0  0  0  0
 26 27  1  0  0  0  0
 26 28  1  0  0  0  0
 26 29  1  0  0  0  0
 24 25  1  0  0  0  0
 24 26  1  0  0  0  0
M  END
$$$$
default_name
  -OEChem-02102213163D

 29 29  0     1  0  0  0  0  0999 V2000
   -3.6042   -3.5728    1.4576 H   0  0  0  0  0  0  0  0  0  0  0  0
   -3.5202   -2.6488    0.8866 C   0  0  0  0  0  0  0  0  0  0  0  0
   -4.2052   -1.9048    1.2896 H   0  0  0  0  0  0  0  0  0  0  0  0
   -3.7552   -2.8428   -0.1584 H   0  0  0  0  0  0  0  0  0  0  0  0
   -2.1052   -2.1358    0.9946 C   0  0  0  0  0  0  0  0  0  0  0  0
   -1.2852   -2.7288    1.6826 O   0  0  0  0  0  0  0  0  0  0  0  0
   -1.8202   -1.0288    0.3146 N   0  0  0  0  0  0  0  0  0  0  0  0
   -2.5542   -0.5788   -0.2104 H   0  0  0  0  0  0  0  0  0  0  0  0
   -0.5102   -0.3728    0.3086 C   0  0  1  0  0  0  0  0  0  0  0  0
    0.2354   -1.0844   -0.0490 H   0  0  0  0  0  0  0  0  0  0  0  0
   -0.5452    0.8158   -0.6698 C   0  0  0  0  0  0  0  0  0  0  0  0
    0.1893    0.6499   -1.4599 H   0  0  0  0  0  0  0  0  0  0  0  0
   -1.5319    0.8656   -1.1339 H   0  0  0  0  0  0  0  0  0  0  0  0
   -0.2562    2.1430   -0.0178 C   0  0  0  0  0  0  0  0  0  0  0  0
   -0.7461    3.3696   -0.4122 N   0  0  0  0  0  0  0  0  0  0  0  0
   -1.3012    3.5520   -1.2349 H   0  0  0  0  0  0  0  0  0  0  0  0
   -0.3504    4.2844    0.4889 C   0  0  0  0  0  0  0  0  0  0  0  0
   -0.5760    5.3430    0.4468 H   0  0  0  0  0  0  0  0  0  0  0  0
    0.3667    3.7000    1.4598 N   0  0  0  0  0  0  0  0  0  0  0  0
    0.4370    2.3401    1.1467 C   0  0  0  0  0  0  0  0  0  0  0  0
    0.9209    1.5726    1.7369 H   0  0  0  0  0  0  0  0  0  0  0  0
   -0.1073    0.0565    1.7296 C   0  0  0  0  0  0  0  0  0  0  0  0
    1.0285   -0.1699    2.1459 O   0  0  0  0  0  0  0  0  0  0  0  0
   -1.0395    0.6588    2.4785 N   0  0  0  0  0  0  0  0  0  0  0  0
   -1.9636    0.7597    2.0849 H   0  0  0  0  0  0  0  0  0  0  0  0
   -0.8222    1.1334    3.8425 C   0  0  0  0  0  0  0  0  0  0  0  0
   -0.0212    1.8761    3.8521 H   0  0  0  0  0  0  0  0  0  0  0  0
   -1.7349    1.5853    4.2320 H   0  0  0  0  0  0  0  0  0  0  0  0
   -0.5312    0.2997    4.4834 H   0  0  0  0  0  0  0  0  0  0  0  0
  5  6  2  0  0  0  0
  5  7  1  0  0  0  0
  2  3  1  0  0  0  0
  2  4  1  0  0  0  0
  2  5  1  0  0  0  0
  1  2  1  0  0  0  0
 22 23  2  0  0  0  0
 22 24  1  0  0  0  0
 20 21  1  0  0  0  0
 19 20  1  0  0  0  0
 17 18  1  0  0  0  0
 17 19  2  0  0  0  0
 15 16  1  0  0  0  0
 15 17  1  0  0  0  0
 14 15  1  0  0  0  0
 14 20  2  0  0  0  0
 11 12  1  0  0  0  0
 11 13  1  0  0  0  0
 11 14  1  0  0  0  0
  9 10  1  0  0  0  0
  9 11  1  0  0  0  0
  9 22  1  0  0  0  0
  7  8  1  0  0  0  0
  7  9  1  0  0  0  0
 26 27  1  0  0  0  0
 26 28  1  0  0  0  0
 26 29  1  0  0  0  0
 24 25  1  0  0  0  0
 24 26  1  0  0  0  0
M  END
$$$$
default_name
  -OEChem-02102213163D

 29 29  0     1  0  0  0  0  0999 V2000
   -3.6042   -3.5728    1.4576 H   0  0  0  0  0  0  0  0  0  0  0  0
   -3.5202   -2.6488    0.8866 C   0  0  0  0  0  0  0  0  0  0  0  0
   -4.2052   -1.9048    1.2896 H   0  0  0  0  0  0  0  0  0  0  0  0
   -3.7552   -2.8428   -0.1584 H   0  0  0  0  0  0  0  0  0  0  0  0
   -2.1052   -2.1358    0.9946 C   0  0  0  0  0  0  0  0  0  0  0  0
   -1.2852   -2.7288    1.6826 O   0  0  0  0  0  0  0  0  0  0  0  0
   -1.8202   -1.0288    0.3146 N   0  0  0  0  0  0  0  0  0  0  0  0
   -2.5542   -0.5788   -0.2104 H   0  0  0  0  0  0  0  0  0  0  0  0
   -0.5102   -0.3728    0.3086 C   0  0  1  0  0  0  0  0  0  0  0  0
    0.2354   -1.0844   -0.0490 H   0  0  0  0  0  0  0  0  0  0  0  0
   -0.5452    0.8158   -0.6698 C   0  0  0  0  0  0  0  0  0  0  0  0
    0.1893    0.6499   -1.4599 H   0  0  0  0  0  0  0  0  0  0  0  0
   -1.5319    0.8656   -1.1339 H   0  0  0  0  0  0  0  0  0  0  0  0
   -0.2562    2.1430   -0.0178 C   0  0  0  0  0  0  0  0  0  0  0  0
   -0.9514    3.3170   -0.2141 N   0  0  0  0  0  0  0  0  0  0  0  0
   -1.6975    3.4628   -0.8776 H   0  0  0  0  0  0  0  0  0  0  0  0
   -0.4578    4.2384    0.6302 C   0  0  0  0  0  0  0  0  0  0  0  0
   -0.7982    5.2639    0.7063 H   0  0  0  0  0  0  0  0  0  0  0  0
    0.5219    3.7073    1.3761 N   0  0  0  0  0  0  0  0  0  0  0  0
    0.6621    2.3775    0.9707 C   0  0  0  0  0  0  0  0  0  0  0  0
    1.3478    1.6513    1.3876 H   0  0  0  0  0  0  0  0  0  0  0  0
   -0.1073    0.0565    1.7296 C   0  0  0  0  0  0  0  0  0  0  0  0
    1.0285   -0.1699    2.1459 O   0  0  0  0  0  0  0  0  0  0  0  0
   -1.0395    0.6588    2.4785 N   0  0  0  0  0  0  0  0  0  0  0  0
   -1.9636    0.7597    2.0849 H   0  0  0  0  0  0  0  0  0  0  0  0
   -0.8222    1.1334    3.8425 C   0  0  0  0  0  0  0  0  0  0  0  0
   -0.0212    1.8761    3.8521 H   0  0  0  0  0  0  0  0  0  0  0  0
   -1.7349    1.5853    4.2320 H   0  0  0  0  0  0  0  0  0  0  0  0
   -0.5312    0.2997    4.4834 H   0  0  0  0  0  0  0  0  0  0  0  0
  5  6  2  0  0  0  0
  5  7  1  0  0  0  0
  2  3  1  0  0  0  0
  2  4  1  0  0  0  0
  2  5  1  0  0  0  0
  1  2  1  0  0  0  0
 22 23  2  0  0  0  0
 22 24  1  0  0  0  0
 20 21  1  0  0  0  0
 19 20  1  0  0  0  0
 17 18  1  0  0  0  0
 17 19  2  0  0  0  0
 15 16  1  0  0  0  0
 15 17  1  0  0  0  0
 14 15  1  0  0  0  0
 14 20  2  0  0  0  0
 11 12  1  0  0  0  0
 11 13  1  0  0  0  0
 11 14  1  0  0  0  0
  9 10  1  0  0  0  0
  9 11  1  0  0  0  0
  9 22  1  0  0  0  0
  7  8  1  0  0  0  0
  7  9  1  0  0  0  0
 26 27  1  0  0  0  0
 26 28  1  0  0  0  0
 26 29  1  0  0  0  0
 24 25  1  0  0  0  0
 24 26  1  0  0  0  0
M  END
$$$$
default_name
  -OEChem-02102213163D

 29 29  0     1  0  0  0  0  0999 V2000
   -3.6042   -3.5728    1.4576 H   0  0  0  0  0  0  0  0  0  0  0  0
   -3.5202   -2.6488    0.8866 C   0  0  0  0  0  0  0  0  0  0  0  0
   -4.2052   -1.9048    1.2896 H   0  0  0  0  0  0  0  0  0  0  0  0
   -3.7552   -2.8428   -0.1584 H   0  0  0  0  0  0  0  0  0  0  0  0
   -2.1052   -2.1358    0.9946 C   0  0  0  0  0  0  0  0  0  0  0  0
   -1.2852   -2.7288    1.6826 O   0  0  0  0  0  0  0  0  0  0  0  0
   -1.8202   -1.0288    0.3146 N   0  0  0  0  0  0  0  0  0  0  0  0
   -2.5542   -0.5788   -0.2104 H   0  0  0  0  0  0  0  0  0  0  0  0
   -0.5102   -0.3728    0.3086 C   0  0  1  0  0  0  0  0  0  0  0  0
    0.2354   -1.0844   -0.0490 H   0  0  0  0  0  0  0  0  0  0  0  0
   -0.5452    0.8158   -0.6698 C   0  0  0  0  0  0  0  0  0  0  0  0
    0.1893    0.6499   -1.4599 H   0  0  0  0  0  0  0  0  0  0  0  0
   -1.5319    0.8656   -1.1339 H   0  0  0  0  0  0  0  0  0  0  0  0
   -0.2562    2.1430   -0.0178 C   0  0  0  0  0  0  0  0  0  0  0  0
   -1.0986    3.2334    0.0214 N   0  0  0  0  0  0  0  0  0  0  0  0
   -1.9888    3.3145   -0.4466 H   0  0  0  0  0  0  0  0  0  0  0  0
   -0.5243    4.1749    0.7889 C   0  0  0  0  0  0  0  0  0  0  0  0
   -0.9449    5.1496    1.0038 H   0  0  0  0  0  0  0  0  0  0  0  0
    0.6519    3.7359    1.2603 N   0  0  0  0  0  0  0  0  0  0  0  0
    0.8352    2.4476    0.7512 C   0  0  0  0  0  0  0  0  0  0  0  0
    1.6718    1.7924    0.9567 H   0  0  0  0  0  0  0  0  0  0  0  0
   -0.1073    0.0565    1.7296 C   0  0  0  0  0  0  0  0  0  0  0  0
    1.0285   -0.1699    2.1459 O   0  0  0  0  0  0  0  0  0  0  0  0
   -1.0395    0.6588    2.4785 N   0  0  0  0  0  0  0  0  0  0  0  0
   -1.9636    0.7597    2.0849 H   0  0  0  0  0  0  0  0  0  0  0  0
   -0.8222    1.1334    3.8425 C   0  0  0  0  0  0  0  0  0  0  0  0
   -0.0212    1.8761    3.8521 H   0  0  0  0  0  0  0  0  0  0  0  0
   -1.7349    1.5853    4.2320 H   0  0  0  0  0  0  0  0  0  0  0  0
   -0.5312    0.2997    4.4834 H   0  0  0  0  0  0  0  0  0  0  0  0
  5  6  2  0  0  0  0
  5  7  1  0  0  0  0
  2  3  1  0  0  0  0
  2  4  1  0  0  0  0
  2  5  1  0  0  0  0
  1  2  1  0  0  0  0
 22 23  2  0  0  0  0
 22 24  1  0  0  0  0
 20 21  1  0  0  0  0
 19 20  1  0  0  0  0
 17 18  1  0  0  0  0
 17 19  2  0  0  0  0
 15 16  1  0  0  0  0
 15 17  1  0  0  0  0
 14 15  1  0  0  0  0
 14 20  2  0  0  0  0
 11 12  1  0  0  0  0
 11 13  1  0  0  0  0
 11 14  1  0  0  0  0
  9 10  1  0  0  0  0
  9 11  1  0  0  0  0
  9 22  1  0  0  0  0
  7  8  1  0  0  0  0
  7  9  1  0  0  0  0
 26 27  1  0  0  0  0
 26 28  1  0  0  0  0
 26 29  1  0  0  0  0
 24 25  1  0  0  0  0
 24 26  1  0  0  0  0
M  END
$$$$
default_name
  -OEChem-02102213163D

 29 29  0     1  0  0  0  0  0999 V2000
   -3.6042   -3.5728    1.4576 H   0  0  0  0  0  0  0  0  0  0  0  0
   -3.5202   -2.6488    0.8866 C   0  0  0  0  0  0  0  0  0  0  0  0
   -4.2052   -1.9048    1.2896 H   0  0  0  0  0  0  0  0  0  0  0  0
   -3.7552   -2.8428   -0.1584 H   0  0  0  0  0  0  0  0  0  0  0  0
   -2.1052   -2.1358    0.9946 C   0  0  0  0  0  0  0  0  0  0  0  0
   -1.2852   -2.7288    1.6826 O   0  0  0  0  0  0  0  0  0  0  0  0
   -1.8202   -1.0288    0.3146 N   0  0  0  0  0  0  0  0  0  0  0  0
   -2.5542   -0.5788   -0.2104 H   0  0  0  0  0  0  0  0  0  0  0  0
   -0.5102   -0.3728    0.3086 C   0  0  1  0  0  0  0  0  0  0  0  0
    0.2354   -1.0844   -0.0490 H   0  0  0  0  0  0  0  0  0  0  0  0
   -0.5452    0.8158   -0.6698 C   0  0  0  0  0  0  0  0  0  0  0  0
    0.1893    0.6499   -1.4599 H   0  0  0  0  0  0  0  0  0  0  0  0
   -1.5319    0.8656   -1.1339 H   0  0  0  0  0  0  0  0  0  0  0  0
   -0.2562    2.1430   -0.0178 C   0  0  0  0  0  0  0  0  0  0  0  0
   -1.1777    3.1244    0.2783 N   0  0  0  0  0  0  0  0  0  0  0  0
   -2.1554    3.1172    0.0288 H   0  0  0  0  0  0  0  0  0  0  0  0
   -0.5452    4.0982    0.9542 C   0  0  0  0  0  0  0  0  0  0  0  0
   -1.0059    5.0081    1.3189 H   0  0  0  0  0  0  0  0  0  0  0  0
    0.7479    3.7838    1.1203 N   0  0  0  0  0  0  0  0  0  0  0  0
    0.9446    2.5456    0.5033 C   0  0  0  0  0  0  0  0  0  0  0  0
    1.8707    1.9864    0.4737 H   0  0  0  0  0  0  0  0  0  0  0  0
   -0.1073    0.0565    1.7296 C   0  0  0  0  0  0  0  0  0  0  0  0
    1.0285   -0.1699    2.1459 O   0  0  0  0  0  0  0  0  0  0  0  0
   -1.0395    0.6588    2.4785 N   0  0  0  0  0  0  0  0  0  0  0  0
   -1.9636    0.7597    2.0849 H   0  0  0  0  0  0  0  0  0  0  0  0
   -0.8222    1.1334    3.8425 C   0  0  0  0  0  0  0  0  0  0  0  0
   -0.0212    1.8761    3.8521 H   0  0  0  0  0  0  0  0  0  0  0  0
   -1.7349    1.5853    4.2320 H   0  0  0  0  0  0  0  0  0  0  0  0
   -0.5312    0.2997    4.4834 H   0  0  0  0  0  0  0  0  0  0  0  0
  5  6  2  0  0  0  0
  5  7  1  0  0  0  0
  2  3  1  0  0  0  0
  2  4  1  0  0  0  0
  2  5  1  0  0  0  0
  1  2  1  0  0  0  0
 22 23  2  0  0  0  0
 22 24  1  0  0  0  0
 20 21  1  0  0  0  0
 19 20  1  0  0  0  0
 17 18  1  0  0  0  0
 17 19  2  0  0  0  0
 15 16  1  0  0  0  0
 15 17  1  0  0  0  0
 14 15  1  0  0  0  0
 14 20  2  0  0  0  0
 11 12  1  0  0  0  0
 11 13  1  0  0  0  0
 11 14  1  0  0  0  0
  9 10  1  0  0  0  0
  9 11  1  0  0  0  0
  9 22  1  0  0  0  0
  7  8  1  0  0  0  0
  7  9  1  0  0  0  0
 26 27  1  0  0  0  0
 26 28  1  0  0  0  0
 26 29  1  0  0  0  0
 24 25  1  0  0  0  0
 24 26  1  0  0  0  0
M  END
$$$$
default_name
  -OEChem-02102213163D

 29 29  0     1  0  0  0  0  0999 V2000
   -3.6042   -3.5728    1.4576 H   0  0  0  0  0  0  0  0  0  0  0  0
   -3.5202   -2.6488    0.8866 C   0  0  0  0  0  0  0  0  0  0  0  0
   -4.2052   -1.9048    1.2896 H   0  0  0  0  0  0  0  0  0  0  0  0
   -3.7552   -2.8428   -0.1584 H   0  0  0  0  0  0  0  0  0  0  0  0
   -2.1052   -2.1358    0.9946 C   0  0  0  0  0  0  0  0  0  0  0  0
   -1.2852   -2.7288    1.6826 O   0  0  0  0  0  0  0  0  0  0  0  0
   -1.8202   -1.0288    0.3146 N   0  0  0  0  0  0  0  0  0  0  0  0
   -2.5542   -0.5788   -0.2104 H   0  0  0  0  0  0  0  0  0  0  0  0
   -0.5102   -0.3728    0.3086 C   0  0  1  0  0  0  0  0  0  0  0  0
    0.2354   -1.0844   -0.0490 H   0  0  0  0  0  0  0  0  0  0  0  0
   -0.5452    0.8158   -0.6698 C   0  0  0  0  0  0  0  0  0  0  0  0
    0.1893    0.6499   -1.4599 H   0  0  0  0  0  0  0  0  0  0  0  0
   -1.5319    0.8656   -1.1339 H   0  0  0  0  0  0  0  0  0  0  0  0
   -0.2562    2.1430   -0.0178 C   0  0  0  0  0  0  0  0  0  0  0  0
   -1.1834    2.9975    0.5390 N   0  0  0  0  0  0  0  0  0  0  0  0
   -2.1858    2.8844    0.5161 H   0  0  0  0  0  0  0  0  0  0  0  0
   -0.5191    4.0136    1.1148 C   0  0  0  0  0  0  0  0  0  0  0  0
   -0.9772    4.8490    1.6302 H   0  0  0  0  0  0  0  0  0  0  0  0
    0.8033    3.8478    0.9655 N   0  0  0  0  0  0  0  0  0  0  0  0
    0.9827    2.6649    0.2437 C   0  0  0  0  0  0  0  0  0  0  0  0
    1.9310    2.2200   -0.0286 H   0  0  0  0  0  0  0  0  0  0  0  0
   -0.1073    0.0565    1.7296 C   0  0  0  0  0  0  0  0  0  0  0  0
    1.0285   -0.1699    2.1459 O   0  0  0  0  0  0  0  0  0  0  0  0
   -1.0395    0.6588    2.4785 N   0  0  0  0  0  0  0  0  0  0  0  0
   -1.9636    0.7597    2.0849 H   0  0  0  0  0  0  0  0  0  0  0  0
   -0.8222    1.1334    3.8425 C   0  0  0  0  0  0  0  0  0  0  0  0
   -0.0212    1.8761    3.8521 H   0  0  0  0  0  0  0  0  0  0  0  0
   -1.7349    1.5853    4.2320 H   0  0  0  0  0  0  0  0  0  0  0  0
   -0.5312    0.2997    4.4834 H   0  0  0  0  0  0  0  0  0  0  0  0
  5  6  2  0  0  0  0
  5  7  1  0  0  0  0
  2  3  1  0  0  0  0
  2  4  1  0  0  0  0
  2  5  1  0  0  0  0
  1  2  1  0  0  0  0
 22 23  2  0  0  0  0
 22 24  1  0  0  0  0
 20 21  1  0  0  0  0
 19 20  1  0  0  0  0
 17 18  1  0  0  0  0
 17 19  2  0  0  0  0
 15 16  1  0  0  0  0
 15 17  1  0  0  0  0
 14 15  1  0  0  0  0
 14 20  2  0  0  0  0
 11 12  1  0  0  0  0
 11 13  1  0  0  0  0
 11 14  1  0  0  0  0
  9 10  1  0  0  0  0
  9 11  1  0  0  0  0
  9 22  1  0  0  0  0
  7  8  1  0  0  0  0
  7  9  1  0  0  0  0
 26 27  1  0  0  0  0
 26 28  1  0  0  0  0
 26 29  1  0  0  0  0
 24 25  1  0  0  0  0
 24 26  1  0  0  0  0
M  END
$$$$
default_name
  -OEChem-02102213163D

 29 29  0     1  0  0  0  0  0999 V2000
   -3.6042   -3.5728    1.4576 H   0  0  0  0  0  0  0  0  0  0  0  0
   -3.5202   -2.6488    0.8866 C   0  0  0  0  0  0  0  0  0  0  0  0
   -4.2052   -1.9048    1.2896 H   0  0  0  0  0  0  0  0  0  0  0  0
   -3.7552   -2.8428   -0.1584 H   0  0  0  0  0  0  0  0  0  0  0  0
   -2.1052   -2.1358    0.9946 C   0  0  0  0  0  0  0  0  0  0  0  0
   -1.2852   -2.7288    1.6826 O   0  0  0  0  0  0  0  0  0  0  0  0
   -1.8202   -1.0288    0.3146 N   0  0  0  0  0  0  0  0  0  0  0  0
   -2.5542   -0.5788   -0.2104 H   0  0  0  0  0  0  0  0  0  0  0  0
   -0.5102   -0.3728    0.3086 C   0  0  1  0  0  0  0  0  0  0  0  0
    0.2354   -1.0844   -0.0490 H   0  0  0  0  0  0  0  0  0  0  0  0
   -0.5452    0.8158   -0.6698 C   0  0  0  0  0  0  0  0  0  0  0  0
    0.1893    0.6499   -1.4599 H   0  0  0  0  0  0  0  0  0  0  0  0
   -1.5319    0.8656   -1.1339 H   0  0  0  0  0  0  0  0  0  0  0  0
   -0.2562    2.1430   -0.0178 C   0  0  0  0  0  0  0  0  0  0  0  0
   -1.1153    2.8614    0.7859 N   0  0  0  0  0  0  0  0  0  0  0  0
   -2.0780    2.6319    0.9823 H   0  0  0  0  0  0  0  0  0  0  0  0
   -0.4478    3.9269    1.2598 C   0  0  0  0  0  0  0  0  0  0  0  0
   -0.8606    4.6830    1.9164 H   0  0  0  0  0  0  0  0  0  0  0  0
    0.8143    3.9235    0.8065 N   0  0  0  0  0  0  0  0  0  0  0  0
    0.9469    2.7972   -0.0098 C   0  0  0  0  0  0  0  0  0  0  0  0
    1.8485    2.4774   -0.5160 H   0  0  0  0  0  0  0  0  0  0  0  0
   -0.1073    0.0565    1.7296 C   0  0  0  0  0  0  0  0  0  0  0  0
    1.0285   -0.1699    2.1459 O   0  0  0  0  0  0  0  0  0  0  0  0
   -1.0395    0.6588    2.4785 N   0  0  0  0  0  0  0  0  0  0  0  0
   -1.9636    0.7597    2.0849 H   0  0  0  0  0  0  0  0  0  0  0  0
   -0.8222    1.1334    3.8425 C   0  0  0  0  0  0  0  0  0  0  0  0
   -0.0212    1.8761    3.8521 H   0  0  0  0  0  0  0  0  0  0  0  0
   -1.7349    1.5853    4.2320 H   0  0  0  0  0  0  0  0  0  0  0  0
   -0.5312    0.2997    4.4834 H   0  0  0  0  0  0  0  0  0  0  0  0
  5  6  2  0  0  0  0
  5  7  1  0  0  0  0
  2  3  1  0  0  0  0
  2  4  1  0  0  0  0
  2  5  1  0  0  0  0
  1  2  1  0  0  0  0
 22 23  2  0  0  0  0
 22 24  1  0  0  0  0
 20 21  1  0  0  0  0
 19 20  1  0  0  0  0
 17 18  1  0  0  0  0
 17 19  2  0  0  0  0
 15 16  1  0  0  0  0
 15 17  1  0  0  0  0
 14 15  1  0  0  0  0
 14 20  2  0  0  0  0
 11 12  1  0  0  0  0
 11 13  1  0  0  0  0
 11 14  1  0  0  0  0
  9 10  1  0  0  0  0
  9 11  1  0  0  0  0
  9 22  1  0  0  0  0
  7  8  1  0  0  0  0
  7  9  1  0  0  0  0
 26 27  1  0  0  0  0
 26 28  1  0  0  0  0
 26 29  1  0  0  0  0
 24 25  1  0  0  0  0
 24 26  1  0  0  0  0
M  END
$$$$
default_name
  -OEChem-02102213163D

 29 29  0     1  0  0  0  0  0999 V2000
   -3.6042   -3.5728    1.4576 H   0  0  0  0  0  0  0  0  0  0  0  0
   -3.5202   -2.6488    0.8866 C   0  0  0  0  0  0  0  0  0  0  0  0
   -4.2052   -1.9048    1.2896 H   0  0  0  0  0  0  0  0  0  0  0  0
   -3.7552   -2.8428   -0.1584 H   0  0  0  0  0  0  0  0  0  0  0  0
   -2.1052   -2.1358    0.9946 C   0  0  0  0  0  0  0  0  0  0  0  0
   -1.2852   -2.7288    1.6826 O   0  0  0  0  0  0  0  0  0  0  0  0
   -1.8202   -1.0288    0.3146 N   0  0  0  0  0  0  0  0  0  0  0  0
   -2.5542   -0.5788   -0.2104 H   0  0  0  0  0  0  0  0  0  0  0  0
   -0.5102   -0.3728    0.3086 C   0  0  1  0  0  0  0  0  0  0  0  0
    0.2354   -1.0844   -0.0490 H   0  0  0  0  0  0  0  0  0  0  0  0
   -0.5452    0.8158   -0.6698 C   0  0  0  0  0  0  0  0  0  0  0  0
    0.1893    0.6499   -1.4599 H   0  0  0  0  0  0  0  0  0  0  0  0
   -1.5319    0.8656   -1.1339 H   0  0  0  0  0  0  0  0  0  0  0  0
   -0.2562    2.1430   -0.0178 C   0  0  0  0  0  0  0  0  0  0  0  0
   -0.9779    2.7253    1.0021 N   0  0  0  0  0  0  0  0  0  0  0  0
   -1.8394    2.3770    1.3954 H   0  0  0  0  0  0  0  0  0  0  0  0
   -0.3361    3.8439    1.3793 C   0  0  0  0  0  0  0  0  0  0  0  0
   -0.6642    4.5215    2.1580 H   0  0  0  0  0  0  0  0  0  0  0  0
    0.7803    4.0058    0.6541 N   0  0  0  0  0  0  0  0  0  0  0  0
    0.8398    2.9336   -0.2399 C   0  0  0  0  0  0  0  0  0  0  0  0
    1.6289    2.7410   -0.9551 H   0  0  0  0  0  0  0  0  0  0  0  0
   -0.1073    0.0565    1.7296 C   0  0  0  0  0  0  0  0  0  0  0  0
    1.0285   -0.1699    2.1459 O   0  0  0  0  0  0  0  0  0  0  0  0
   -1.0395    0.6588    2.4785 N   0  0  0  0  0  0  0  0  0  0  0  0
   -1.9636    0.7597    2.0849 H   0  0  0  0  0  0  0  0  0  0  0  0
   -0.8222    1.1334    3.8425 C   0  0  0  0  0  0  0  0  0  0  0  0
   -0.0212    1.8761    3.8521 H   0  0  0  0  0  0  0  0  0  0  0  0
   -1.7349    1.5853    4.2320 H   0  0  0  0  0  0  0  0  0  0  0  0
   -0.5312    0.2997    4.4834 H   0  0  0  0  0  0  0  0  0  0  0  0
  5  6  2  0  0  0  0
  5  7  1  0  0  0  0
  2  3  1  0  0  0  0
  2  4  1  0  0  0  0
  2  5  1  0  0  0  0
  1  2  1  0  0  0  0
 22 23  2  0  0  0  0
 22 24  1  0  0  0  0
 20 21  1  0  0  0  0
 19 20  1  0  0  0  0
 17 18  1  0  0  0  0
 17 19  2  0  0  0  0
 15 16  1  0  0  0  0
 15 17  1  0  0  0  0
 14 15  1  0  0  0  0
 14 20  2  0  0  0  0
 11 12  1  0  0  0  0
 11 13  1  0  0  0  0
 11 14  1  0  0  0  0
  9 10  1  0  0  0  0
  9 11  1  0  0  0  0
  9 22  1  0  0  0  0
  7  8  1  0  0  0  0
  7  9  1  0  0  0  0
 26 27  1  0  0  0  0
 26 28  1  0  0  0  0
 26 29  1  0  0  0  0
 24 25  1  0  0  0  0
 24 26  1  0  0  0  0
M  END
$$$$
default_name
  -OEChem-02102213163D

 29 29  0     1  0  0  0  0  0999 V2000
   -3.6042   -3.5728    1.4576 H   0  0  0  0  0  0  0  0  0  0  0  0
   -3.5202   -2.6488    0.8866 C   0  0  0  0  0  0  0  0  0  0  0  0
   -4.2052   -1.9048    1.2896 H   0  0  0  0  0  0  0  0  0  0  0  0
   -3.7552   -2.8428   -0.1584 H   0  0  0  0  0  0  0  0  0  0  0  0
   -2.1052   -2.1358    0.9946 C   0  0  0  0  0  0  0  0  0  0  0  0
   -1.2852   -2.7288    1.6826 O   0  0  0  0  0  0  0  0  0  0  0  0
   -1.8202   -1.0288    0.3146 N   0  0  0  0  0  0  0  0  0  0  0  0
   -2.5542   -0.5788   -0.2104 H   0  0  0  0  0  0  0  0  0  0  0  0
   -0.5102   -0.3728    0.3086 C   0  0  1  0  0  0  0  0  0  0  0  0
    0.2354   -1.0844   -0.0490 H   0  0  0  0  0  0  0  0  0  0  0  0
   -0.5452    0.8158   -0.6698 C   0  0  0  0  0  0  0  0  0  0  0  0
    0.1893    0.6499   -1.4599 H   0  0  0  0  0  0  0  0  0  0  0  0
   -1.5319    0.8656   -1.1339 H   0  0  0  0  0  0  0  0  0  0  0  0
   -0.2562    2.1430   -0.0178 C   0  0  0  0  0  0  0  0  0  0  0  0
   -0.7807    2.5985    1.1728 N   0  0  0  0  0  0  0  0  0  0  0  0
   -1.4861    2.1370    1.7274 H   0  0  0  0  0  0  0  0  0  0  0  0
   -0.1917    3.7703    1.4651 C   0  0  0  0  0  0  0  0  0  0  0  0
   -0.4013    4.3755    2.3386 H   0  0  0  0  0  0  0  0  0  0  0  0
    0.7034    4.0890    0.5188 N   0  0  0  0  0  0  0  0  0  0  0  0
    0.6686    3.0647   -0.4310 C   0  0  0  0  0  0  0  0  0  0  0  0
    1.2872    2.9928   -1.3162 H   0  0  0  0  0  0  0  0  0  0  0  0
   -0.1073    0.0565    1.7296 C   0  0  0  0  0  0  0  0  0  0  0  0
    1.0285   -0.1699    2.1459 O   0  0  0  0  0  0  0  0  0  0  0  0
   -1.0395    0.6588    2.4785 N   0  0  0  0  0  0  0  0  0  0  0  0
   -1.9636    0.7597    2.0849 H   0  0  0  0  0  0  0  0  0  0  0  0
   -0.8222    1.1334    3.8425 C   0  0  0  0  0  0  0  0  0  0  0  0
   -0.0212    1.8761    3.8521 H   0  0  0  0  0  0  0  0  0  0  0  0
   -1.7349    1.5853    4.2320 H   0  0  0  0  0  0  0  0  0  0  0  0
   -0.5312    0.2997    4.4834 H   0  0  0  0  0  0  0  0  0  0  0  0
  5  6  2  0  0  0  0
  5  7  1  0  0  0  0
  2  3  1  0  0  0  0
  2  4  1  0  0  0  0
  2  5  1  0  0  0  0
  1  2  1  0  0  0  0
 22 23  2  0  0  0  0
 22 24  1  0  0  0  0
 20 21  1  0  0  0  0
 19 20  1  0  0  0  0
 17 18  1  0  0  0  0
 17 19  2  0  0  0  0
 15 16  1  0  0  0  0
 15 17  1  0  0  0  0
 14 15  1  0  0  0  0
 14 20  2  0  0  0  0
 11 12  1  0  0  0  0
 11 13  1  0  0  0  0
 11 14  1  0  0  0  0
  9 10  1  0  0  0  0
  9 11  1  0  0  0  0
  9 22  1  0  0  0  0
  7  8  1  0  0  0  0
  7  9  1  0  0  0  0
 26 27  1  0  0  0  0
 26 28  1  0  0  0  0
 26 29  1  0  0  0  0
 24 25  1  0  0  0  0
 24 26  1  0  0  0  0
M  END
$$$$
default_name
  -OEChem-02102213163D

 29 29  0     1  0  0  0  0  0999 V2000
   -3.6042   -3.5728    1.4576 H   0  0  0  0  0  0  0  0  0  0  0  0
   -3.5202   -2.6488    0.8866 C   0  0  0  0  0  0  0  0  0  0  0  0
   -4.2052   -1.9048    1.2896 H   0  0  0  0  0  0  0  0  0  0  0  0
   -3.7552   -2.8428   -0.1584 H   0  0  0  0  0  0  0  0  0  0  0  0
   -2.1052   -2.1358    0.9946 C   0  0  0  0  0  0  0  0  0  0  0  0
   -1.2852   -2.7288    1.6826 O   0  0  0  0  0  0  0  0  0  0  0  0
   -1.8202   -1.0288    0.3146 N   0  0  0  0  0  0  0  0  0  0  0  0
   -2.5542   -0.5788   -0.2104 H   0  0  0  0  0  0  0  0  0  0  0  0
   -0.5102   -0.3728    0.3086 C   0  0  1  0  0  0  0  0  0  0  0  0
    0.2354   -1.0844   -0.0490 H   0  0  0  0  0  0  0  0  0  0  0  0
   -0.5452    0.8158   -0.6698 C   0  0  0  0  0  0  0  0  0  0  0  0
    0.1893    0.6499   -1.4599 H   0  0  0  0  0  0  0  0  0  0  0  0
   -1.5319    0.8656   -1.1339 H   0  0  0  0  0  0  0  0  0  0  0  0
   -0.2562    2.1430   -0.0178 C   0  0  0  0  0  0  0  0  0  0  0  0
   -0.5370    2.4896    1.2865 N   0  0  0  0  0  0  0  0  0  0  0  0
   -1.0423    1.9282    1.9556 H   0  0  0  0  0  0  0  0  0  0  0  0
   -0.0244    3.7111    1.5115 C   0  0  0  0  0  0  0  0  0  0  0  0
   -0.0899    4.2550    2.4459 H   0  0  0  0  0  0  0  0  0  0  0  0
    0.5890    4.1674    0.4098 N   0  0  0  0  0  0  0  0  0  0  0  0
    0.4449    3.1817   -0.5700 C   0  0  0  0  0  0  0  0  0  0  0  0
    0.8466    3.2156   -1.5745 H   0  0  0  0  0  0  0  0  0  0  0  0
   -0.1073    0.0565    1.7296 C   0  0  0  0  0  0  0  0  0  0  0  0
    1.0285   -0.1699    2.1459 O   0  0  0  0  0  0  0  0  0  0  0  0
   -1.0395    0.6588    2.4785 N   0  0  0  0  0  0  0  0  0  0  0  0
   -1.9636    0.7597    2.0849 H   0  0  0  0  0  0  0  0  0  0  0  0
   -0.8222    1.1334    3.8425 C   0  0  0  0  0  0  0  0  0  0  0  0
   -0.0212    1.8761    3.8521 H   0  0  0  0  0  0  0  0  0  0  0  0
   -1.7349    1.5853    4.2320 H   0  0  0  0  0  0  0  0  0  0  0  0
   -0.5312    0.2997    4.4834 H   0  0  0  0  0  0  0  0  0  0  0  0
  5  6  2  0  0  0  0
  5  7  1  0  0  0  0
  2  3  1  0  0  0  0
  2  4  1  0  0  0  0
  2  5  1  0  0  0  0
  1  2  1  0  0  0  0
 22 23  2  0  0  0  0
 22 24  1  0  0  0  0
 20 21  1  0  0  0  0
 19 20  1  0  0  0  0
 17 18  1  0  0  0  0
 17 19  2  0  0  0  0
 15 16  1  0  0  0  0
 15 17  1  0  0  0  0
 14 15  1  0  0  0  0
 14 20  2  0  0  0  0
 11 12  1  0  0  0  0
 11 13  1  0  0  0  0
 11 14  1  0  0  0  0
  9 10  1  0  0  0  0
  9 11  1  0  0  0  0
  9 22  1  0  0  0  0
  7  8  1  0  0  0  0
  7  9  1  0  0  0  0
 26 27  1  0  0  0  0
 26 28  1  0  0  0  0
 26 29  1  0  0  0  0
 24 25  1  0  0  0  0
 24 26  1  0  0  0  0
M  END
$$$$
default_name
  -OEChem-02102213163D

 29 29  0     1  0  0  0  0  0999 V2000
   -3.6042   -3.5728    1.4576 H   0  0  0  0  0  0  0  0  0  0  0  0
   -3.5202   -2.6488    0.8866 C   0  0  0  0  0  0  0  0  0  0  0  0
   -4.2052   -1.9048    1.2896 H   0  0  0  0  0  0  0  0  0  0  0  0
   -3.7552   -2.8428   -0.1584 H   0  0  0  0  0  0  0  0  0  0  0  0
   -2.1052   -2.1358    0.9946 C   0  0  0  0  0  0  0  0  0  0  0  0
   -1.2852   -2.7288    1.6826 O   0  0  0  0  0  0  0  0  0  0  0  0
   -1.8202   -1.0288    0.3146 N   0  0  0  0  0  0  0  0  0  0  0  0
   -2.5542   -0.5788   -0.2104 H   0  0  0  0  0  0  0  0  0  0  0  0
   -0.5102   -0.3728    0.3086 C   0  0  1  0  0  0  0  0  0  0  0  0
    0.2354   -1.0844   -0.0490 H   0  0  0  0  0  0  0  0  0  0  0  0
   -0.5452    0.8158   -0.6698 C   0  0  0  0  0  0  0  0  0  0  0  0
    0.1893    0.6499   -1.4599 H   0  0  0  0  0  0  0  0  0  0  0  0
   -1.5319    0.8656   -1.1339 H   0  0  0  0  0  0  0  0  0  0  0  0
   -0.2562    2.1430   -0.0178 C   0  0  0  0  0  0  0  0  0  0  0  0
   -0.2636    2.4061    1.3353 N   0  0  0  0  0  0  0  0  0  0  0  0
   -0.5381    1.7649    2.0645 H   0  0  0  0  0  0  0  0  0  0  0  0
    0.1543    3.6703    1.5152 C   0  0  0  0  0  0  0  0  0  0  0  0
    0.2489    4.1682    2.4725 H   0  0  0  0  0  0  0  0  0  0  0  0
    0.4449    4.2358    0.3345 N   0  0  0  0  0  0  0  0  0  0  0  0
    0.1841    3.2766   -0.6475 C   0  0  0  0  0  0  0  0  0  0  0  0
    0.3371    3.3944   -1.7125 H   0  0  0  0  0  0  0  0  0  0  0  0
   -0.1073    0.0565    1.7296 C   0  0  0  0  0  0  0  0  0  0  0  0
    1.0285   -0.1699    2.1459 O   0  0  0  0  0  0  0  0  0  0  0  0
   -1.0395    0.6588    2.4785 N   0  0  0  0  0  0  0  0  0  0  0  0
   -1.9636    0.7597    2.0849 H   0  0  0  0  0  0  0  0  0  0  0  0
   -0.8222    1.1334    3.8425 C   0  0  0  0  0  0  0  0  0  0  0  0
   -0.0212    1.8761    3.8521 H   0  0  0  0  0  0  0  0  0  0  0  0
   -1.7349    1.5853    4.2320 H   0  0  0  0  0  0  0  0  0  0  0  0
   -0.5312    0.2997    4.4834 H   0  0  0  0  0  0  0  0  0  0  0  0
  5  6  2  0  0  0  0
  5  7  1  0  0  0  0
  2  3  1  0  0  0  0
  2  4  1  0  0  0  0
  2  5  1  0  0  0  0
  1  2  1  0  0  0  0
 22 23  2  0  0  0  0
 22 24  1  0  0  0  0
 20 21  1  0  0  0  0
 19 20  1  0  0  0  0
 17 18  1  0  0  0  0
 17 19  2  0  0  0  0
 15 16  1  0  0  0  0
 15 17  1  0  0  0  0
 14 15  1  0  0  0  0
 14 20  2  0  0  0  0
 11 12  1  0  0  0  0
 11 13  1  0  0  0  0
 11 14  1  0  0  0  0
  9 10  1  0  0  0  0
  9 11  1  0  0  0  0
  9 22  1  0  0  0  0
  7  8  1  0  0  0  0
  7  9  1  0  0  0  0
 26 27  1  0  0  0  0
 26 28  1  0  0  0  0
 26 29  1  0  0  0  0
 24 25  1  0  0  0  0
 24 26  1  0  0  0  0
M  END
$$$$
default_name
  -OEChem-02102213163D

 29 29  0     1  0  0  0  0  0999 V2000
   -3.6042   -3.5728    1.4576 H   0  0  0  0  0  0  0  0  0  0  0  0
   -3.5202   -2.6488    0.8866 C   0  0  0  0  0  0  0  0  0  0  0  0
   -4.2052   -1.9048    1.2896 H   0  0  0  0  0  0  0  0  0  0  0  0
   -3.7552   -2.8428   -0.1584 H   0  0  0  0  0  0  0  0  0  0  0  0
   -2.1052   -2.1358    0.9946 C   0  0  0  0  0  0  0  0  0  0  0  0
   -1.2852   -2.7288    1.6826 O   0  0  0  0  0  0  0  0  0  0  0  0
   -1.8202   -1.0288    0.3146 N   0  0  0  0  0  0  0  0  0  0  0  0
   -2.5542   -0.5788   -0.2104 H   0  0  0  0  0  0  0  0  0  0  0  0
   -0.5102   -0.3728    0.3086 C   0  0  1  0  0  0  0  0  0  0  0  0
    0.2354   -1.0844   -0.0490 H   0  0  0  0  0  0  0  0  0  0  0  0
   -0.5452    0.8158   -0.6698 C   0  0  0  0  0  0  0  0  0  0  0  0
    0.1893    0.6499   -1.4599 H   0  0  0  0  0  0  0  0  0  0  0  0
   -1.5319    0.8656   -1.1339 H   0  0  0  0  0  0  0  0  0  0  0  0
   -0.2562    2.1430   -0.0178 C   0  0  0  0  0  0  0  0  0  0  0  0
    0.0210    2.3536    1.3160 N   0  0  0  0  0  0  0  0  0  0  0  0
   -0.0081    1.6583    2.0466 H   0  0  0  0  0  0  0  0  0  0  0  0
    0.3324    3.6508    1.4760 C   0  0  0  0  0  0  0  0  0  0  0  0
    0.5920    4.1209    2.4166 H   0  0  0  0  0  0  0  0  0  0  0  0
    0.2809    4.2895    0.2979 N   0  0  0  0  0  0  0  0  0  0  0  0
   -0.0962    3.3429   -0.6582 C   0  0  0  0  0  0  0  0  0  0  0  0
   -0.2065    3.5168   -1.7208 H   0  0  0  0  0  0  0  0  0  0  0  0
   -0.1073    0.0565    1.7296 C   0  0  0  0  0  0  0  0  0  0  0  0
    1.0285   -0.1699    2.1459 O   0  0  0  0  0  0  0  0  0  0  0  0
   -1.0395    0.6588    2.4785 N   0  0  0  0  0  0  0  0  0  0  0  0
   -1.9636    0.7597    2.0849 H   0  0  0  0  0  0  0  0  0  0  0  0
   -0.8222    1.1334    3.8425 C   0  0  0  0  0  0  0  0  0  0  0  0
   -0.0212    1.8761    3.8521 H   0  0  0  0  0  0  0  0  0  0  0  0
   -1.7349    1.5853    4.2320 H   0  0  0  0  0  0  0  0  0  0  0  0
   -0.5312    0.2997    4.4834 H   0  0  0  0  0  0  0  0  0  0  0  0
  5  6  2  0  0  0  0
  5  7  1  0  0  0  0
  2  3  1  0  0  0  0
  2  4  1  0  0  0  0
  2  5  1  0  0  0  0
  1  2  1  0  0  0  0
 22 23  2  0  0  0  0
 22 24  1  0  0  0  0
 20 21  1  0  0  0  0
 19 20  1  0  0  0  0
 17 18  1  0  0  0  0
 17 19  2  0  0  0  0
 15 16  1  0  0  0  0
 15 17  1  0  0  0  0
 14 15  1  0  0  0  0
 14 20  2  0  0  0  0
 11 12  1  0  0  0  0
 11 13  1  0  0  0  0
 11 14  1  0  0  0  0
  9 10  1  0  0  0  0
  9 11  1  0  0  0  0
  9 22  1  0  0  0  0
  7  8  1  0  0  0  0
  7  9  1  0  0  0  0
 26 27  1  0  0  0  0
 26 28  1  0  0  0  0
 26 29  1  0  0  0  0
 24 25  1  0  0  0  0
 24 26  1  0  0  0  0
M  END
$$$$
default_name
  -OEChem-02102213163D

 29 29  0     1  0  0  0  0  0999 V2000
   -3.6042   -3.5728    1.4576 H   0  0  0  0  0  0  0  0  0  0  0  0
   -3.5202   -2.6488    0.8866 C   0  0  0  0  0  0  0  0  0  0  0  0
   -4.2052   -1.9048    1.2896 H   0  0  0  0  0  0  0  0  0  0  0  0
   -3.7552   -2.8428   -0.1584 H   0  0  0  0  0  0  0  0  0  0  0  0
   -2.1052   -2.1358    0.9946 C   0  0  0  0  0  0  0  0  0  0  0  0
   -1.2852   -2.7288    1.6826 O   0  0  0  0  0  0  0  0  0  0  0  0
   -1.8202   -1.0288    0.3146 N   0  0  0  0  0  0  0  0  0  0  0  0
   -2.5542   -0.5788   -0.2104 H   0  0  0  0  0  0  0  0  0  0  0  0
   -0.5102   -0.3728    0.3086 C   0  0  1  0  0  0  0  0  0  0  0  0
    0.2354   -1.0844   -0.0490 H   0  0  0  0  0  0  0  0  0  0  0  0
   -0.5452    0.8158   -0.6698 C   0  0  0  0  0  0  0  0  0  0  0  0
    0.1893    0.6499   -1.4599 H   0  0  0  0  0  0  0  0  0  0  0  0
   -1.5319    0.8656   -1.1339 H   0  0  0  0  0  0  0  0  0  0  0  0
   -0.2562    2.1430   -0.0178 C   0  0  0  0  0  0  0  0  0  0  0  0
    0.2974    2.3357    1.2298 N   0  0  0  0  0  0  0  0  0  0  0  0
    0.5118    1.6155    1.9032 H   0  0  0  0  0  0  0  0  0  0  0  0
    0.4977    3.6538    1.3965 C   0  0  0  0  0  0  0  0  0  0  0  0
    0.9159    4.1164    2.2821 H   0  0  0  0  0  0  0  0  0  0  0  0
    0.1081    4.3248    0.3027 N   0  0  0  0  0  0  0  0  0  0  0  0
   -0.3767    3.3760   -0.6013 C   0  0  0  0  0  0  0  0  0  0  0  0
   -0.7471    3.5746   -1.5987 H   0  0  0  0  0  0  0  0  0  0  0  0
   -0.1073    0.0565    1.7296 C   0  0  0  0  0  0  0  0  0  0  0  0
    1.0285   -0.1699    2.1459 O   0  0  0  0  0  0  0  0  0  0  0  0
   -1.0395    0.6588    2.4785 N   0  0  0  0  0  0  0  0  0  0  0  0
   -1.9636    0.7597    2.0849 H   0  0  0  0  0  0  0  0  0  0  0  0
   -0.8222    1.1334    3.8425 C   0  0  0  0  0  0  0  0  0  0  0  0
   -0.0212    1.8761    3.8521 H   0  0  0  0  0  0  0  0  0  0  0  0
   -1.7349    1.5853    4.2320 H   0  0  0  0  0  0  0  0  0  0  0  0
   -0.5312    0.2997    4.4834 H   0  0  0  0  0  0  0  0  0  0  0  0
  5  6  2  0  0  0  0
  5  7  1  0  0  0  0
  2  3  1  0  0  0  0
  2  4  1  0  0  0  0
  2  5  1  0  0  0  0
  1  2  1  0  0  0  0
 22 23  2  0  0  0  0
 22 24  1  0  0  0  0
 20 21  1  0  0  0  0
 19 20  1  0  0  0  0
 17 18  1  0  0  0  0
 17 19  2  0  0  0  0
 15 16  1  0  0  0  0
 15 17  1  0  0  0  0
 14 15  1  0  0  0  0
 14 20  2  0  0  0  0
 11 12  1  0  0  0  0
 11 13  1  0  0  0  0
 11 14  1  0  0  0  0
  9 10  1  0  0  0  0
  9 11  1  0  0  0  0
  9 22  1  0  0  0  0
  7  8  1  0  0  0  0
  7  9  1  0  0  0  0
 26 27  1  0  0  0  0
 26 28  1  0  0  0  0
 26 29  1  0  0  0  0
 24 25  1  0  0  0  0
 24 26  1  0  0  0  0
M  END
$$$$
default_name
  -OEChem-02102213163D

 29 29  0     1  0  0  0  0  0999 V2000
   -3.6042   -3.5728    1.4576 H   0  0  0  0  0  0  0  0  0  0  0  0
   -3.5202   -2.6488    0.8866 C   0  0  0  0  0  0  0  0  0  0  0  0
   -4.2052   -1.9048    1.2896 H   0  0  0  0  0  0  0  0  0  0  0  0
   -3.7552   -2.8428   -0.1584 H   0  0  0  0  0  0  0  0  0  0  0  0
   -2.1052   -2.1358    0.9946 C   0  0  0  0  0  0  0  0  0  0  0  0
   -1.2852   -2.7288    1.6826 O   0  0  0  0  0  0  0  0  0  0  0  0
   -1.8202   -1.0288    0.3146 N   0  0  0  0  0  0  0  0  0  0  0  0
   -2.5542   -0.5788   -0.2104 H   0  0  0  0  0  0  0  0  0  0  0  0
   -0.5102   -0.3728    0.3086 C   0  0  1  0  0  0  0  0  0  0  0  0
    0.2354   -1.0844   -0.0490 H   0  0  0  0  0  0  0  0  0  0  0  0
   -0.5452    0.8158   -0.6698 C   0  0  0  0  0  0  0  0  0  0  0  0
    0.1893    0.6499   -1.4599 H   0  0  0  0  0  0  0  0  0  0  0  0
   -1.5319    0.8656   -1.1339 H   0  0  0  0  0  0  0  0  0  0  0  0
   -0.2562    2.1430   -0.0178 C   0  0  0  0  0  0  0  0  0  0  0  0
    0.5467    2.3537    1.0827 N   0  0  0  0  0  0  0  0  0  0  0  0
    0.9860    1.6395    1.6441 H   0  0  0  0  0  0  0  0  0  0  0  0
    0.6389    3.6792    1.2822 C   0  0  0  0  0  0  0  0  0  0  0  0
    1.1986    4.1551    2.0782 H   0  0  0  0  0  0  0  0  0  0  0  0
   -0.0617    4.3393    0.3485 N   0  0  0  0  0  0  0  0  0  0  0  0
   -0.6384    3.3738   -0.4808 C   0  0  0  0  0  0  0  0  0  0  0  0
   -1.2480    3.5638   -1.3548 H   0  0  0  0  0  0  0  0  0  0  0  0
   -0.1073    0.0565    1.7296 C   0  0  0  0  0  0  0  0  0  0  0  0
    1.0285   -0.1699    2.1459 O   0  0  0  0  0  0  0  0  0  0  0  0
   -1.0395    0.6588    2.4785 N   0  0  0  0  0  0  0  0  0  0  0  0
   -1.9636    0.7597    2.0849 H   0  0  0  0  0  0  0  0  0  0  0  0
   -0.8222    1.1334    3.8425 C   0  0  0  0  0  0  0  0  0  0  0  0
   -0.0212    1.8761    3.8521 H   0  0  0  0  0  0  0  0  0  0  0  0
   -1.7349    1.5853    4.2320 H   0  0  0  0  0  0  0  0  0  0  0  0
   -0.5312    0.2997    4.4834 H   0  0  0  0  0  0  0  0  0  0  0  0
  5  6  2  0  0  0  0
  5  7  1  0  0  0  0
  2  3  1  0  0  0  0
  2  4  1  0  0  0  0
  2  5  1  0  0  0  0
  1  2  1  0  0  0  0
 22 23  2  0  0  0  0
 22 24  1  0  0  0  0
 20 21  1  0  0  0  0
 19 20  1  0  0  0  0
 17 18  1  0  0  0  0
 17 19  2  0  0  0  0
 15 16  1  0  0  0  0
 15 17  1  0  0  0  0
 14 15  1  0  0  0  0
 14 20  2  0  0  0  0
 11 12  1  0  0  0  0
 11 13  1  0  0  0  0
 11 14  1  0  0  0  0
  9 10  1  0  0  0  0
  9 11  1  0  0  0  0
  9 22  1  0  0  0  0
  7  8  1  0  0  0  0
  7  9  1  0  0  0  0
 26 27  1  0  0  0  0
 26 28  1  0  0  0  0
 26 29  1  0  0  0  0
 24 25  1  0  0  0  0
 24 26  1  0  0  0  0
M  END
$$$$
default_name
  -OEChem-02102213163D

 29 29  0     1  0  0  0  0  0999 V2000
   -3.6042   -3.5728    1.4576 H   0  0  0  0  0  0  0  0  0  0  0  0
   -3.5202   -2.6488    0.8866 C   0  0  0  0  0  0  0  0  0  0  0  0
   -4.2052   -1.9048    1.2896 H   0  0  0  0  0  0  0  0  0  0  0  0
   -3.7552   -2.8428   -0.1584 H   0  0  0  0  0  0  0  0  0  0  0  0
   -2.1052   -2.1358    0.9946 C   0  0  0  0  0  0  0  0  0  0  0  0
   -1.2852   -2.7288    1.6826 O   0  0  0  0  0  0  0  0  0  0  0  0
   -1.8202   -1.0288    0.3146 N   0  0  0  0  0  0  0  0  0  0  0  0
   -2.5542   -0.5788   -0.2104 H   0  0  0  0  0  0  0  0  0  0  0  0
   -0.5102   -0.3728    0.3086 C   0  0  1  0  0  0  0  0  0  0  0  0
    0.2354   -1.0844   -0.0490 H   0  0  0  0  0  0  0  0  0  0  0  0
   -0.5452    0.8158   -0.6698 C   0  0  0  0  0  0  0  0  0  0  0  0
    0.1893    0.6499   -1.4599 H   0  0  0  0  0  0  0  0  0  0  0  0
   -1.5319    0.8656   -1.1339 H   0  0  0  0  0  0  0  0  0  0  0  0
   -0.2562    2.1430   -0.0178 C   0  0  0  0  0  0  0  0  0  0  0  0
    0.7520    2.4063    0.8846 N   0  0  0  0  0  0  0  0  0  0  0  0
    1.3823    1.7287    1.2868 H   0  0  0  0  0  0  0  0  0  0  0  0
    0.7464    3.7253    1.1409 C   0  0  0  0  0  0  0  0  0  0  0  0
    1.4209    4.2342    1.8186 H   0  0  0  0  0  0  0  0  0  0  0  0
   -0.2169    4.3320    0.4321 N   0  0  0  0  0  0  0  0  0  0  0  0
   -0.8635    3.3364   -0.3048 C   0  0  0  0  0  0  0  0  0  0  0  0
   -1.6750    3.4852   -1.0054 H   0  0  0  0  0  0  0  0  0  0  0  0
   -0.1073    0.0565    1.7296 C   0  0  0  0  0  0  0  0  0  0  0  0
    1.0285   -0.1699    2.1459 O   0  0  0  0  0  0  0  0  0  0  0  0
   -1.0395    0.6588    2.4785 N   0  0  0  0  0  0  0  0  0  0  0  0
   -1.9636    0.7597    2.0849 H   0  0  0  0  0  0  0  0  0  0  0  0
   -0.8222    1.1334    3.8425 C   0  0  0  0  0  0  0  0  0  0  0  0
   -0.0212    1.8761    3.8521 H   0  0  0  0  0  0  0  0  0  0  0  0
   -1.7349    1.5853    4.2320 H   0  0  0  0  0  0  0  0  0  0  0  0
   -0.5312    0.2997    4.4834 H   0  0  0  0  0  0  0  0  0  0  0  0
  5  6  2  0  0  0  0
  5  7  1  0  0  0  0
  2  3  1  0  0  0  0
  2  4  1  0  0  0  0
  2  5  1  0  0  0  0
  1  2  1  0  0  0  0
 22 23  2  0  0  0  0
 22 24  1  0  0  0  0
 20 21  1  0  0  0  0
 19 20  1  0  0  0  0
 17 18  1  0  0  0  0
 17 19  2  0  0  0  0
 15 16  1  0  0  0  0
 15 17  1  0  0  0  0
 14 15  1  0  0  0  0
 14 20  2  0  0  0  0
 11 12  1  0  0  0  0
 11 13  1  0  0  0  0
 11 14  1  0  0  0  0
  9 10  1  0  0  0  0
  9 11  1  0  0  0  0
  9 22  1  0  0  0  0
  7  8  1  0  0  0  0
  7  9  1  0  0  0  0
 26 27  1  0  0  0  0
 26 28  1  0  0  0  0
 26 29  1  0  0  0  0
 24 25  1  0  0  0  0
 24 26  1  0  0  0  0
M  END
$$$$
default_name
  -OEChem-02102213163D

 29 29  0     1  0  0  0  0  0999 V2000
   -3.6042   -3.5728    1.4576 H   0  0  0  0  0  0  0  0  0  0  0  0
   -3.5202   -2.6488    0.8866 C   0  0  0  0  0  0  0  0  0  0  0  0
   -4.2052   -1.9048    1.2896 H   0  0  0  0  0  0  0  0  0  0  0  0
   -3.7552   -2.8428   -0.1584 H   0  0  0  0  0  0  0  0  0  0  0  0
   -2.1052   -2.1358    0.9946 C   0  0  0  0  0  0  0  0  0  0  0  0
   -1.2852   -2.7288    1.6826 O   0  0  0  0  0  0  0  0  0  0  0  0
   -1.8202   -1.0288    0.3146 N   0  0  0  0  0  0  0  0  0  0  0  0
   -2.5542   -0.5788   -0.2104 H   0  0  0  0  0  0  0  0  0  0  0  0
   -0.5102   -0.3728    0.3086 C   0  0  1  0  0  0  0  0  0  0  0  0
    0.2354   -1.0844   -0.0490 H   0  0  0  0  0  0  0  0  0  0  0  0
   -0.5452    0.8158   -0.6698 C   0  0  0  0  0  0  0  0  0  0  0  0
    0.1893    0.6499   -1.4599 H   0  0  0  0  0  0  0  0  0  0  0  0
   -1.5319    0.8656   -1.1339 H   0  0  0  0  0  0  0  0  0  0  0  0
   -0.2562    2.1430   -0.0178 C   0  0  0  0  0  0  0  0  0  0  0  0
    0.8992    2.4899    0.6491 N   0  0  0  0  0  0  0  0  0  0  0  0
    1.6737    1.8770    0.8559 H   0  0  0  0  0  0  0  0  0  0  0  0
    0.8128    3.7888    0.9822 C   0  0  0  0  0  0  0  0  0  0  0  0
    1.5675    4.3484    1.5211 H   0  0  0  0  0  0  0  0  0  0  0  0
   -0.3469    4.3034    0.5479 N   0  0  0  0  0  0  0  0  0  0  0  0
   -1.0366    3.2663   -0.0854 C   0  0  0  0  0  0  0  0  0  0  0  0
   -1.9990    3.3440   -0.5745 H   0  0  0  0  0  0  0  0  0  0  0  0
   -0.1073    0.0565    1.7296 C   0  0  0  0  0  0  0  0  0  0  0  0
    1.0285   -0.1699    2.1459 O   0  0  0  0  0  0  0  0  0  0  0  0
   -1.0395    0.6588    2.4785 N   0  0  0  0  0  0  0  0  0  0  0  0
   -1.9636    0.7597    2.0849 H   0  0  0  0  0  0  0  0  0  0  0  0
   -0.8222    1.1334    3.8425 C   0  0  0  0  0  0  0  0  0  0  0  0
   -0.0212    1.8761    3.8521 H   0  0  0  0  0  0  0  0  0  0  0  0
   -1.7349    1.5853    4.2320 H   0  0  0  0  0  0  0  0  0  0  0  0
   -0.5312    0.2997    4.4834 H   0  0  0  0  0  0  0  0  0  0  0  0
  5  6  2  0  0  0  0
  5  7  1  0  0  0  0
  2  3  1  0  0  0  0
  2  4  1  0  0  0  0
  2  5  1  0  0  0  0
  1  2  1  0  0  0  0
 22 23  2  0  0  0  0
 22 24  1  0  0  0  0
 20 21  1  0  0  0  0
 19 20  1  0  0  0  0
 17 18  1  0  0  0  0
 17 19  2  0  0  0  0
 15 16  1  0  0  0  0
 15 17  1  0  0  0  0
 14 15  1  0  0  0  0
 14 20  2  0  0  0  0
 11 12  1  0  0  0  0
 11 13  1  0  0  0  0
 11 14  1  0  0  0  0
  9 10  1  0  0  0  0
  9 11  1  0  0  0  0
  9 22  1  0  0  0  0
  7  8  1  0  0  0  0
  7  9  1  0  0  0  0
 26 27  1  0  0  0  0
 26 28  1  0  0  0  0
 26 29  1  0  0  0  0
 24 25  1  0  0  0  0
 24 26  1  0  0  0  0
M  END
$$$$
default_name
  -OEChem-02102213163D

 29 29  0     1  0  0  0  0  0999 V2000
   -3.6042   -3.5728    1.4576 H   0  0  0  0  0  0  0  0  0  0  0  0
   -3.5202   -2.6488    0.8866 C   0  0  0  0  0  0  0  0  0  0  0  0
   -4.2052   -1.9048    1.2896 H   0  0  0  0  0  0  0  0  0  0  0  0
   -3.7552   -2.8428   -0.1584 H   0  0  0  0  0  0  0  0  0  0  0  0
   -2.1052   -2.1358    0.9946 C   0  0  0  0  0  0  0  0  0  0  0  0
   -1.2852   -2.7288    1.6826 O   0  0  0  0  0  0  0  0  0  0  0  0
   -1.8202   -1.0288    0.3146 N   0  0  0  0  0  0  0  0  0  0  0  0
   -2.5542   -0.5788   -0.2104 H   0  0  0  0  0  0  0  0  0  0  0  0
   -0.5102   -0.3728    0.3086 C   0  0  1  0  0  0  0  0  0  0  0  0
    0.2354   -1.0844   -0.0490 H   0  0  0  0  0  0  0  0  0  0  0  0
   -0.5452    0.8158   -0.6698 C   0  0  0  0  0  0  0  0  0  0  0  0
    0.1893    0.6499   -1.4599 H   0  0  0  0  0  0  0  0  0  0  0  0
   -1.5319    0.8656   -1.1339 H   0  0  0  0  0  0  0  0  0  0  0  0
   -0.2562    2.1430   -0.0178 C   0  0  0  0  0  0  0  0  0  0  0  0
    0.9784    2.5989    0.3922 N   0  0  0  0  0  0  0  0  0  0  0  0
    1.8403    2.0743    0.3805 H   0  0  0  0  0  0  0  0  0  0  0  0
    0.8337    3.8654    0.8169 C   0  0  0  0  0  0  0  0  0  0  0  0
    1.6286    4.4899    1.2060 H   0  0  0  0  0  0  0  0  0  0  0  0
   -0.4429    4.2555    0.6880 N   0  0  0  0  0  0  0  0  0  0  0  0
   -1.1460    3.1683    0.1626 C   0  0  0  0  0  0  0  0  0  0  0  0
   -2.1979    3.1500   -0.0915 H   0  0  0  0  0  0  0  0  0  0  0  0
   -0.1073    0.0565    1.7296 C   0  0  0  0  0  0  0  0  0  0  0  0
    1.0285   -0.1699    2.1459 O   0  0  0  0  0  0  0  0  0  0  0  0
   -1.0395    0.6588    2.4785 N   0  0  0  0  0  0  0  0  0  0  0  0
   -1.9636    0.7597    2.0849 H   0  0  0  0  0  0  0  0  0  0  0  0
   -0.8222    1.1334    3.8425 C   0  0  0  0  0  0  0  0  0  0  0  0
   -0.0212    1.8761    3.8521 H   0  0  0  0  0  0  0  0  0  0  0  0
   -1.7349    1.5853    4.2320 H   0  0  0  0  0  0  0  0  0  0  0  0
   -0.5312    0.2997    4.4834 H   0  0  0  0  0  0  0  0  0  0  0  0
  5  6  2  0  0  0  0
  5  7  1  0  0  0  0
  2  3  1  0  0  0  0
  2  4  1  0  0  0  0
  2  5  1  0  0  0  0
  1  2  1  0  0  0  0
 22 23  2  0  0  0  0
 22 24  1  0  0  0  0
 20 21  1  0  0  0  0
 19 20  1  0  0  0  0
 17 18  1  0  0  0  0
 17 19  2  0  0  0  0
 15 16  1  0  0  0  0
 15 17  1  0  0  0  0
 14 15  1  0  0  0  0
 14 20  2  0  0  0  0
 11 12  1  0  0  0  0
 11 13  1  0  0  0  0
 11 14  1  0  0  0  0
  9 10  1  0  0  0  0
  9 11  1  0  0  0  0
  9 22  1  0  0  0  0
  7  8  1  0  0  0  0
  7  9  1  0  0  0  0
 26 27  1  0  0  0  0
 26 28  1  0  0  0  0
 26 29  1  0  0  0  0
 24 25  1  0  0  0  0
 24 26  1  0  0  0  0
M  END
$$$$
default_name
  -OEChem-02102213163D

 29 29  0     1  0  0  0  0  0999 V2000
   -3.6042   -3.5728    1.4576 H   0  0  0  0  0  0  0  0  0  0  0  0
   -3.5202   -2.6488    0.8866 C   0  0  0  0  0  0  0  0  0  0  0  0
   -4.2052   -1.9048    1.2896 H   0  0  0  0  0  0  0  0  0  0  0  0
   -3.7552   -2.8428   -0.1584 H   0  0  0  0  0  0  0  0  0  0  0  0
   -2.1052   -2.1358    0.9946 C   0  0  0  0  0  0  0  0  0  0  0  0
   -1.2852   -2.7288    1.6826 O   0  0  0  0  0  0  0  0  0  0  0  0
   -1.8202   -1.0288    0.3146 N   0  0  0  0  0  0  0  0  0  0  0  0
   -2.5542   -0.5788   -0.2104 H   0  0  0  0  0  0  0  0  0  0  0  0
   -0.5102   -0.3728    0.3086 C   0  0  1  0  0  0  0  0  0  0  0  0
    0.2354   -1.0844   -0.0490 H   0  0  0  0  0  0  0  0  0  0  0  0
   -0.5452    0.8158   -0.6698 C   0  0  0  0  0  0  0  0  0  0  0  0
    0.1893    0.6499   -1.4599 H   0  0  0  0  0  0  0  0  0  0  0  0
   -1.5319    0.8656   -1.1339 H   0  0  0  0  0  0  0  0  0  0  0  0
   -0.2562    2.1430   -0.0178 C   0  0  0  0  0  0  0  0  0  0  0  0
    0.9841    2.7258    0.1315 N   0  0  0  0  0  0  0  0  0  0  0  0
    1.8707    2.3071   -0.1069 H   0  0  0  0  0  0  0  0  0  0  0  0
    0.8076    3.9500    0.6563 C   0  0  0  0  0  0  0  0  0  0  0  0
    1.5998    4.6491    0.8948 H   0  0  0  0  0  0  0  0  0  0  0  0
   -0.4983    4.1915    0.8428 N   0  0  0  0  0  0  0  0  0  0  0  0
   -1.1840    3.0490    0.4221 C   0  0  0  0  0  0  0  0  0  0  0  0
   -2.2582    2.9164    0.4108 H   0  0  0  0  0  0  0  0  0  0  0  0
   -0.1073    0.0565    1.7296 C   0  0  0  0  0  0  0  0  0  0  0  0
    1.0285   -0.1699    2.1459 O   0  0  0  0  0  0  0  0  0  0  0  0
   -1.0395    0.6588    2.4785 N   0  0  0  0  0  0  0  0  0  0  0  0
   -1.9636    0.7597    2.0849 H   0  0  0  0  0  0  0  0  0  0  0  0
   -0.8222    1.1334    3.8425 C   0  0  0  0  0  0  0  0  0  0  0  0
   -0.0212    1.8761    3.8521 H   0  0  0  0  0  0  0  0  0  0  0  0
   -1.7349    1.5853    4.2320 H   0  0  0  0  0  0  0  0  0  0  0  0
   -0.5312    0.2997    4.4834 H   0  0  0  0  0  0  0  0  0  0  0  0
  5  6  2  0  0  0  0
  5  7  1  0  0  0  0
  2  3  1  0  0  0  0
  2  4  1  0  0  0  0
  2  5  1  0  0  0  0
  1  2  1  0  0  0  0
 22 23  2  0  0  0  0
 22 24  1  0  0  0  0
 20 21  1  0  0  0  0
 19 20  1  0  0  0  0
 17 18  1  0  0  0  0
 17 19  2  0  0  0  0
 15 16  1  0  0  0  0
 15 17  1  0  0  0  0
 14 15  1  0  0  0  0
 14 20  2  0  0  0  0
 11 12  1  0  0  0  0
 11 13  1  0  0  0  0
 11 14  1  0  0  0  0
  9 10  1  0  0  0  0
  9 11  1  0  0  0  0
  9 22  1  0  0  0  0
  7  8  1  0  0  0  0
  7  9  1  0  0  0  0
 26 27  1  0  0  0  0
 26 28  1  0  0  0  0
 26 29  1  0  0  0  0
 24 25  1  0  0  0  0
 24 26  1  0  0  0  0
M  END
$$$$
default_name
  -OEChem-02102213163D

 29 29  0     1  0  0  0  0  0999 V2000
   -3.6042   -3.5728    1.4576 H   0  0  0  0  0  0  0  0  0  0  0  0
   -3.5202   -2.6488    0.8866 C   0  0  0  0  0  0  0  0  0  0  0  0
   -4.2052   -1.9048    1.2896 H   0  0  0  0  0  0  0  0  0  0  0  0
   -3.7552   -2.8428   -0.1584 H   0  0  0  0  0  0  0  0  0  0  0  0
   -2.1052   -2.1358    0.9946 C   0  0  0  0  0  0  0  0  0  0  0  0
   -1.2852   -2.7288    1.6826 O   0  0  0  0  0  0  0  0  0  0  0  0
   -1.8202   -1.0288    0.3146 N   0  0  0  0  0  0  0  0  0  0  0  0
   -2.5542   -0.5788   -0.2104 H   0  0  0  0  0  0  0  0  0  0  0  0
   -0.5102   -0.3728    0.3086 C   0  0  1  0  0  0  0  0  0  0  0  0
    0.2354   -1.0844   -0.0490 H   0  0  0  0  0  0  0  0  0  0  0  0
   -0.5452    0.8158   -0.6698 C   0  0  0  0  0  0  0  0  0  0  0  0
    0.1893    0.6499   -1.4599 H   0  0  0  0  0  0  0  0  0  0  0  0
   -1.5319    0.8656   -1.1339 H   0  0  0  0  0  0  0  0  0  0  0  0
   -0.2562    2.1430   -0.0178 C   0  0  0  0  0  0  0  0  0  0  0  0
    0.9159    2.8619   -0.1154 N   0  0  0  0  0  0  0  0  0  0  0  0
    1.7629    2.5596   -0.5730 H   0  0  0  0  0  0  0  0  0  0  0  0
    0.7363    4.0368    0.5113 C   0  0  0  0  0  0  0  0  0  0  0  0
    1.4833    4.8151    0.6086 H   0  0  0  0  0  0  0  0  0  0  0  0
   -0.5093    4.1158    1.0018 N   0  0  0  0  0  0  0  0  0  0  0  0
   -1.1483    2.9167    0.6756 C   0  0  0  0  0  0  0  0  0  0  0  0
   -2.1757    2.6590    0.8982 H   0  0  0  0  0  0  0  0  0  0  0  0
   -0.1073    0.0565    1.7296 C   0  0  0  0  0  0  0  0  0  0  0  0
    1.0285   -0.1699    2.1459 O   0  0  0  0  0  0  0  0  0  0  0  0
   -1.0395    0.6588    2.4785 N   0  0  0  0  0  0  0  0  0  0  0  0
   -1.9636    0.7597    2.0849 H   0  0  0  0  0  0  0  0  0  0  0  0
   -0.8222    1.1334    3.8425 C   0  0  0  0  0  0  0  0  0  0  0  0
   -0.0212    1.8761    3.8521 H   0  0  0  0  0  0  0  0  0  0  0  0
   -1.7349    1.5853    4.2320 H   0  0  0  0  0  0  0  0  0  0  0  0
   -0.5312    0.2997    4.4834 H   0  0  0  0  0  0  0  0  0  0  0  0
  5  6  2  0  0  0  0
  5  7  1  0  0  0  0
  2  3  1  0  0  0  0
  2  4  1  0  0  0  0
  2  5  1  0  0  0  0
  1  2  1  0  0  0  0
 22 23  2  0  0  0  0
 22 24  1  0  0  0  0
 20 21  1  0  0  0  0
 19 20  1  0  0  0  0
 17 18  1  0  0  0  0
 17 19  2  0  0  0  0
 15 16  1  0  0  0  0
 15 17  1  0  0  0  0
 14 15  1  0  0  0  0
 14 20  2  0  0  0  0
 11 12  1  0  0  0  0
 11 13  1  0  0  0  0
 11 14  1  0  0  0  0
  9 10  1  0  0  0  0
  9 11  1  0  0  0  0
  9 22  1  0  0  0  0
  7  8  1  0  0  0  0
  7  9  1  0  0  0  0
 26 27  1  0  0  0  0
 26 28  1  0  0  0  0
 26 29  1  0  0  0  0
 24 25  1  0  0  0  0
 24 26  1  0  0  0  0
M  END
$$$$
default_name
  -OEChem-02102213163D

 29 29  0     1  0  0  0  0  0999 V2000
   -3.6042   -3.5728    1.4576 H   0  0  0  0  0  0  0  0  0  0  0  0
   -3.5202   -2.6488    0.8866 C   0  0  0  0  0  0  0  0  0  0  0  0
   -4.2052   -1.9048    1.2896 H   0  0  0  0  0  0  0  0  0  0  0  0
   -3.7552   -2.8428   -0.1584 H   0  0  0  0  0  0  0  0  0  0  0  0
   -2.1052   -2.1358    0.9946 C   0  0  0  0  0  0  0  0  0  0  0  0
   -1.2852   -2.7288    1.6826 O   0  0  0  0  0  0  0  0  0  0  0  0
   -1.8202   -1.0288    0.3146 N   0  0  0  0  0  0  0  0  0  0  0  0
   -2.5542   -0.5788   -0.2104 H   0  0  0  0  0  0  0  0  0  0  0  0
   -0.5102   -0.3728    0.3086 C   0  0  1  0  0  0  0  0  0  0  0  0
    0.2354   -1.0844   -0.0490 H   0  0  0  0  0  0  0  0  0  0  0  0
   -0.5452    0.8158   -0.6698 C   0  0  0  0  0  0  0  0  0  0  0  0
    0.1893    0.6499   -1.4599 H   0  0  0  0  0  0  0  0  0  0  0  0
   -1.5319    0.8656   -1.1339 H   0  0  0  0  0  0  0  0  0  0  0  0
   -0.2562    2.1430   -0.0178 C   0  0  0  0  0  0  0  0  0  0  0  0
    0.7785    2.9980   -0.3316 N   0  0  0  0  0  0  0  0  0  0  0  0
    1.5242    2.8145   -0.9862 H   0  0  0  0  0  0  0  0  0  0  0  0
    0.6246    4.1198    0.3918 C   0  0  0  0  0  0  0  0  0  0  0  0
    1.2869    4.9765    0.3669 H   0  0  0  0  0  0  0  0  0  0  0  0
   -0.4753    4.0335    1.1541 N   0  0  0  0  0  0  0  0  0  0  0  0
   -1.0412    2.7803    0.9058 C   0  0  0  0  0  0  0  0  0  0  0  0
   -1.9561    2.3955    1.3373 H   0  0  0  0  0  0  0  0  0  0  0  0
   -0.1073    0.0565    1.7296 C   0  0  0  0  0  0  0  0  0  0  0  0
    1.0285   -0.1699    2.1459 O   0  0  0  0  0  0  0  0  0  0  0  0
   -1.0395    0.6588    2.4785 N   0  0  0  0  0  0  0  0  0  0  0  0
   -1.9636    0.7597    2.0849 H   0  0  0  0  0  0  0  0  0  0  0  0
   -0.8222    1.1334    3.8425 C   0  0  0  0  0  0  0  0  0  0  0  0
   -0.0212    1.8761    3.8521 H   0  0  0  0  0  0  0  0  0  0  0  0
   -1.7349    1.5853    4.2320 H   0  0  0  0  0  0  0  0  0  0  0  0
   -0.5312    0.2997    4.4834 H   0  0  0  0  0  0  0  0  0  0  0  0
  5  6  2  0  0  0  0
  5  7  1  0  0  0  0
  2  3  1  0  0  0  0
  2  4  1  0  0  0  0
  2  5  1  0  0  0  0
  1  2  1  0  0  0  0
 22 23  2  0  0  0  0
 22 24  1  0  0  0  0
 20 21  1  0  0  0  0
 19 20  1  0  0  0  0
 17 18  1  0  0  0  0
 17 19  2  0  0  0  0
 15 16  1  0  0  0  0
 15 17  1  0  0  0  0
 14 15  1  0  0  0  0
 14 20  2  0  0  0  0
 11 12  1  0  0  0  0
 11 13  1  0  0  0  0
 11 14  1  0  0  0  0
  9 10  1  0  0  0  0
  9 11  1  0  0  0  0
  9 22  1  0  0  0  0
  7  8  1  0  0  0  0
  7  9  1  0  0  0  0
 26 27  1  0  0  0  0
 26 28  1  0  0  0  0
 26 29  1  0  0  0  0
 24 25  1  0  0  0  0
 24 26  1  0  0  0  0
M  END
$$$$
default_name
  -OEChem-02102213163D

 29 29  0     1  0  0  0  0  0999 V2000
   -3.6042   -3.5728    1.4576 H   0  0  0  0  0  0  0  0  0  0  0  0
   -3.5202   -2.6488    0.8866 C   0  0  0  0  0  0  0  0  0  0  0  0
   -4.2052   -1.9048    1.2896 H   0  0  0  0  0  0  0  0  0  0  0  0
   -3.7552   -2.8428   -0.1584 H   0  0  0  0  0  0  0  0  0  0  0  0
   -2.1052   -2.1358    0.9946 C   0  0  0  0  0  0  0  0  0  0  0  0
   -1.2852   -2.7288    1.6826 O   0  0  0  0  0  0  0  0  0  0  0  0
   -1.8202   -1.0288    0.3146 N   0  0  0  0  0  0  0  0  0  0  0  0
   -2.5542   -0.5788   -0.2104 H   0  0  0  0  0  0  0  0  0  0  0  0
   -0.5102   -0.3728    0.3086 C   0  0  1  0  0  0  0  0  0  0  0  0
    0.2354   -1.0844   -0.0490 H   0  0  0  0  0  0  0  0  0  0  0  0
   -0.5452    0.8158   -0.6698 C   0  0  0  0  0  0  0  0  0  0  0  0
    0.1893    0.6499   -1.4599 H   0  0  0  0  0  0  0  0  0  0  0  0
   -1.5319    0.8656   -1.1339 H   0  0  0  0  0  0  0  0  0  0  0  0
   -0.2562    2.1430   -0.0178 C   0  0  0  0  0  0  0  0  0  0  0  0
    0.5813    3.1248   -0.5023 N   0  0  0  0  0  0  0  0  0  0  0  0
    1.1709    3.0545   -1.3181 H   0  0  0  0  0  0  0  0  0  0  0  0
    0.4802    4.1934    0.3060 C   0  0  0  0  0  0  0  0  0  0  0  0
    1.0240    5.1225    0.1863 H   0  0  0  0  0  0  0  0  0  0  0  0
   -0.3984    3.9504    1.2894 N   0  0  0  0  0  0  0  0  0  0  0  0
   -0.8700    2.6492    1.0969 C   0  0  0  0  0  0  0  0  0  0  0  0
   -1.6143    2.1437    1.6983 H   0  0  0  0  0  0  0  0  0  0  0  0
   -0.1073    0.0565    1.7296 C   0  0  0  0  0  0  0  0  0  0  0  0
    1.0285   -0.1699    2.1459 O   0  0  0  0  0  0  0  0  0  0  0  0
   -1.0395    0.6588    2.4785 N   0  0  0  0  0  0  0  0  0  0  0  0
   -1.9636    0.7597    2.0849 H   0  0  0  0  0  0  0  0  0  0  0  0
   -0.8222    1.1334    3.8425 C   0  0  0  0  0  0  0  0  0  0  0  0
   -0.0212    1.8761    3.8521 H   0  0  0  0  0  0  0  0  0  0  0  0
   -1.7349    1.5853    4.2320 H   0  0  0  0  0  0  0  0  0  0  0  0
   -0.5312    0.2997    4.4834 H   0  0  0  0  0  0  0  0  0  0  0  0
  5  6  2  0  0  0  0
  5  7  1  0  0  0  0
  2  3  1  0  0  0  0
  2  4  1  0  0  0  0
  2  5  1  0  0  0  0
  1  2  1  0  0  0  0
 22 23  2  0  0  0  0
 22 24  1  0  0  0  0
 20 21  1  0  0  0  0
 19 20  1  0  0  0  0
 17 18  1  0  0  0  0
 17 19  2  0  0  0  0
 15 16  1  0  0  0  0
 15 17  1  0  0  0  0
 14 15  1  0  0  0  0
 14 20  2  0  0  0  0
 11 12  1  0  0  0  0
 11 13  1  0  0  0  0
 11 14  1  0  0  0  0
  9 10  1  0  0  0  0
  9 11  1  0  0  0  0
  9 22  1  0  0  0  0
  7  8  1  0  0  0  0
  7  9  1  0  0  0  0
 26 27  1  0  0  0  0
 26 28  1  0  0  0  0
 26 29  1  0  0  0  0
 24 25  1  0  0  0  0
 24 26  1  0  0  0  0
M  END
$$$$
default_name
  -OEChem-02102213163D

 29 29  0     1  0  0  0  0  0999 V2000
   -3.6042   -3.5728    1.4576 H   0  0  0  0  0  0  0  0  0  0  0  0
   -3.5202   -2.6488    0.8866 C   0  0  0  0  0  0  0  0  0  0  0  0
   -4.2052   -1.9048    1.2896 H   0  0  0  0  0  0  0  0  0  0  0  0
   -3.7552   -2.8428   -0.1584 H   0  0  0  0  0  0  0  0  0  0  0  0
   -2.1052   -2.1358    0.9946 C   0  0  0  0  0  0  0  0  0  0  0  0
   -1.2852   -2.7288    1.6826 O   0  0  0  0  0  0  0  0  0  0  0  0
   -1.8202   -1.0288    0.3146 N   0  0  0  0  0  0  0  0  0  0  0  0
   -2.5542   -0.5788   -0.2104 H   0  0  0  0  0  0  0  0  0  0  0  0
   -0.5102   -0.3728    0.3086 C   0  0  1  0  0  0  0  0  0  0  0  0
    0.2354   -1.0844   -0.0490 H   0  0  0  0  0  0  0  0  0  0  0  0
   -0.5452    0.8158   -0.6698 C   0  0  0  0  0  0  0  0  0  0  0  0
    0.1893    0.6499   -1.4599 H   0  0  0  0  0  0  0  0  0  0  0  0
   -1.5319    0.8656   -1.1339 H   0  0  0  0  0  0  0  0  0  0  0  0
   -0.2562    2.1430   -0.0178 C   0  0  0  0  0  0  0  0  0  0  0  0
    0.3377    3.2337   -0.6160 N   0  0  0  0  0  0  0  0  0  0  0  0
    0.7271    3.2633   -1.5464 H   0  0  0  0  0  0  0  0  0  0  0  0
    0.3130    4.2526    0.2596 C   0  0  0  0  0  0  0  0  0  0  0  0
    0.7125    5.2430    0.0791 H   0  0  0  0  0  0  0  0  0  0  0  0
   -0.2840    3.8719    1.3985 N   0  0  0  0  0  0  0  0  0  0  0  0
   -0.6463    2.5322    1.2359 C   0  0  0  0  0  0  0  0  0  0  0  0
   -1.1737    1.9208    1.9567 H   0  0  0  0  0  0  0  0  0  0  0  0
   -0.1073    0.0565    1.7296 C   0  0  0  0  0  0  0  0  0  0  0  0
    1.0285   -0.1699    2.1459 O   0  0  0  0  0  0  0  0  0  0  0  0
   -1.0395    0.6588    2.4785 N   0  0  0  0  0  0  0  0  0  0  0  0
   -1.9636    0.7597    2.0849 H   0  0  0  0  0  0  0  0  0  0  0  0
   -0.8222    1.1334    3.8425 C   0  0  0  0  0  0  0  0  0  0  0  0
   -0.0212    1.8761    3.8521 H   0  0  0  0  0  0  0  0  0  0  0  0
   -1.7349    1.5853    4.2320 H   0  0  0  0  0  0  0  0  0  0  0  0
   -0.5312    0.2997    4.4834 H   0  0  0  0  0  0  0  0  0  0  0  0
  5  6  2  0  0  0  0
  5  7  1  0  0  0  0
  2  3  1  0  0  0  0
  2  4  1  0  0  0  0
  2  5  1  0  0  0  0
  1  2  1  0  0  0  0
 22 23  2  0  0  0  0
 22 24  1  0  0  0  0
 20 21  1  0  0  0  0
 19 20  1  0  0  0  0
 17 18  1  0  0  0  0
 17 19  2  0  0  0  0
 15 16  1  0  0  0  0
 15 17  1  0  0  0  0
 14 15  1  0  0  0  0
 14 20  2  0  0  0  0
 11 12  1  0  0  0  0
 11 13  1  0  0  0  0
 11 14  1  0  0  0  0
  9 10  1  0  0  0  0
  9 11  1  0  0  0  0
  9 22  1  0  0  0  0
  7  8  1  0  0  0  0
  7  9  1  0  0  0  0
 26 27  1  0  0  0  0
 26 28  1  0  0  0  0
 26 29  1  0  0  0  0
 24 25  1  0  0  0  0
 24 26  1  0  0  0  0
M  END
$$$$
default_name
  -OEChem-02102213163D

 29 29  0     1  0  0  0  0  0999 V2000
   -3.6042   -3.5728    1.4576 H   0  0  0  0  0  0  0  0  0  0  0  0
   -3.5202   -2.6488    0.8866 C   0  0  0  0  0  0  0  0  0  0  0  0
   -4.2052   -1.9048    1.2896 H   0  0  0  0  0  0  0  0  0  0  0  0
   -3.7552   -2.8428   -0.1584 H   0  0  0  0  0  0  0  0  0  0  0  0
   -2.1052   -2.1358    0.9946 C   0  0  0  0  0  0  0  0  0  0  0  0
   -1.2852   -2.7288    1.6826 O   0  0  0  0  0  0  0  0  0  0  0  0
   -1.8202   -1.0288    0.3146 N   0  0  0  0  0  0  0  0  0  0  0  0
   -2.5542   -0.5788   -0.2104 H   0  0  0  0  0  0  0  0  0  0  0  0
   -0.5102   -0.3728    0.3086 C   0  0  1  0  0  0  0  0  0  0  0  0
    0.2354   -1.0844   -0.0490 H   0  0  0  0  0  0  0  0  0  0  0  0
   -0.5452    0.8158   -0.6698 C   0  0  0  0  0  0  0  0  0  0  0  0
    0.1893    0.6499   -1.4599 H   0  0  0  0  0  0  0  0  0  0  0  0
   -1.5319    0.8656   -1.1339 H   0  0  0  0  0  0  0  0  0  0  0  0
   -0.2562    2.1430   -0.0178 C   0  0  0  0  0  0  0  0  0  0  0  0
    0.0642    3.3173   -0.6648 N   0  0  0  0  0  0  0  0  0  0  0  0
    0.2230    3.4266   -1.6553 H   0  0  0  0  0  0  0  0  0  0  0  0
    0.1342    4.2933    0.2559 C   0  0  0  0  0  0  0  0  0  0  0  0
    0.3737    5.3299    0.0524 H   0  0  0  0  0  0  0  0  0  0  0  0
   -0.1399    3.8035    1.4738 N   0  0  0  0  0  0  0  0  0  0  0  0
   -0.3855    2.4373    1.3134 C   0  0  0  0  0  0  0  0  0  0  0  0
   -0.6643    1.7421    2.0947 H   0  0  0  0  0  0  0  0  0  0  0  0
   -0.1073    0.0565    1.7296 C   0  0  0  0  0  0  0  0  0  0  0  0
    1.0285   -0.1699    2.1459 O   0  0  0  0  0  0  0  0  0  0  0  0
   -1.0395    0.6588    2.4785 N   0  0  0  0  0  0  0  0  0  0  0  0
   -1.9636    0.7597    2.0849 H   0  0  0  0  0  0  0  0  0  0  0  0
   -0.8222    1.1334    3.8425 C   0  0  0  0  0  0  0  0  0  0  0  0
   -0.0212    1.8761    3.8521 H   0  0  0  0  0  0  0  0  0  0  0  0
   -1.7349    1.5853    4.2320 H   0  0  0  0  0  0  0  0  0  0  0  0
   -0.5312    0.2997    4.4834 H   0  0  0  0  0  0  0  0  0  0  0  0
  5  6  2  0  0  0  0
  5  7  1  0  0  0  0
  2  3  1  0  0  0  0
  2  4  1  0  0  0  0
  2  5  1  0  0  0  0
  1  2  1  0  0  0  0
 22 23  2  0  0  0  0
 22 24  1  0  0  0  0
 20 21  1  0  0  0  0
 19 20  1  0  0  0  0
 17 18  1  0  0  0  0
 17 19  2  0  0  0  0
 15 16  1  0  0  0  0
 15 17  1  0  0  0  0
 14 15  1  0  0  0  0
 14 20  2  0  0  0  0
 11 12  1  0  0  0  0
 11 13  1  0  0  0  0
 11 14  1  0  0  0  0
  9 10  1  0  0  0  0
  9 11  1  0  0  0  0
  9 22  1  0  0  0  0
  7  8  1  0  0  0  0
  7  9  1  0  0  0  0
 26 27  1  0  0  0  0
 26 28  1  0  0  0  0
 26 29  1  0  0  0  0
 24 25  1  0  0  0  0
 24 26  1  0  0  0  0
M  END
$$$$
default_name
  -OEChem-02102213163D

 29 29  0     1  0  0  0  0  0999 V2000
   -3.6042   -3.5728    1.4576 H   0  0  0  0  0  0  0  0  0  0  0  0
   -3.5202   -2.6488    0.8866 C   0  0  0  0  0  0  0  0  0  0  0  0
   -4.2052   -1.9048    1.2896 H   0  0  0  0  0  0  0  0  0  0  0  0
   -3.7552   -2.8428   -0.1584 H   0  0  0  0  0  0  0  0  0  0  0  0
   -2.1052   -2.1358    0.9946 C   0  0  0  0  0  0  0  0  0  0  0  0
   -1.2852   -2.7288    1.6826 O   0  0  0  0  0  0  0  0  0  0  0  0
   -1.8202   -1.0288    0.3146 N   0  0  0  0  0  0  0  0  0  0  0  0
   -2.5542   -0.5788   -0.2104 H   0  0  0  0  0  0  0  0  0  0  0  0
   -0.5102   -0.3728    0.3086 C   0  0  1  0  0  0  0  0  0  0  0  0
    0.2354   -1.0844   -0.0490 H   0  0  0  0  0  0  0  0  0  0  0  0
   -0.5452    0.8158   -0.6698 C   0  0  0  0  0  0  0  0  0  0  0  0
   -0.0212    0.5396   -1.5865 H   0  0  0  0  0  0  0  0  0  0  0  0
   -1.5831    1.0328   -0.9290 H   0  0  0  0  0  0  0  0  0  0  0  0
    0.0820    2.0700   -0.1186 C   0  0  0  0  0  0  0  0  0  0  0  0
    0.1919    3.2807   -0.7684 N   0  0  0  0  0  0  0  0  0  0  0  0
   -0.0637    3.4670   -1.7266 H   0  0  0  0  0  0  0  0  0  0  0  0
    0.7053    4.1715    0.0967 C   0  0  0  0  0  0  0  0  0  0  0  0
    0.9143    5.2109   -0.1253 H   0  0  0  0  0  0  0  0  0  0  0  0
    0.9221    3.5918    1.2863 N   0  0  0  0  0  0  0  0  0  0  0  0
    0.5339    2.2554    1.1608 C   0  0  0  0  0  0  0  0  0  0  0  0
    0.5518    1.5085    1.9439 H   0  0  0  0  0  0  0  0  0  0  0  0
   -0.1073    0.0565    1.7296 C   0  0  0  0  0  0  0  0  0  0  0  0
    1.0285   -0.1699    2.1459 O   0  0  0  0  0  0  0  0  0  0  0  0
   -1.0395    0.6588    2.4785 N   0  0  0  0  0  0  0  0  0  0  0  0
   -1.9636    0.7597    2.0849 H   0  0  0  0  0  0  0  0  0  0  0  0
   -0.8222    1.1334    3.8425 C   0  0  0  0  0  0  0  0  0  0  0  0
   -0.0212    1.8761    3.8521 H   0  0  0  0  0  0  0  0  0  0  0  0
   -1.7349    1.5853    4.2320 H   0  0  0  0  0  0  0  0  0  0  0  0
   -0.5312    0.2997    4.4834 H   0  0  0  0  0  0  0  0  0  0  0  0
  5  6  2  0  0  0  0
  5  7  1  0  0  0  0
  2  3  1  0  0  0  0
  2  4  1  0  0  0  0
  2  5  1  0  0  0  0
  1  2  1  0  0  0  0
 22 23  2  0  0  0  0
 22 24  1  0  0  0  0
 20 21  1  0  0  0  0
 19 20  1  0  0  0  0
 17 18  1  0  0  0  0
 17 19  2  0  0  0  0
 15 16  1  0  0  0  0
 15 17  1  0  0  0  0
 14 15  1  0  0  0  0
 14 20  2  0  0  0  0
 11 12  1  0  0  0  0
 11 13  1  0  0  0  0
 11 14  1  0  0  0  0
  9 10  1  0  0  0  0
  9 11  1  0  0  0  0
  9 22  1  0  0  0  0
  7  8  1  0  0  0  0
  7  9  1  0  0  0  0
 26 27  1  0  0  0  0
 26 28  1  0  0  0  0
 26 29  1  0  0  0  0
 24 25  1  0  0  0  0
 24 26  1  0  0  0  0
M  END
$$$$
default_name
  -OEChem-02102213163D

 29 29  0     1  0  0  0  0  0999 V2000
   -3.6042   -3.5728    1.4576 H   0  0  0  0  0  0  0  0  0  0  0  0
   -3.5202   -2.6488    0.8866 C   0  0  0  0  0  0  0  0  0  0  0  0
   -4.2052   -1.9048    1.2896 H   0  0  0  0  0  0  0  0  0  0  0  0
   -3.7552   -2.8428   -0.1584 H   0  0  0  0  0  0  0  0  0  0  0  0
   -2.1052   -2.1358    0.9946 C   0  0  0  0  0  0  0  0  0  0  0  0
   -1.2852   -2.7288    1.6826 O   0  0  0  0  0  0  0  0  0  0  0  0
   -1.8202   -1.0288    0.3146 N   0  0  0  0  0  0  0  0  0  0  0  0
   -2.5542   -0.5788   -0.2104 H   0  0  0  0  0  0  0  0  0  0  0  0
   -0.5102   -0.3728    0.3086 C   0  0  1  0  0  0  0  0  0  0  0  0
    0.2354   -1.0844   -0.0490 H   0  0  0  0  0  0  0  0  0  0  0  0
   -0.5452    0.8158   -0.6698 C   0  0  0  0  0  0  0  0  0  0  0  0
   -0.0212    0.5396   -1.5865 H   0  0  0  0  0  0  0  0  0  0  0  0
   -1.5831    1.0328   -0.9290 H   0  0  0  0  0  0  0  0  0  0  0  0
    0.0820    2.0700   -0.1186 C   0  0  0  0  0  0  0  0  0  0  0  0
   -0.0549    3.3430   -0.6293 N   0  0  0  0  0  0  0  0  0  0  0  0
   -0.5301    3.5934   -1.4835 H   0  0  0  0  0  0  0  0  0  0  0  0
    0.5610    4.1949    0.2075 C   0  0  0  0  0  0  0  0  0  0  0  0
    0.6290    5.2673    0.0709 H   0  0  0  0  0  0  0  0  0  0  0  0
    1.0823    3.5285    1.2480 N   0  0  0  0  0  0  0  0  0  0  0  0
    0.7881    2.1770    1.0499 C   0  0  0  0  0  0  0  0  0  0  0  0
    1.0402    1.3636    1.7179 H   0  0  0  0  0  0  0  0  0  0  0  0
   -0.1073    0.0565    1.7296 C   0  0  0  0  0  0  0  0  0  0  0  0
    1.0285   -0.1699    2.1459 O   0  0  0  0  0  0  0  0  0  0  0  0
   -1.0395    0.6588    2.4785 N   0  0  0  0  0  0  0  0  0  0  0  0
   -1.9636    0.7597    2.0849 H   0  0  0  0  0  0  0  0  0  0  0  0
   -0.8222    1.1334    3.8425 C   0  0  0  0  0  0  0  0  0  0  0  0
   -0.0212    1.8761    3.8521 H   0  0  0  0  0  0  0  0  0  0  0  0
   -1.7349    1.5853    4.2320 H   0  0  0  0  0  0  0  0  0  0  0  0
   -0.5312    0.2997    4.4834 H   0  0  0  0  0  0  0  0  0  0  0  0
  5  6  2  0  0  0  0
  5  7  1  0  0  0  0
  2  3  1  0  0  0  0
  2  4  1  0  0  0  0
  2  5  1  0  0  0  0
  1  2  1  0  0  0  0
 22 23  2  0  0  0  0
 22 24  1  0  0  0  0
 20 21  1  0  0  0  0
 19 20  1  0  0  0  0
 17 18  1  0  0  0  0
 17 19  2  0  0  0  0
 15 16  1  0  0  0  0
 15 17  1  0  0  0  0
 14 15  1  0  0  0  0
 14 20  2  0  0  0  0
 11 12  1  0  0  0  0
 11 13  1  0  0  0  0
 11 14  1  0  0  0  0
  9 10  1  0  0  0  0
  9 11  1  0  0  0  0
  9 22  1  0  0  0  0
  7  8  1  0  0  0  0
  7  9  1  0  0  0  0
 26 27  1  0  0  0  0
 26 28  1  0  0  0  0
 26 29  1  0  0  0  0
 24 25  1  0  0  0  0
 24 26  1  0  0  0  0
M  END
$$$$
default_name
  -OEChem-02102213163D

 29 29  0     1  0  0  0  0  0999 V2000
   -3.6042   -3.5728    1.4576 H   0  0  0  0  0  0  0  0  0  0  0  0
   -3.5202   -2.6488    0.8866 C   0  0  0  0  0  0  0  0  0  0  0  0
   -4.2052   -1.9048    1.2896 H   0  0  0  0  0  0  0  0  0  0  0  0
   -3.7552   -2.8428   -0.1584 H   0  0  0  0  0  0  0  0  0  0  0  0
   -2.1052   -2.1358    0.9946 C   0  0  0  0  0  0  0  0  0  0  0  0
   -1.2852   -2.7288    1.6826 O   0  0  0  0  0  0  0  0  0  0  0  0
   -1.8202   -1.0288    0.3146 N   0  0  0  0  0  0  0  0  0  0  0  0
   -2.5542   -0.5788   -0.2104 H   0  0  0  0  0  0  0  0  0  0  0  0
   -0.5102   -0.3728    0.3086 C   0  0  1  0  0  0  0  0  0  0  0  0
    0.2354   -1.0844   -0.0490 H   0  0  0  0  0  0  0  0  0  0  0  0
   -0.5452    0.8158   -0.6698 C   0  0  0  0  0  0  0  0  0  0  0  0
   -0.0212    0.5396   -1.5865 H   0  0  0  0  0  0  0  0  0  0  0  0
   -1.5831    1.0328   -0.9290 H   0  0  0  0  0  0  0  0  0  0  0  0
    0.0820    2.0700   -0.1186 C   0  0  0  0  0  0  0  0  0  0  0  0
   -0.2692    3.3648   -0.4351 N   0  0  0  0  0  0  0  0  0  0  0  0
   -0.9403    3.6452   -1.1345 H   0  0  0  0  0  0  0  0  0  0  0  0
    0.4434    4.1919    0.3482 C   0  0  0  0  0  0  0  0  0  0  0  0
    0.3905    5.2736    0.3280 H   0  0  0  0  0  0  0  0  0  0  0  0
    1.2347    3.4867    1.1696 N   0  0  0  0  0  0  0  0  0  0  0  0
    1.0171    2.1373    0.8796 C   0  0  0  0  0  0  0  0  0  0  0  0
    1.4769    1.2942    1.3788 H   0  0  0  0  0  0  0  0  0  0  0  0
   -0.1073    0.0565    1.7296 C   0  0  0  0  0  0  0  0  0  0  0  0
    1.0285   -0.1699    2.1459 O   0  0  0  0  0  0  0  0  0  0  0  0
   -1.0395    0.6588    2.4785 N   0  0  0  0  0  0  0  0  0  0  0  0
   -1.9636    0.7597    2.0849 H   0  0  0  0  0  0  0  0  0  0  0  0
   -0.8222    1.1334    3.8425 C   0  0  0  0  0  0  0  0  0  0  0  0
   -0.0212    1.8761    3.8521 H   0  0  0  0  0  0  0  0  0  0  0  0
   -1.7349    1.5853    4.2320 H   0  0  0  0  0  0  0  0  0  0  0  0
   -0.5312    0.2997    4.4834 H   0  0  0  0  0  0  0  0  0  0  0  0
  5  6  2  0  0  0  0
  5  7  1  0  0  0  0
  2  3  1  0  0  0  0
  2  4  1  0  0  0  0
  2  5  1  0  0  0  0
  1  2  1  0  0  0  0
 22 23  2  0  0  0  0
 22 24  1  0  0  0  0
 20 21  1  0  0  0  0
 19 20  1  0  0  0  0
 17 18  1  0  0  0  0
 17 19  2  0  0  0  0
 15 16  1  0  0  0  0
 15 17  1  0  0  0  0
 14 15  1  0  0  0  0
 14 20  2  0  0  0  0
 11 12  1  0  0  0  0
 11 13  1  0  0  0  0
 11 14  1  0  0  0  0
  9 10  1  0  0  0  0
  9 11  1  0  0  0  0
  9 22  1  0  0  0  0
  7  8  1  0  0  0  0
  7  9  1  0  0  0  0
 26 27  1  0  0  0  0
 26 28  1  0  0  0  0
 26 29  1  0  0  0  0
 24 25  1  0  0  0  0
 24 26  1  0  0  0  0
M  END
$$$$
default_name
  -OEChem-02102213163D

 29 29  0     1  0  0  0  0  0999 V2000
   -3.6042   -3.5728    1.4576 H   0  0  0  0  0  0  0  0  0  0  0  0
   -3.5202   -2.6488    0.8866 C   0  0  0  0  0  0  0  0  0  0  0  0
   -4.2052   -1.9048    1.2896 H   0  0  0  0  0  0  0  0  0  0  0  0
   -3.7552   -2.8428   -0.1584 H   0  0  0  0  0  0  0  0  0  0  0  0
   -2.1052   -2.1358    0.9946 C   0  0  0  0  0  0  0  0  0  0  0  0
   -1.2852   -2.7288    1.6826 O   0  0  0  0  0  0  0  0  0  0  0  0
   -1.8202   -1.0288    0.3146 N   0  0  0  0  0  0  0  0  0  0  0  0
   -2.5542   -0.5788   -0.2104 H   0  0  0  0  0  0  0  0  0  0  0  0
   -0.5102   -0.3728    0.3086 C   0  0  1  0  0  0  0  0  0  0  0  0
    0.2354   -1.0844   -0.0490 H   0  0  0  0  0  0  0  0  0  0  0  0
   -0.5452    0.8158   -0.6698 C   0  0  0  0  0  0  0  0  0  0  0  0
   -0.0212    0.5396   -1.5865 H   0  0  0  0  0  0  0  0  0  0  0  0
   -1.5831    1.0328   -0.9290 H   0  0  0  0  0  0  0  0  0  0  0  0
    0.0820    2.0700   -0.1186 C   0  0  0  0  0  0  0  0  0  0  0  0
   -0.4364    3.3447   -0.1989 N   0  0  0  0  0  0  0  0  0  0  0  0
   -1.2661    3.6187   -0.7035 H   0  0  0  0  0  0  0  0  0  0  0  0
    0.3603    4.1628    0.5091 C   0  0  0  0  0  0  0  0  0  0  0  0
    0.2148    5.2294    0.6283 H   0  0  0  0  0  0  0  0  0  0  0  0
    1.3691    3.4692    1.0566 N   0  0  0  0  0  0  0  0  0  0  0  0
    1.2054    2.1390    0.6615 C   0  0  0  0  0  0  0  0  0  0  0  0
    1.8323    1.3050    0.9497 H   0  0  0  0  0  0  0  0  0  0  0  0
   -0.1073    0.0565    1.7296 C   0  0  0  0  0  0  0  0  0  0  0  0
    1.0285   -0.1699    2.1459 O   0  0  0  0  0  0  0  0  0  0  0  0
   -1.0395    0.6588    2.4785 N   0  0  0  0  0  0  0  0  0  0  0  0
   -1.9636    0.7597    2.0849 H   0  0  0  0  0  0  0  0  0  0  0  0
   -0.8222    1.1334    3.8425 C   0  0  0  0  0  0  0  0  0  0  0  0
   -0.0212    1.8761    3.8521 H   0  0  0  0  0  0  0  0  0  0  0  0
   -1.7349    1.5853    4.2320 H   0  0  0  0  0  0  0  0  0  0  0  0
   -0.5312    0.2997    4.4834 H   0  0  0  0  0  0  0  0  0  0  0  0
  5  6  2  0  0  0  0
  5  7  1  0  0  0  0
  2  3  1  0  0  0  0
  2  4  1  0  0  0  0
  2  5  1  0  0  0  0
  1  2  1  0  0  0  0
 22 23  2  0  0  0  0
 22 24  1  0  0  0  0
 20 21  1  0  0  0  0
 19 20  1  0  0  0  0
 17 18  1  0  0  0  0
 17 19  2  0  0  0  0
 15 16  1  0  0  0  0
 15 17  1  0  0  0  0
 14 15  1  0  0  0  0
 14 20  2  0  0  0  0
 11 12  1  0  0  0  0
 11 13  1  0  0  0  0
 11 14  1  0  0  0  0
  9 10  1  0  0  0  0
  9 11  1  0  0  0  0
  9 22  1  0  0  0  0
  7  8  1  0  0  0  0
  7  9  1  0  0  0  0
 26 27  1  0  0  0  0
 26 28  1  0  0  0  0
 26 29  1  0  0  0  0
 24 25  1  0  0  0  0
 24 26  1  0  0  0  0
M  END
$$$$
default_name
  -OEChem-02102213163D

 29 29  0     1  0  0  0  0  0999 V2000
   -3.6042   -3.5728    1.4576 H   0  0  0  0  0  0  0  0  0  0  0  0
   -3.5202   -2.6488    0.8866 C   0  0  0  0  0  0  0  0  0  0  0  0
   -4.2052   -1.9048    1.2896 H   0  0  0  0  0  0  0  0  0  0  0  0
   -3.7552   -2.8428   -0.1584 H   0  0  0  0  0  0  0  0  0  0  0  0
   -2.1052   -2.1358    0.9946 C   0  0  0  0  0  0  0  0  0  0  0  0
   -1.2852   -2.7288    1.6826 O   0  0  0  0  0  0  0  0  0  0  0  0
   -1.8202   -1.0288    0.3146 N   0  0  0  0  0  0  0  0  0  0  0  0
   -2.5542   -0.5788   -0.2104 H   0  0  0  0  0  0  0  0  0  0  0  0
   -0.5102   -0.3728    0.3086 C   0  0  1  0  0  0  0  0  0  0  0  0
    0.2354   -1.0844   -0.0490 H   0  0  0  0  0  0  0  0  0  0  0  0
   -0.5452    0.8158   -0.6698 C   0  0  0  0  0  0  0  0  0  0  0  0
   -0.0212    0.5396   -1.5865 H   0  0  0  0  0  0  0  0  0  0  0  0
   -1.5831    1.0328   -0.9290 H   0  0  0  0  0  0  0  0  0  0  0  0
    0.0820    2.0700   -0.1186 C   0  0  0  0  0  0  0  0  0  0  0  0
   -0.5452    3.2839    0.0630 N   0  0  0  0  0  0  0  0  0  0  0  0
   -1.4856    3.5159   -0.2199 H   0  0  0  0  0  0  0  0  0  0  0  0
    0.3175    4.1094    0.6792 C   0  0  0  0  0  0  0  0  0  0  0  0
    0.1140    5.1378    0.9516 H   0  0  0  0  0  0  0  0  0  0  0  0
    1.4761    3.4772    0.9166 N   0  0  0  0  0  0  0  0  0  0  0  0
    1.3402    2.1819    0.4104 C   0  0  0  0  0  0  0  0  0  0  0  0
    2.0821    1.3954    0.4598 H   0  0  0  0  0  0  0  0  0  0  0  0
   -0.1073    0.0565    1.7296 C   0  0  0  0  0  0  0  0  0  0  0  0
    1.0285   -0.1699    2.1459 O   0  0  0  0  0  0  0  0  0  0  0  0
   -1.0395    0.6588    2.4785 N   0  0  0  0  0  0  0  0  0  0  0  0
   -1.9636    0.7597    2.0849 H   0  0  0  0  0  0  0  0  0  0  0  0
   -0.8222    1.1334    3.8425 C   0  0  0  0  0  0  0  0  0  0  0  0
   -0.0212    1.8761    3.8521 H   0  0  0  0  0  0  0  0  0  0  0  0
   -1.7349    1.5853    4.2320 H   0  0  0  0  0  0  0  0  0  0  0  0
   -0.5312    0.2997    4.4834 H   0  0  0  0  0  0  0  0  0  0  0  0
  5  6  2  0  0  0  0
  5  7  1  0  0  0  0
  2  3  1  0  0  0  0
  2  4  1  0  0  0  0
  2  5  1  0  0  0  0
  1  2  1  0  0  0  0
 22 23  2  0  0  0  0
 22 24  1  0  0  0  0
 20 21  1  0  0  0  0
 19 20  1  0  0  0  0
 17 18  1  0  0  0  0
 17 19  2  0  0  0  0
 15 16  1  0  0  0  0
 15 17  1  0  0  0  0
 14 15  1  0  0  0  0
 14 20  2  0  0  0  0
 11 12  1  0  0  0  0
 11 13  1  0  0  0  0
 11 14  1  0  0  0  0
  9 10  1  0  0  0  0
  9 11  1  0  0  0  0
  9 22  1  0  0  0  0
  7  8  1  0  0  0  0
  7  9  1  0  0  0  0
 26 27  1  0  0  0  0
 26 28  1  0  0  0  0
 26 29  1  0  0  0  0
 24 25  1  0  0  0  0
 24 26  1  0  0  0  0
M  END
$$$$
default_name
  -OEChem-02102213163D

 29 29  0     1  0  0  0  0  0999 V2000
   -3.6042   -3.5728    1.4576 H   0  0  0  0  0  0  0  0  0  0  0  0
   -3.5202   -2.6488    0.8866 C   0  0  0  0  0  0  0  0  0  0  0  0
   -4.2052   -1.9048    1.2896 H   0  0  0  0  0  0  0  0  0  0  0  0
   -3.7552   -2.8428   -0.1584 H   0  0  0  0  0  0  0  0  0  0  0  0
   -2.1052   -2.1358    0.9946 C   0  0  0  0  0  0  0  0  0  0  0  0
   -1.2852   -2.7288    1.6826 O   0  0  0  0  0  0  0  0  0  0  0  0
   -1.8202   -1.0288    0.3146 N   0  0  0  0  0  0  0  0  0  0  0  0
   -2.5542   -0.5788   -0.2104 H   0  0  0  0  0  0  0  0  0  0  0  0
   -0.5102   -0.3728    0.3086 C   0  0  1  0  0  0  0  0  0  0  0  0
    0.2354   -1.0844   -0.0490 H   0  0  0  0  0  0  0  0  0  0  0  0
   -0.5452    0.8158   -0.6698 C   0  0  0  0  0  0  0  0  0  0  0  0
   -0.0212    0.5396   -1.5865 H   0  0  0  0  0  0  0  0  0  0  0  0
   -1.5831    1.0328   -0.9290 H   0  0  0  0  0  0  0  0  0  0  0  0
    0.0820    2.0700   -0.1186 C   0  0  0  0  0  0  0  0  0  0  0  0
   -0.5881    3.1867    0.3329 N   0  0  0  0  0  0  0  0  0  0  0  0
   -1.5836    3.3437    0.2835 H   0  0  0  0  0  0  0  0  0  0  0  0
    0.3179    4.0354    0.8471 C   0  0  0  0  0  0  0  0  0  0  0  0
    0.0950    5.0049    1.2756 H   0  0  0  0  0  0  0  0  0  0  0  0
    1.5486    3.5102    0.7592 N   0  0  0  0  0  0  0  0  0  0  0  0
    1.4122    2.2632    0.1435 C   0  0  0  0  0  0  0  0  0  0  0  0
    2.2093    1.5591   -0.0575 H   0  0  0  0  0  0  0  0  0  0  0  0
   -0.1073    0.0565    1.7296 C   0  0  0  0  0  0  0  0  0  0  0  0
    1.0285   -0.1699    2.1459 O   0  0  0  0  0  0  0  0  0  0  0  0
   -1.0395    0.6588    2.4785 N   0  0  0  0  0  0  0  0  0  0  0  0
   -1.9636    0.7597    2.0849 H   0  0  0  0  0  0  0  0  0  0  0  0
   -0.8222    1.1334    3.8425 C   0  0  0  0  0  0  0  0  0  0  0  0
   -0.0212    1.8761    3.8521 H   0  0  0  0  0  0  0  0  0  0  0  0
   -1.7349    1.5853    4.2320 H   0  0  0  0  0  0  0  0  0  0  0  0
   -0.5312    0.2997    4.4834 H   0  0  0  0  0  0  0  0  0  0  0  0
  5  6  2  0  0  0  0
  5  7  1  0  0  0  0
  2  3  1  0  0  0  0
  2  4  1  0  0  0  0
  2  5  1  0  0  0  0
  1  2  1  0  0  0  0
 22 23  2  0  0  0  0
 22 24  1  0  0  0  0
 20 21  1  0  0  0  0
 19 20  1  0  0  0  0
 17 18  1  0  0  0  0
 17 19  2  0  0  0  0
 15 16  1  0  0  0  0
 15 17  1  0  0  0  0
 14 15  1  0  0  0  0
 14 20  2  0  0  0  0
 11 12  1  0  0  0  0
 11 13  1  0  0  0  0
 11 14  1  0  0  0  0
  9 10  1  0  0  0  0
  9 11  1  0  0  0  0
  9 22  1  0  0  0  0
  7  8  1  0  0  0  0
  7  9  1  0  0  0  0
 26 27  1  0  0  0  0
 26 28  1  0  0  0  0
 26 29  1  0  0  0  0
 24 25  1  0  0  0  0
 24 26  1  0  0  0  0
M  END
$$$$
default_name
  -OEChem-02102213163D

 29 29  0     1  0  0  0  0  0999 V2000
   -3.6042   -3.5728    1.4576 H   0  0  0  0  0  0  0  0  0  0  0  0
   -3.5202   -2.6488    0.8866 C   0  0  0  0  0  0  0  0  0  0  0  0
   -4.2052   -1.9048    1.2896 H   0  0  0  0  0  0  0  0  0  0  0  0
   -3.7552   -2.8428   -0.1584 H   0  0  0  0  0  0  0  0  0  0  0  0
   -2.1052   -2.1358    0.9946 C   0  0  0  0  0  0  0  0  0  0  0  0
   -1.2852   -2.7288    1.6826 O   0  0  0  0  0  0  0  0  0  0  0  0
   -1.8202   -1.0288    0.3146 N   0  0  0  0  0  0  0  0  0  0  0  0
   -2.5542   -0.5788   -0.2104 H   0  0  0  0  0  0  0  0  0  0  0  0
   -0.5102   -0.3728    0.3086 C   0  0  1  0  0  0  0  0  0  0  0  0
    0.2354   -1.0844   -0.0490 H   0  0  0  0  0  0  0  0  0  0  0  0
   -0.5452    0.8158   -0.6698 C   0  0  0  0  0  0  0  0  0  0  0  0
   -0.0212    0.5396   -1.5865 H   0  0  0  0  0  0  0  0  0  0  0  0
   -1.5831    1.0328   -0.9290 H   0  0  0  0  0  0  0  0  0  0  0  0
    0.0820    2.0700   -0.1186 C   0  0  0  0  0  0  0  0  0  0  0  0
   -0.5621    3.0597    0.5924 N   0  0  0  0  0  0  0  0  0  0  0  0
   -1.5535    3.1138    0.7723 H   0  0  0  0  0  0  0  0  0  0  0  0
    0.3614    3.9459    1.0011 C   0  0  0  0  0  0  0  0  0  0  0  0
    0.1590    4.8398    1.5784 H   0  0  0  0  0  0  0  0  0  0  0  0
    1.5816    3.5658    0.5950 N   0  0  0  0  0  0  0  0  0  0  0  0
    1.4165    2.3773   -0.1211 C   0  0  0  0  0  0  0  0  0  0  0  0
    2.2052    1.7851   -0.5668 H   0  0  0  0  0  0  0  0  0  0  0  0
   -0.1073    0.0565    1.7296 C   0  0  0  0  0  0  0  0  0  0  0  0
    1.0285   -0.1699    2.1459 O   0  0  0  0  0  0  0  0  0  0  0  0
   -1.0395    0.6588    2.4785 N   0  0  0  0  0  0  0  0  0  0  0  0
   -1.9636    0.7597    2.0849 H   0  0  0  0  0  0  0  0  0  0  0  0
   -0.8222    1.1334    3.8425 C   0  0  0  0  0  0  0  0  0  0  0  0
   -0.0212    1.8761    3.8521 H   0  0  0  0  0  0  0  0  0  0  0  0
   -1.7349    1.5853    4.2320 H   0  0  0  0  0  0  0  0  0  0  0  0
   -0.5312    0.2997    4.4834 H   0  0  0  0  0  0  0  0  0  0  0  0
  5  6  2  0  0  0  0
  5  7  1  0  0  0  0
  2  3  1  0  0  0  0
  2  4  1  0  0  0  0
  2  5  1  0  0  0  0
  1  2  1  0  0  0  0
 22 23  2  0  0  0  0
 22 24  1  0  0  0  0
 20 21  1  0  0  0  0
 19 20  1  0  0  0  0
 17 18  1  0  0  0  0
 17 19  2  0  0  0  0
 15 16  1  0  0  0  0
 15 17  1  0  0  0  0
 14 15  1  0  0  0  0
 14 20  2  0  0  0  0
 11 12  1  0  0  0  0
 11 13  1  0  0  0  0
 11 14  1  0  0  0  0
  9 10  1  0  0  0  0
  9 11  1  0  0  0  0
  9 22  1  0  0  0  0
  7  8  1  0  0  0  0
  7  9  1  0  0  0  0
 26 27  1  0  0  0  0
 26 28  1  0  0  0  0
 26 29  1  0  0  0  0
 24 25  1  0  0  0  0
 24 26  1  0  0  0  0
M  END
$$$$
default_name
  -OEChem-02102213163D

 29 29  0     1  0  0  0  0  0999 V2000
   -3.6042   -3.5728    1.4576 H   0  0  0  0  0  0  0  0  0  0  0  0
   -3.5202   -2.6488    0.8866 C   0  0  0  0  0  0  0  0  0  0  0  0
   -4.2052   -1.9048    1.2896 H   0  0  0  0  0  0  0  0  0  0  0  0
   -3.7552   -2.8428   -0.1584 H   0  0  0  0  0  0  0  0  0  0  0  0
   -2.1052   -2.1358    0.9946 C   0  0  0  0  0  0  0  0  0  0  0  0
   -1.2852   -2.7288    1.6826 O   0  0  0  0  0  0  0  0  0  0  0  0
   -1.8202   -1.0288    0.3146 N   0  0  0  0  0  0  0  0  0  0  0  0
   -2.5542   -0.5788   -0.2104 H   0  0  0  0  0  0  0  0  0  0  0  0
   -0.5102   -0.3728    0.3086 C   0  0  1  0  0  0  0  0  0  0  0  0
    0.2354   -1.0844   -0.0490 H   0  0  0  0  0  0  0  0  0  0  0  0
   -0.5452    0.8158   -0.6698 C   0  0  0  0  0  0  0  0  0  0  0  0
   -0.0212    0.5396   -1.5865 H   0  0  0  0  0  0  0  0  0  0  0  0
   -1.5831    1.0328   -0.9290 H   0  0  0  0  0  0  0  0  0  0  0  0
    0.0820    2.0700   -0.1186 C   0  0  0  0  0  0  0  0  0  0  0  0
   -0.4691    2.9115    0.8238 N   0  0  0  0  0  0  0  0  0  0  0  0
   -1.3974    2.8420    1.2131 H   0  0  0  0  0  0  0  0  0  0  0  0
    0.4451    3.8470    1.1309 C   0  0  0  0  0  0  0  0  0  0  0  0
    0.3017    4.6538    1.8393 H   0  0  0  0  0  0  0  0  0  0  0  0
    1.5729    3.6403    0.4354 N   0  0  0  0  0  0  0  0  0  0  0  0
    1.3529    2.5165   -0.3653 C   0  0  0  0  0  0  0  0  0  0  0  0
    2.0701    2.0578   -1.0337 H   0  0  0  0  0  0  0  0  0  0  0  0
   -0.1073    0.0565    1.7296 C   0  0  0  0  0  0  0  0  0  0  0  0
    1.0285   -0.1699    2.1459 O   0  0  0  0  0  0  0  0  0  0  0  0
   -1.0395    0.6588    2.4785 N   0  0  0  0  0  0  0  0  0  0  0  0
   -1.9636    0.7597    2.0849 H   0  0  0  0  0  0  0  0  0  0  0  0
   -0.8222    1.1334    3.8425 C   0  0  0  0  0  0  0  0  0  0  0  0
   -0.0212    1.8761    3.8521 H   0  0  0  0  0  0  0  0  0  0  0  0
   -1.7349    1.5853    4.2320 H   0  0  0  0  0  0  0  0  0  0  0  0
   -0.5312    0.2997    4.4834 H   0  0  0  0  0  0  0  0  0  0  0  0
  5  6  2  0  0  0  0
  5  7  1  0  0  0  0
  2  3  1  0  0  0  0
  2  4  1  0  0  0  0
  2  5  1  0  0  0  0
  1  2  1  0  0  0  0
 22 23  2  0  0  0  0
 22 24  1  0  0  0  0
 20 21  1  0  0  0  0
 19 20  1  0  0  0  0
 17 18  1  0  0  0  0
 17 19  2  0  0  0  0
 15 16  1  0  0  0  0
 15 17  1  0  0  0  0
 14 15  1  0  0  0  0
 14 20  2  0  0  0  0
 11 12  1  0  0  0  0
 11 13  1  0  0  0  0
 11 14  1  0  0  0  0
  9 10  1  0  0  0  0
  9 11  1  0  0  0  0
  9 22  1  0  0  0  0
  7  8  1  0  0  0  0
  7  9  1  0  0  0  0
 26 27  1  0  0  0  0
 26 28  1  0  0  0  0
 26 29  1  0  0  0  0
 24 25  1  0  0  0  0
 24 26  1  0  0  0  0
M  END
$$$$
default_name
  -OEChem-02102213163D

 29 29  0     1  0  0  0  0  0999 V2000
   -3.6042   -3.5728    1.4576 H   0  0  0  0  0  0  0  0  0  0  0  0
   -3.5202   -2.6488    0.8866 C   0  0  0  0  0  0  0  0  0  0  0  0
   -4.2052   -1.9048    1.2896 H   0  0  0  0  0  0  0  0  0  0  0  0
   -3.7552   -2.8428   -0.1584 H   0  0  0  0  0  0  0  0  0  0  0  0
   -2.1052   -2.1358    0.9946 C   0  0  0  0  0  0  0  0  0  0  0  0
   -1.2852   -2.7288    1.6826 O   0  0  0  0  0  0  0  0  0  0  0  0
   -1.8202   -1.0288    0.3146 N   0  0  0  0  0  0  0  0  0  0  0  0
   -2.5542   -0.5788   -0.2104 H   0  0  0  0  0  0  0  0  0  0  0  0
   -0.5102   -0.3728    0.3086 C   0  0  1  0  0  0  0  0  0  0  0  0
    0.2354   -1.0844   -0.0490 H   0  0  0  0  0  0  0  0  0  0  0  0
   -0.5452    0.8158   -0.6698 C   0  0  0  0  0  0  0  0  0  0  0  0
   -0.0212    0.5396   -1.5865 H   0  0  0  0  0  0  0  0  0  0  0  0
   -1.5831    1.0328   -0.9290 H   0  0  0  0  0  0  0  0  0  0  0  0
    0.0820    2.0700   -0.1186 C   0  0  0  0  0  0  0  0  0  0  0  0
   -0.3155    2.7523    1.0112 N   0  0  0  0  0  0  0  0  0  0  0  0
   -1.1259    2.5467    1.5761 H   0  0  0  0  0  0  0  0  0  0  0  0
    0.5633    3.7454    1.2276 C   0  0  0  0  0  0  0  0  0  0  0  0
    0.5133    4.4595    2.0406 H   0  0  0  0  0  0  0  0  0  0  0  0
    1.5229    3.7287    0.2911 N   0  0  0  0  0  0  0  0  0  0  0  0
    1.2257    2.6712   -0.5725 C   0  0  0  0  0  0  0  0  0  0  0  0
    1.8132    2.3587   -1.4261 H   0  0  0  0  0  0  0  0  0  0  0  0
   -0.1073    0.0565    1.7296 C   0  0  0  0  0  0  0  0  0  0  0  0
    1.0285   -0.1699    2.1459 O   0  0  0  0  0  0  0  0  0  0  0  0
   -1.0395    0.6588    2.4785 N   0  0  0  0  0  0  0  0  0  0  0  0
   -1.9636    0.7597    2.0849 H   0  0  0  0  0  0  0  0  0  0  0  0
   -0.8222    1.1334    3.8425 C   0  0  0  0  0  0  0  0  0  0  0  0
   -0.0212    1.8761    3.8521 H   0  0  0  0  0  0  0  0  0  0  0  0
   -1.7349    1.5853    4.2320 H   0  0  0  0  0  0  0  0  0  0  0  0
   -0.5312    0.2997    4.4834 H   0  0  0  0  0  0  0  0  0  0  0  0
  5  6  2  0  0  0  0
  5  7  1  0  0  0  0
  2  3  1  0  0  0  0
  2  4  1  0  0  0  0
  2  5  1  0  0  0  0
  1  2  1  0  0  0  0
 22 23  2  0  0  0  0
 22 24  1  0  0  0  0
 20 21  1  0  0  0  0
 19 20  1  0  0  0  0
 17 18  1  0  0  0  0
 17 19  2  0  0  0  0
 15 16  1  0  0  0  0
 15 17  1  0  0  0  0
 14 15  1  0  0  0  0
 14 20  2  0  0  0  0
 11 12  1  0  0  0  0
 11 13  1  0  0  0  0
 11 14  1  0  0  0  0
  9 10  1  0  0  0  0
  9 11  1  0  0  0  0
  9 22  1  0  0  0  0
  7  8  1  0  0  0  0
  7  9  1  0  0  0  0
 26 27  1  0  0  0  0
 26 28  1  0  0  0  0
 26 29  1  0  0  0  0
 24 25  1  0  0  0  0
 24 26  1  0  0  0  0
M  END
$$$$
default_name
  -OEChem-02102213163D

 29 29  0     1  0  0  0  0  0999 V2000
   -3.6042   -3.5728    1.4576 H   0  0  0  0  0  0  0  0  0  0  0  0
   -3.5202   -2.6488    0.8866 C   0  0  0  0  0  0  0  0  0  0  0  0
   -4.2052   -1.9048    1.2896 H   0  0  0  0  0  0  0  0  0  0  0  0
   -3.7552   -2.8428   -0.1584 H   0  0  0  0  0  0  0  0  0  0  0  0
   -2.1052   -2.1358    0.9946 C   0  0  0  0  0  0  0  0  0  0  0  0
   -1.2852   -2.7288    1.6826 O   0  0  0  0  0  0  0  0  0  0  0  0
   -1.8202   -1.0288    0.3146 N   0  0  0  0  0  0  0  0  0  0  0  0
   -2.5542   -0.5788   -0.2104 H   0  0  0  0  0  0  0  0  0  0  0  0
   -0.5102   -0.3728    0.3086 C   0  0  1  0  0  0  0  0  0  0  0  0
    0.2354   -1.0844   -0.0490 H   0  0  0  0  0  0  0  0  0  0  0  0
   -0.5452    0.8158   -0.6698 C   0  0  0  0  0  0  0  0  0  0  0  0
   -0.0212    0.5396   -1.5865 H   0  0  0  0  0  0  0  0  0  0  0  0
   -1.5831    1.0328   -0.9290 H   0  0  0  0  0  0  0  0  0  0  0  0
    0.0820    2.0700   -0.1186 C   0  0  0  0  0  0  0  0  0  0  0  0
   -0.1115    2.5928    1.1421 N   0  0  0  0  0  0  0  0  0  0  0  0
   -0.7575    2.2481    1.8363 H   0  0  0  0  0  0  0  0  0  0  0  0
    0.7079    3.6481    1.2846 C   0  0  0  0  0  0  0  0  0  0  0  0
    0.7795    4.2702    2.1684 H   0  0  0  0  0  0  0  0  0  0  0  0
    1.4353    3.8249    0.1719 N   0  0  0  0  0  0  0  0  0  0  0  0
    1.0435    2.8308   -0.7285 C   0  0  0  0  0  0  0  0  0  0  0  0
    1.4520    2.6674   -1.7174 H   0  0  0  0  0  0  0  0  0  0  0  0
   -0.1073    0.0565    1.7296 C   0  0  0  0  0  0  0  0  0  0  0  0
    1.0285   -0.1699    2.1459 O   0  0  0  0  0  0  0  0  0  0  0  0
   -1.0395    0.6588    2.4785 N   0  0  0  0  0  0  0  0  0  0  0  0
   -1.9636    0.7597    2.0849 H   0  0  0  0  0  0  0  0  0  0  0  0
   -0.8222    1.1334    3.8425 C   0  0  0  0  0  0  0  0  0  0  0  0
   -0.0212    1.8761    3.8521 H   0  0  0  0  0  0  0  0  0  0  0  0
   -1.7349    1.5853    4.2320 H   0  0  0  0  0  0  0  0  0  0  0  0
   -0.5312    0.2997    4.4834 H   0  0  0  0  0  0  0  0  0  0  0  0
  5  6  2  0  0  0  0
  5  7  1  0  0  0  0
  2  3  1  0  0  0  0
  2  4  1  0  0  0  0
  2  5  1  0  0  0  0
  1  2  1  0  0  0  0
 22 23  2  0  0  0  0
 22 24  1  0  0  0  0
 20 21  1  0  0  0  0
 19 20  1  0  0  0  0
 17 18  1  0  0  0  0
 17 19  2  0  0  0  0
 15 16  1  0  0  0  0
 15 17  1  0  0  0  0
 14 15  1  0  0  0  0
 14 20  2  0  0  0  0
 11 12  1  0  0  0  0
 11 13  1  0  0  0  0
 11 14  1  0  0  0  0
  9 10  1  0  0  0  0
  9 11  1  0  0  0  0
  9 22  1  0  0  0  0
  7  8  1  0  0  0  0
  7  9  1  0  0  0  0
 26 27  1  0  0  0  0
 26 28  1  0  0  0  0
 26 29  1  0  0  0  0
 24 25  1  0  0  0  0
 24 26  1  0  0  0  0
M  END
$$$$
default_name
  -OEChem-02102213163D

 29 29  0     1  0  0  0  0  0999 V2000
   -3.6042   -3.5728    1.4576 H   0  0  0  0  0  0  0  0  0  0  0  0
   -3.5202   -2.6488    0.8866 C   0  0  0  0  0  0  0  0  0  0  0  0
   -4.2052   -1.9048    1.2896 H   0  0  0  0  0  0  0  0  0  0  0  0
   -3.7552   -2.8428   -0.1584 H   0  0  0  0  0  0  0  0  0  0  0  0
   -2.1052   -2.1358    0.9946 C   0  0  0  0  0  0  0  0  0  0  0  0
   -1.2852   -2.7288    1.6826 O   0  0  0  0  0  0  0  0  0  0  0  0
   -1.8202   -1.0288    0.3146 N   0  0  0  0  0  0  0  0  0  0  0  0
   -2.5542   -0.5788   -0.2104 H   0  0  0  0  0  0  0  0  0  0  0  0
   -0.5102   -0.3728    0.3086 C   0  0  1  0  0  0  0  0  0  0  0  0
    0.2354   -1.0844   -0.0490 H   0  0  0  0  0  0  0  0  0  0  0  0
   -0.5452    0.8158   -0.6698 C   0  0  0  0  0  0  0  0  0  0  0  0
   -0.0212    0.5396   -1.5865 H   0  0  0  0  0  0  0  0  0  0  0  0
   -1.5831    1.0328   -0.9290 H   0  0  0  0  0  0  0  0  0  0  0  0
    0.0820    2.0700   -0.1186 C   0  0  0  0  0  0  0  0  0  0  0  0
    0.1287    2.4440    1.2073 N   0  0  0  0  0  0  0  0  0  0  0  0
   -0.3173    1.9665    1.9762 H   0  0  0  0  0  0  0  0  0  0  0  0
    0.8691    3.5616    1.2980 C   0  0  0  0  0  0  0  0  0  0  0  0
    1.0821    4.0987    2.2141 H   0  0  0  0  0  0  0  0  0  0  0  0
    1.3158    3.9224    0.0862 N   0  0  0  0  0  0  0  0  0  0  0  0
    0.8188    2.9847   -0.8228 C   0  0  0  0  0  0  0  0  0  0  0  0
    1.0112    2.9627   -1.8877 H   0  0  0  0  0  0  0  0  0  0  0  0
   -0.1073    0.0565    1.7296 C   0  0  0  0  0  0  0  0  0  0  0  0
    1.0285   -0.1699    2.1459 O   0  0  0  0  0  0  0  0  0  0  0  0
   -1.0395    0.6588    2.4785 N   0  0  0  0  0  0  0  0  0  0  0  0
   -1.9636    0.7597    2.0849 H   0  0  0  0  0  0  0  0  0  0  0  0
   -0.8222    1.1334    3.8425 C   0  0  0  0  0  0  0  0  0  0  0  0
   -0.0212    1.8761    3.8521 H   0  0  0  0  0  0  0  0  0  0  0  0
   -1.7349    1.5853    4.2320 H   0  0  0  0  0  0  0  0  0  0  0  0
   -0.5312    0.2997    4.4834 H   0  0  0  0  0  0  0  0  0  0  0  0
  5  6  2  0  0  0  0
  5  7  1  0  0  0  0
  2  3  1  0  0  0  0
  2  4  1  0  0  0  0
  2  5  1  0  0  0  0
  1  2  1  0  0  0  0
 22 23  2  0  0  0  0
 22 24  1  0  0  0  0
 20 21  1  0  0  0  0
 19 20  1  0  0  0  0
 17 18  1  0  0  0  0
 17 19  2  0  0  0  0
 15 16  1  0  0  0  0
 15 17  1  0  0  0  0
 14 15  1  0  0  0  0
 14 20  2  0  0  0  0
 11 12  1  0  0  0  0
 11 13  1  0  0  0  0
 11 14  1  0  0  0  0
  9 10  1  0  0  0  0
  9 11  1  0  0  0  0
  9 22  1  0  0  0  0
  7  8  1  0  0  0  0
  7  9  1  0  0  0  0
 26 27  1  0  0  0  0
 26 28  1  0  0  0  0
 26 29  1  0  0  0  0
 24 25  1  0  0  0  0
 24 26  1  0  0  0  0
M  END
$$$$
default_name
  -OEChem-02102213163D

 29 29  0     1  0  0  0  0  0999 V2000
   -3.6042   -3.5728    1.4576 H   0  0  0  0  0  0  0  0  0  0  0  0
   -3.5202   -2.6488    0.8866 C   0  0  0  0  0  0  0  0  0  0  0  0
   -4.2052   -1.9048    1.2896 H   0  0  0  0  0  0  0  0  0  0  0  0
   -3.7552   -2.8428   -0.1584 H   0  0  0  0  0  0  0  0  0  0  0  0
   -2.1052   -2.1358    0.9946 C   0  0  0  0  0  0  0  0  0  0  0  0
   -1.2852   -2.7288    1.6826 O   0  0  0  0  0  0  0  0  0  0  0  0
   -1.8202   -1.0288    0.3146 N   0  0  0  0  0  0  0  0  0  0  0  0
   -2.5542   -0.5788   -0.2104 H   0  0  0  0  0  0  0  0  0  0  0  0
   -0.5102   -0.3728    0.3086 C   0  0  1  0  0  0  0  0  0  0  0  0
    0.2354   -1.0844   -0.0490 H   0  0  0  0  0  0  0  0  0  0  0  0
   -0.5452    0.8158   -0.6698 C   0  0  0  0  0  0  0  0  0  0  0  0
   -0.0212    0.5396   -1.5865 H   0  0  0  0  0  0  0  0  0  0  0  0
   -1.5831    1.0328   -0.9290 H   0  0  0  0  0  0  0  0  0  0  0  0
    0.0820    2.0700   -0.1186 C   0  0  0  0  0  0  0  0  0  0  0  0
    0.3889    2.3159    1.2025 N   0  0  0  0  0  0  0  0  0  0  0  0
    0.1647    1.7211    1.9861 H   0  0  0  0  0  0  0  0  0  0  0  0
    1.0358    3.4919    1.2669 C   0  0  0  0  0  0  0  0  0  0  0  0
    1.4005    3.9569    2.1747 H   0  0  0  0  0  0  0  0  0  0  0  0
    1.1727    4.0144    0.0395 N   0  0  0  0  0  0  0  0  0  0  0  0
    0.5669    3.1221   -0.8489 C   0  0  0  0  0  0  0  0  0  0  0  0
    0.5208    3.2245   -1.9254 H   0  0  0  0  0  0  0  0  0  0  0  0
   -0.1073    0.0565    1.7296 C   0  0  0  0  0  0  0  0  0  0  0  0
    1.0285   -0.1699    2.1459 O   0  0  0  0  0  0  0  0  0  0  0  0
   -1.0395    0.6588    2.4785 N   0  0  0  0  0  0  0  0  0  0  0  0
   -1.9636    0.7597    2.0849 H   0  0  0  0  0  0  0  0  0  0  0  0
   -0.8222    1.1334    3.8425 C   0  0  0  0  0  0  0  0  0  0  0  0
   -0.0212    1.8761    3.8521 H   0  0  0  0  0  0  0  0  0  0  0  0
   -1.7349    1.5853    4.2320 H   0  0  0  0  0  0  0  0  0  0  0  0
   -0.5312    0.2997    4.4834 H   0  0  0  0  0  0  0  0  0  0  0  0
  5  6  2  0  0  0  0
  5  7  1  0  0  0  0
  2  3  1  0  0  0  0
  2  4  1  0  0  0  0
  2  5  1  0  0  0  0
  1  2  1  0  0  0  0
 22 23  2  0  0  0  0
 22 24  1  0  0  0  0
 20 21  1  0  0  0  0
 19 20  1  0  0  0  0
 17 18  1  0  0  0  0
 17 19  2  0  0  0  0
 15 16  1  0  0  0  0
 15 17  1  0  0  0  0
 14 15  1  0  0  0  0
 14 20  2  0  0  0  0
 11 12  1  0  0  0  0
 11 13  1  0  0  0  0
 11 14  1  0  0  0  0
  9 10  1  0  0  0  0
  9 11  1  0  0  0  0
  9 22  1  0  0  0  0
  7  8  1  0  0  0  0
  7  9  1  0  0  0  0
 26 27  1  0  0  0  0
 26 28  1  0  0  0  0
 26 29  1  0  0  0  0
 24 25  1  0  0  0  0
 24 26  1  0  0  0  0
M  END
$$$$
default_name
  -OEChem-02102213163D

 29 29  0     1  0  0  0  0  0999 V2000
   -3.6042   -3.5728    1.4576 H   0  0  0  0  0  0  0  0  0  0  0  0
   -3.5202   -2.6488    0.8866 C   0  0  0  0  0  0  0  0  0  0  0  0
   -4.2052   -1.9048    1.2896 H   0  0  0  0  0  0  0  0  0  0  0  0
   -3.7552   -2.8428   -0.1584 H   0  0  0  0  0  0  0  0  0  0  0  0
   -2.1052   -2.1358    0.9946 C   0  0  0  0  0  0  0  0  0  0  0  0
   -1.2852   -2.7288    1.6826 O   0  0  0  0  0  0  0  0  0  0  0  0
   -1.8202   -1.0288    0.3146 N   0  0  0  0  0  0  0  0  0  0  0  0
   -2.5542   -0.5788   -0.2104 H   0  0  0  0  0  0  0  0  0  0  0  0
   -0.5102   -0.3728    0.3086 C   0  0  1  0  0  0  0  0  0  0  0  0
    0.2354   -1.0844   -0.0490 H   0  0  0  0  0  0  0  0  0  0  0  0
   -0.5452    0.8158   -0.6698 C   0  0  0  0  0  0  0  0  0  0  0  0
   -0.0212    0.5396   -1.5865 H   0  0  0  0  0  0  0  0  0  0  0  0
   -1.5831    1.0328   -0.9290 H   0  0  0  0  0  0  0  0  0  0  0  0
    0.0820    2.0700   -0.1186 C   0  0  0  0  0  0  0  0  0  0  0  0
    0.6514    2.2174    1.1281 N   0  0  0  0  0  0  0  0  0  0  0  0
    0.6557    1.5286    1.8654 H   0  0  0  0  0  0  0  0  0  0  0  0
    1.1968    3.4437    1.1934 C   0  0  0  0  0  0  0  0  0  0  0  0
    1.7129    3.8542    2.0527 H   0  0  0  0  0  0  0  0  0  0  0  0
    1.0157    4.0948    0.0352 N   0  0  0  0  0  0  0  0  0  0  0  0
    0.3049    3.2338   -0.8050 C   0  0  0  0  0  0  0  0  0  0  0  0
    0.0141    3.4351   -1.8279 H   0  0  0  0  0  0  0  0  0  0  0  0
   -0.1073    0.0565    1.7296 C   0  0  0  0  0  0  0  0  0  0  0  0
    1.0285   -0.1699    2.1459 O   0  0  0  0  0  0  0  0  0  0  0  0
   -1.0395    0.6588    2.4785 N   0  0  0  0  0  0  0  0  0  0  0  0
   -1.9636    0.7597    2.0849 H   0  0  0  0  0  0  0  0  0  0  0  0
   -0.8222    1.1334    3.8425 C   0  0  0  0  0  0  0  0  0  0  0  0
   -0.0212    1.8761    3.8521 H   0  0  0  0  0  0  0  0  0  0  0  0
   -1.7349    1.5853    4.2320 H   0  0  0  0  0  0  0  0  0  0  0  0
   -0.5312    0.2997    4.4834 H   0  0  0  0  0  0  0  0  0  0  0  0
  5  6  2  0  0  0  0
  5  7  1  0  0  0  0
  2  3  1  0  0  0  0
  2  4  1  0  0  0  0
  2  5  1  0  0  0  0
  1  2  1  0  0  0  0
 22 23  2  0  0  0  0
 22 24  1  0  0  0  0
 20 21  1  0  0  0  0
 19 20  1  0  0  0  0
 17 18  1  0  0  0  0
 17 19  2  0  0  0  0
 15 16  1  0  0  0  0
 15 17  1  0  0  0  0
 14 15  1  0  0  0  0
 14 20  2  0  0  0  0
 11 12  1  0  0  0  0
 11 13  1  0  0  0  0
 11 14  1  0  0  0  0
  9 10  1  0  0  0  0
  9 11  1  0  0  0  0
  9 22  1  0  0  0  0
  7  8  1  0  0  0  0
  7  9  1  0  0  0  0
 26 27  1  0  0  0  0
 26 28  1  0  0  0  0
 26 29  1  0  0  0  0
 24 25  1  0  0  0  0
 24 26  1  0  0  0  0
M  END
$$$$
default_name
  -OEChem-02102213163D

 29 29  0     1  0  0  0  0  0999 V2000
   -3.6042   -3.5728    1.4576 H   0  0  0  0  0  0  0  0  0  0  0  0
   -3.5202   -2.6488    0.8866 C   0  0  0  0  0  0  0  0  0  0  0  0
   -4.2052   -1.9048    1.2896 H   0  0  0  0  0  0  0  0  0  0  0  0
   -3.7552   -2.8428   -0.1584 H   0  0  0  0  0  0  0  0  0  0  0  0
   -2.1052   -2.1358    0.9946 C   0  0  0  0  0  0  0  0  0  0  0  0
   -1.2852   -2.7288    1.6826 O   0  0  0  0  0  0  0  0  0  0  0  0
   -1.8202   -1.0288    0.3146 N   0  0  0  0  0  0  0  0  0  0  0  0
   -2.5542   -0.5788   -0.2104 H   0  0  0  0  0  0  0  0  0  0  0  0
   -0.5102   -0.3728    0.3086 C   0  0  1  0  0  0  0  0  0  0  0  0
    0.2354   -1.0844   -0.0490 H   0  0  0  0  0  0  0  0  0  0  0  0
   -0.5452    0.8158   -0.6698 C   0  0  0  0  0  0  0  0  0  0  0  0
   -0.0212    0.5396   -1.5865 H   0  0  0  0  0  0  0  0  0  0  0  0
   -1.5831    1.0328   -0.9290 H   0  0  0  0  0  0  0  0  0  0  0  0
    0.0820    2.0700   -0.1186 C   0  0  0  0  0  0  0  0  0  0  0  0
    0.8982    2.1551    0.9890 N   0  0  0  0  0  0  0  0  0  0  0  0
    1.1221    1.4022    1.6223 H   0  0  0  0  0  0  0  0  0  0  0  0
    1.3410    3.4202    1.0826 C   0  0  0  0  0  0  0  0  0  0  0  0
    1.9981    3.7978    1.8565 H   0  0  0  0  0  0  0  0  0  0  0  0
    0.8555    4.1581    0.0735 N   0  0  0  0  0  0  0  0  0  0  0  0
    0.0508    3.3122   -0.6941 C   0  0  0  0  0  0  0  0  0  0  0  0
   -0.4742    3.5800   -1.6019 H   0  0  0  0  0  0  0  0  0  0  0  0
   -0.1073    0.0565    1.7296 C   0  0  0  0  0  0  0  0  0  0  0  0
    1.0285   -0.1699    2.1459 O   0  0  0  0  0  0  0  0  0  0  0  0
   -1.0395    0.6588    2.4785 N   0  0  0  0  0  0  0  0  0  0  0  0
   -1.9636    0.7597    2.0849 H   0  0  0  0  0  0  0  0  0  0  0  0
   -0.8222    1.1334    3.8425 C   0  0  0  0  0  0  0  0  0  0  0  0
   -0.0212    1.8761    3.8521 H   0  0  0  0  0  0  0  0  0  0  0  0
   -1.7349    1.5853    4.2320 H   0  0  0  0  0  0  0  0  0  0  0  0
   -0.5312    0.2997    4.4834 H   0  0  0  0  0  0  0  0  0  0  0  0
  5  6  2  0  0  0  0
  5  7  1  0  0  0  0
  2  3  1  0  0  0  0
  2  4  1  0  0  0  0
  2  5  1  0  0  0  0
  1  2  1  0  0  0  0
 22 23  2  0  0  0  0
 22 24  1  0  0  0  0
 20 21  1  0  0  0  0
 19 20  1  0  0  0  0
 17 18  1  0  0  0  0
 17 19  2  0  0  0  0
 15 16  1  0  0  0  0
 15 17  1  0  0  0  0
 14 15  1  0  0  0  0
 14 20  2  0  0  0  0
 11 12  1  0  0  0  0
 11 13  1  0  0  0  0
 11 14  1  0  0  0  0
  9 10  1  0  0  0  0
  9 11  1  0  0  0  0
  9 22  1  0  0  0  0
  7  8  1  0  0  0  0
  7  9  1  0  0  0  0
 26 27  1  0  0  0  0
 26 28  1  0  0  0  0
 26 29  1  0  0  0  0
 24 25  1  0  0  0  0
 24 26  1  0  0  0  0
M  END
$$$$
default_name
  -OEChem-02102213163D

 29 29  0     1  0  0  0  0  0999 V2000
   -3.6042   -3.5728    1.4576 H   0  0  0  0  0  0  0  0  0  0  0  0
   -3.5202   -2.6488    0.8866 C   0  0  0  0  0  0  0  0  0  0  0  0
   -4.2052   -1.9048    1.2896 H   0  0  0  0  0  0  0  0  0  0  0  0
   -3.7552   -2.8428   -0.1584 H   0  0  0  0  0  0  0  0  0  0  0  0
   -2.1052   -2.1358    0.9946 C   0  0  0  0  0  0  0  0  0  0  0  0
   -1.2852   -2.7288    1.6826 O   0  0  0  0  0  0  0  0  0  0  0  0
   -1.8202   -1.0288    0.3146 N   0  0  0  0  0  0  0  0  0  0  0  0
   -2.5542   -0.5788   -0.2104 H   0  0  0  0  0  0  0  0  0  0  0  0
   -0.5102   -0.3728    0.3086 C   0  0  1  0  0  0  0  0  0  0  0  0
    0.2354   -1.0844   -0.0490 H   0  0  0  0  0  0  0  0  0  0  0  0
   -0.5452    0.8158   -0.6698 C   0  0  0  0  0  0  0  0  0  0  0  0
   -0.0212    0.5396   -1.5865 H   0  0  0  0  0  0  0  0  0  0  0  0
   -1.5831    1.0328   -0.9290 H   0  0  0  0  0  0  0  0  0  0  0  0
    0.0820    2.0700   -0.1186 C   0  0  0  0  0  0  0  0  0  0  0  0
    1.1125    2.1333    0.7947 N   0  0  0  0  0  0  0  0  0  0  0  0
    1.5322    1.3504    1.2733 H   0  0  0  0  0  0  0  0  0  0  0  0
    1.4587    3.4232    0.9419 C   0  0  0  0  0  0  0  0  0  0  0  0
    2.2367    3.7915    1.5994 H   0  0  0  0  0  0  0  0  0  0  0  0
    0.7031    4.1999    0.1519 N   0  0  0  0  0  0  0  0  0  0  0  0
   -0.1783    3.3519   -0.5238 C   0  0  0  0  0  0  0  0  0  0  0  0
   -0.9110    3.6494   -1.2628 H   0  0  0  0  0  0  0  0  0  0  0  0
   -0.1073    0.0565    1.7296 C   0  0  0  0  0  0  0  0  0  0  0  0
    1.0285   -0.1699    2.1459 O   0  0  0  0  0  0  0  0  0  0  0  0
   -1.0395    0.6588    2.4785 N   0  0  0  0  0  0  0  0  0  0  0  0
   -1.9636    0.7597    2.0849 H   0  0  0  0  0  0  0  0  0  0  0  0
   -0.8222    1.1334    3.8425 C   0  0  0  0  0  0  0  0  0  0  0  0
   -0.0212    1.8761    3.8521 H   0  0  0  0  0  0  0  0  0  0  0  0
   -1.7349    1.5853    4.2320 H   0  0  0  0  0  0  0  0  0  0  0  0
   -0.5312    0.2997    4.4834 H   0  0  0  0  0  0  0  0  0  0  0  0
  5  6  2  0  0  0  0
  5  7  1  0  0  0  0
  2  3  1  0  0  0  0
  2  4  1  0  0  0  0
  2  5  1  0  0  0  0
  1  2  1  0  0  0  0
 22 23  2  0  0  0  0
 22 24  1  0  0  0  0
 20 21  1  0  0  0  0
 19 20  1  0  0  0  0
 17 18  1  0  0  0  0
 17 19  2  0  0  0  0
 15 16  1  0  0  0  0
 15 17  1  0  0  0  0
 14 15  1  0  0  0  0
 14 20  2  0  0  0  0
 11 12  1  0  0  0  0
 11 13  1  0  0  0  0
 11 14  1  0  0  0  0
  9 10  1  0  0  0  0
  9 11  1  0  0  0  0
  9 22  1  0  0  0  0
  7  8  1  0  0  0  0
  7  9  1  0  0  0  0
 26 27  1  0  0  0  0
 26 28  1  0  0  0  0
 26 29  1  0  0  0  0
 24 25  1  0  0  0  0
 24 26  1  0  0  0  0
M  END
$$$$
default_name
  -OEChem-02102213163D

 29 29  0     1  0  0  0  0  0999 V2000
   -3.6042   -3.5728    1.4576 H   0  0  0  0  0  0  0  0  0  0  0  0
   -3.5202   -2.6488    0.8866 C   0  0  0  0  0  0  0  0  0  0  0  0
   -4.2052   -1.9048    1.2896 H   0  0  0  0  0  0  0  0  0  0  0  0
   -3.7552   -2.8428   -0.1584 H   0  0  0  0  0  0  0  0  0  0  0  0
   -2.1052   -2.1358    0.9946 C   0  0  0  0  0  0  0  0  0  0  0  0
   -1.2852   -2.7288    1.6826 O   0  0  0  0  0  0  0  0  0  0  0  0
   -1.8202   -1.0288    0.3146 N   0  0  0  0  0  0  0  0  0  0  0  0
   -2.5542   -0.5788   -0.2104 H   0  0  0  0  0  0  0  0  0  0  0  0
   -0.5102   -0.3728    0.3086 C   0  0  1  0  0  0  0  0  0  0  0  0
    0.2354   -1.0844   -0.0490 H   0  0  0  0  0  0  0  0  0  0  0  0
   -0.5452    0.8158   -0.6698 C   0  0  0  0  0  0  0  0  0  0  0  0
   -0.0212    0.5396   -1.5865 H   0  0  0  0  0  0  0  0  0  0  0  0
   -1.5831    1.0328   -0.9290 H   0  0  0  0  0  0  0  0  0  0  0  0
    0.0820    2.0700   -0.1186 C   0  0  0  0  0  0  0  0  0  0  0  0
    1.2797    2.1534    0.5586 N   0  0  0  0  0  0  0  0  0  0  0  0
    1.8581    1.3768    0.8424 H   0  0  0  0  0  0  0  0  0  0  0  0
    1.5417    3.4524    0.7810 C   0  0  0  0  0  0  0  0  0  0  0  0
    2.4124    3.8357    1.2990 H   0  0  0  0  0  0  0  0  0  0  0  0
    0.5687    4.2174    0.2649 N   0  0  0  0  0  0  0  0  0  0  0  0
   -0.3666    3.3502   -0.3057 C   0  0  0  0  0  0  0  0  0  0  0  0
   -1.2664    3.6385   -0.8337 H   0  0  0  0  0  0  0  0  0  0  0  0
   -0.1073    0.0565    1.7296 C   0  0  0  0  0  0  0  0  0  0  0  0
    1.0285   -0.1699    2.1459 O   0  0  0  0  0  0  0  0  0  0  0  0
   -1.0395    0.6588    2.4785 N   0  0  0  0  0  0  0  0  0  0  0  0
   -1.9636    0.7597    2.0849 H   0  0  0  0  0  0  0  0  0  0  0  0
   -0.8222    1.1334    3.8425 C   0  0  0  0  0  0  0  0  0  0  0  0
   -0.0212    1.8761    3.8521 H   0  0  0  0  0  0  0  0  0  0  0  0
   -1.7349    1.5853    4.2320 H   0  0  0  0  0  0  0  0  0  0  0  0
   -0.5312    0.2997    4.4834 H   0  0  0  0  0  0  0  0  0  0  0  0
  5  6  2  0  0  0  0
  5  7  1  0  0  0  0
  2  3  1  0  0  0  0
  2  4  1  0  0  0  0
  2  5  1  0  0  0  0
  1  2  1  0  0  0  0
 22 23  2  0  0  0  0
 22 24  1  0  0  0  0
 20 21  1  0  0  0  0
 19 20  1  0  0  0  0
 17 18  1  0  0  0  0
 17 19  2  0  0  0  0
 15 16  1  0  0  0  0
 15 17  1  0  0  0  0
 14 15  1  0  0  0  0
 14 20  2  0  0  0  0
 11 12  1  0  0  0  0
 11 13  1  0  0  0  0
 11 14  1  0  0  0  0
  9 10  1  0  0  0  0
  9 11  1  0  0  0  0
  9 22  1  0  0  0  0
  7  8  1  0  0  0  0
  7  9  1  0  0  0  0
 26 27  1  0  0  0  0
 26 28  1  0  0  0  0
 26 29  1  0  0  0  0
 24 25  1  0  0  0  0
 24 26  1  0  0  0  0
M  END
$$$$
default_name
  -OEChem-02102213163D

 29 29  0     1  0  0  0  0  0999 V2000
   -3.6042   -3.5728    1.4576 H   0  0  0  0  0  0  0  0  0  0  0  0
   -3.5202   -2.6488    0.8866 C   0  0  0  0  0  0  0  0  0  0  0  0
   -4.2052   -1.9048    1.2896 H   0  0  0  0  0  0  0  0  0  0  0  0
   -3.7552   -2.8428   -0.1584 H   0  0  0  0  0  0  0  0  0  0  0  0
   -2.1052   -2.1358    0.9946 C   0  0  0  0  0  0  0  0  0  0  0  0
   -1.2852   -2.7288    1.6826 O   0  0  0  0  0  0  0  0  0  0  0  0
   -1.8202   -1.0288    0.3146 N   0  0  0  0  0  0  0  0  0  0  0  0
   -2.5542   -0.5788   -0.2104 H   0  0  0  0  0  0  0  0  0  0  0  0
   -0.5102   -0.3728    0.3086 C   0  0  1  0  0  0  0  0  0  0  0  0
    0.2354   -1.0844   -0.0490 H   0  0  0  0  0  0  0  0  0  0  0  0
   -0.5452    0.8158   -0.6698 C   0  0  0  0  0  0  0  0  0  0  0  0
   -0.0212    0.5396   -1.5865 H   0  0  0  0  0  0  0  0  0  0  0  0
   -1.5831    1.0328   -0.9290 H   0  0  0  0  0  0  0  0  0  0  0  0
    0.0820    2.0700   -0.1186 C   0  0  0  0  0  0  0  0  0  0  0  0
    1.3885    2.2142    0.2967 N   0  0  0  0  0  0  0  0  0  0  0  0
    2.0775    1.4797    0.3587 H   0  0  0  0  0  0  0  0  0  0  0  0
    1.5845    3.5058    0.6109 C   0  0  0  0  0  0  0  0  0  0  0  0
    2.5132    3.9273    0.9758 H   0  0  0  0  0  0  0  0  0  0  0  0
    0.4617    4.2094    0.4049 N   0  0  0  0  0  0  0  0  0  0  0  0
   -0.5013    3.3073   -0.0547 C   0  0  0  0  0  0  0  0  0  0  0  0
   -1.5161    3.5481   -0.3439 H   0  0  0  0  0  0  0  0  0  0  0  0
   -0.1073    0.0565    1.7296 C   0  0  0  0  0  0  0  0  0  0  0  0
    1.0285   -0.1699    2.1459 O   0  0  0  0  0  0  0  0  0  0  0  0
   -1.0395    0.6588    2.4785 N   0  0  0  0  0  0  0  0  0  0  0  0
   -1.9636    0.7597    2.0849 H   0  0  0  0  0  0  0  0  0  0  0  0
   -0.8222    1.1334    3.8425 C   0  0  0  0  0  0  0  0  0  0  0  0
   -0.0212    1.8761    3.8521 H   0  0  0  0  0  0  0  0  0  0  0  0
   -1.7349    1.5853    4.2320 H   0  0  0  0  0  0  0  0  0  0  0  0
   -0.5312    0.2997    4.4834 H   0  0  0  0  0  0  0  0  0  0  0  0
  5  6  2  0  0  0  0
  5  7  1  0  0  0  0
  2  3  1  0  0  0  0
  2  4  1  0  0  0  0
  2  5  1  0  0  0  0
  1  2  1  0  0  0  0
 22 23  2  0  0  0  0
 22 24  1  0  0  0  0
 20 21  1  0  0  0  0
 19 20  1  0  0  0  0
 17 18  1  0  0  0  0
 17 19  2  0  0  0  0
 15 16  1  0  0  0  0
 15 17  1  0  0  0  0
 14 15  1  0  0  0  0
 14 20  2  0  0  0  0
 11 12  1  0  0  0  0
 11 13  1  0  0  0  0
 11 14  1  0  0  0  0
  9 10  1  0  0  0  0
  9 11  1  0  0  0  0
  9 22  1  0  0  0  0
  7  8  1  0  0  0  0
  7  9  1  0  0  0  0
 26 27  1  0  0  0  0
 26 28  1  0  0  0  0
 26 29  1  0  0  0  0
 24 25  1  0  0  0  0
 24 26  1  0  0  0  0
M  END
$$$$
default_name
  -OEChem-02102213163D

 29 29  0     1  0  0  0  0  0999 V2000
   -3.6042   -3.5728    1.4576 H   0  0  0  0  0  0  0  0  0  0  0  0
   -3.5202   -2.6488    0.8866 C   0  0  0  0  0  0  0  0  0  0  0  0
   -4.2052   -1.9048    1.2896 H   0  0  0  0  0  0  0  0  0  0  0  0
   -3.7552   -2.8428   -0.1584 H   0  0  0  0  0  0  0  0  0  0  0  0
   -2.1052   -2.1358    0.9946 C   0  0  0  0  0  0  0  0  0  0  0  0
   -1.2852   -2.7288    1.6826 O   0  0  0  0  0  0  0  0  0  0  0  0
   -1.8202   -1.0288    0.3146 N   0  0  0  0  0  0  0  0  0  0  0  0
   -2.5542   -0.5788   -0.2104 H   0  0  0  0  0  0  0  0  0  0  0  0
   -0.5102   -0.3728    0.3086 C   0  0  1  0  0  0  0  0  0  0  0  0
    0.2354   -1.0844   -0.0490 H   0  0  0  0  0  0  0  0  0  0  0  0
   -0.5452    0.8158   -0.6698 C   0  0  0  0  0  0  0  0  0  0  0  0
   -0.0212    0.5396   -1.5865 H   0  0  0  0  0  0  0  0  0  0  0  0
   -1.5831    1.0328   -0.9290 H   0  0  0  0  0  0  0  0  0  0  0  0
    0.0820    2.0700   -0.1186 C   0  0  0  0  0  0  0  0  0  0  0  0
    1.4314    2.3114    0.0268 N   0  0  0  0  0  0  0  0  0  0  0  0
    2.1756    1.6519   -0.1447 H   0  0  0  0  0  0  0  0  0  0  0  0
    1.5841    3.5797    0.4431 C   0  0  0  0  0  0  0  0  0  0  0  0
    2.5322    4.0602    0.6517 H   0  0  0  0  0  0  0  0  0  0  0  0
    0.3892    4.1765    0.5624 N   0  0  0  0  0  0  0  0  0  0  0  0
   -0.5733    3.2260    0.2123 C   0  0  0  0  0  0  0  0  0  0  0  0
   -1.6433    3.3844    0.1734 H   0  0  0  0  0  0  0  0  0  0  0  0
   -0.1073    0.0565    1.7296 C   0  0  0  0  0  0  0  0  0  0  0  0
    1.0285   -0.1699    2.1459 O   0  0  0  0  0  0  0  0  0  0  0  0
   -1.0395    0.6588    2.4785 N   0  0  0  0  0  0  0  0  0  0  0  0
   -1.9636    0.7597    2.0849 H   0  0  0  0  0  0  0  0  0  0  0  0
   -0.8222    1.1334    3.8425 C   0  0  0  0  0  0  0  0  0  0  0  0
   -0.0212    1.8761    3.8521 H   0  0  0  0  0  0  0  0  0  0  0  0
   -1.7349    1.5853    4.2320 H   0  0  0  0  0  0  0  0  0  0  0  0
   -0.5312    0.2997    4.4834 H   0  0  0  0  0  0  0  0  0  0  0  0
  5  6  2  0  0  0  0
  5  7  1  0  0  0  0
  2  3  1  0  0  0  0
  2  4  1  0  0  0  0
  2  5  1  0  0  0  0
  1  2  1  0  0  0  0
 22 23  2  0  0  0  0
 22 24  1  0  0  0  0
 20 21  1  0  0  0  0
 19 20  1  0  0  0  0
 17 18  1  0  0  0  0
 17 19  2  0  0  0  0
 15 16  1  0  0  0  0
 15 17  1  0  0  0  0
 14 15  1  0  0  0  0
 14 20  2  0  0  0  0
 11 12  1  0  0  0  0
 11 13  1  0  0  0  0
 11 14  1  0  0  0  0
  9 10  1  0  0  0  0
  9 11  1  0  0  0  0
  9 22  1  0  0  0  0
  7  8  1  0  0  0  0
  7  9  1  0  0  0  0
 26 27  1  0  0  0  0
 26 28  1  0  0  0  0
 26 29  1  0  0  0  0
 24 25  1  0  0  0  0
 24 26  1  0  0  0  0
M  END
$$$$
default_name
  -OEChem-02102213163D

 29 29  0     1  0  0  0  0  0999 V2000
   -3.6042   -3.5728    1.4576 H   0  0  0  0  0  0  0  0  0  0  0  0
   -3.5202   -2.6488    0.8866 C   0  0  0  0  0  0  0  0  0  0  0  0
   -4.2052   -1.9048    1.2896 H   0  0  0  0  0  0  0  0  0  0  0  0
   -3.7552   -2.8428   -0.1584 H   0  0  0  0  0  0  0  0  0  0  0  0
   -2.1052   -2.1358    0.9946 C   0  0  0  0  0  0  0  0  0  0  0  0
   -1.2852   -2.7288    1.6826 O   0  0  0  0  0  0  0  0  0  0  0  0
   -1.8202   -1.0288    0.3146 N   0  0  0  0  0  0  0  0  0  0  0  0
   -2.5542   -0.5788   -0.2104 H   0  0  0  0  0  0  0  0  0  0  0  0
   -0.5102   -0.3728    0.3086 C   0  0  1  0  0  0  0  0  0  0  0  0
    0.2354   -1.0844   -0.0490 H   0  0  0  0  0  0  0  0  0  0  0  0
   -0.5452    0.8158   -0.6698 C   0  0  0  0  0  0  0  0  0  0  0  0
   -0.0212    0.5396   -1.5865 H   0  0  0  0  0  0  0  0  0  0  0  0
   -1.5831    1.0328   -0.9290 H   0  0  0  0  0  0  0  0  0  0  0  0
    0.0820    2.0700   -0.1186 C   0  0  0  0  0  0  0  0  0  0  0  0
    1.4054    2.4384   -0.2327 N   0  0  0  0  0  0  0  0  0  0  0  0
    2.1455    1.8817   -0.6334 H   0  0  0  0  0  0  0  0  0  0  0  0
    1.5406    3.6692    0.2890 C   0  0  0  0  0  0  0  0  0  0  0  0
    2.4682    4.2253    0.3489 H   0  0  0  0  0  0  0  0  0  0  0  0
    0.3562    4.1209    0.7265 N   0  0  0  0  0  0  0  0  0  0  0  0
   -0.5777    3.1119    0.4768 C   0  0  0  0  0  0  0  0  0  0  0  0
   -1.6392    3.1585    0.6828 H   0  0  0  0  0  0  0  0  0  0  0  0
   -0.1073    0.0565    1.7296 C   0  0  0  0  0  0  0  0  0  0  0  0
    1.0285   -0.1699    2.1459 O   0  0  0  0  0  0  0  0  0  0  0  0
   -1.0395    0.6588    2.4785 N   0  0  0  0  0  0  0  0  0  0  0  0
   -1.9636    0.7597    2.0849 H   0  0  0  0  0  0  0  0  0  0  0  0
   -0.8222    1.1334    3.8425 C   0  0  0  0  0  0  0  0  0  0  0  0
   -0.0212    1.8761    3.8521 H   0  0  0  0  0  0  0  0  0  0  0  0
   -1.7349    1.5853    4.2320 H   0  0  0  0  0  0  0  0  0  0  0  0
   -0.5312    0.2997    4.4834 H   0  0  0  0  0  0  0  0  0  0  0  0
  5  6  2  0  0  0  0
  5  7  1  0  0  0  0
  2  3  1  0  0  0  0
  2  4  1  0  0  0  0
  2  5  1  0  0  0  0
  1  2  1  0  0  0  0
 22 23  2  0  0  0  0
 22 24  1  0  0  0  0
 20 21  1  0  0  0  0
 19 20  1  0  0  0  0
 17 18  1  0  0  0  0
 17 19  2  0  0  0  0
 15 16  1  0  0  0  0
 15 17  1  0  0  0  0
 14 15  1  0  0  0  0
 14 20  2  0  0  0  0
 11 12  1  0  0  0  0
 11 13  1  0  0  0  0
 11 14  1  0  0  0  0
  9 10  1  0  0  0  0
  9 11  1  0  0  0  0
  9 22  1  0  0  0  0
  7  8  1  0  0  0  0
  7  9  1  0  0  0  0
 26 27  1  0  0  0  0
 26 28  1  0  0  0  0
 26 29  1  0  0  0  0
 24 25  1  0  0  0  0
 24 26  1  0  0  0  0
M  END
$$$$
default_name
  -OEChem-02102213163D

 29 29  0     1  0  0  0  0  0999 V2000
   -3.6042   -3.5728    1.4576 H   0  0  0  0  0  0  0  0  0  0  0  0
   -3.5202   -2.6488    0.8866 C   0  0  0  0  0  0  0  0  0  0  0  0
   -4.2052   -1.9048    1.2896 H   0  0  0  0  0  0  0  0  0  0  0  0
   -3.7552   -2.8428   -0.1584 H   0  0  0  0  0  0  0  0  0  0  0  0
   -2.1052   -2.1358    0.9946 C   0  0  0  0  0  0  0  0  0  0  0  0
   -1.2852   -2.7288    1.6826 O   0  0  0  0  0  0  0  0  0  0  0  0
   -1.8202   -1.0288    0.3146 N   0  0  0  0  0  0  0  0  0  0  0  0
   -2.5542   -0.5788   -0.2104 H   0  0  0  0  0  0  0  0  0  0  0  0
   -0.5102   -0.3728    0.3086 C   0  0  1  0  0  0  0  0  0  0  0  0
    0.2354   -1.0844   -0.0490 H   0  0  0  0  0  0  0  0  0  0  0  0
   -0.5452    0.8158   -0.6698 C   0  0  0  0  0  0  0  0  0  0  0  0
   -0.0212    0.5396   -1.5865 H   0  0  0  0  0  0  0  0  0  0  0  0
   -1.5831    1.0328   -0.9290 H   0  0  0  0  0  0  0  0  0  0  0  0
    0.0820    2.0700   -0.1186 C   0  0  0  0  0  0  0  0  0  0  0  0
    1.3124    2.5866   -0.4641 N   0  0  0  0  0  0  0  0  0  0  0  0
    1.9894    2.1536   -1.0743 H   0  0  0  0  0  0  0  0  0  0  0  0
    1.4569    3.7681    0.1592 C   0  0  0  0  0  0  0  0  0  0  0  0
    2.3255    4.4113    0.0880 H   0  0  0  0  0  0  0  0  0  0  0  0
    0.3649    4.0463    0.8862 N   0  0  0  0  0  0  0  0  0  0  0  0
   -0.5141    2.9727    0.7210 C   0  0  0  0  0  0  0  0  0  0  0  0
   -1.5041    2.8857    1.1496 H   0  0  0  0  0  0  0  0  0  0  0  0
   -0.1073    0.0565    1.7296 C   0  0  0  0  0  0  0  0  0  0  0  0
    1.0285   -0.1699    2.1459 O   0  0  0  0  0  0  0  0  0  0  0  0
   -1.0395    0.6588    2.4785 N   0  0  0  0  0  0  0  0  0  0  0  0
   -1.9636    0.7597    2.0849 H   0  0  0  0  0  0  0  0  0  0  0  0
   -0.8222    1.1334    3.8425 C   0  0  0  0  0  0  0  0  0  0  0  0
   -0.0212    1.8761    3.8521 H   0  0  0  0  0  0  0  0  0  0  0  0
   -1.7349    1.5853    4.2320 H   0  0  0  0  0  0  0  0  0  0  0  0
   -0.5312    0.2997    4.4834 H   0  0  0  0  0  0  0  0  0  0  0  0
  5  6  2  0  0  0  0
  5  7  1  0  0  0  0
  2  3  1  0  0  0  0
  2  4  1  0  0  0  0
  2  5  1  0  0  0  0
  1  2  1  0  0  0  0
 22 23  2  0  0  0  0
 22 24  1  0  0  0  0
 20 21  1  0  0  0  0
 19 20  1  0  0  0  0
 17 18  1  0  0  0  0
 17 19  2  0  0  0  0
 15 16  1  0  0  0  0
 15 17  1  0  0  0  0
 14 15  1  0  0  0  0
 14 20  2  0  0  0  0
 11 12  1  0  0  0  0
 11 13  1  0  0  0  0
 11 14  1  0  0  0  0
  9 10  1  0  0  0  0
  9 11  1  0  0  0  0
  9 22  1  0  0  0  0
  7  8  1  0  0  0  0
  7  9  1  0  0  0  0
 26 27  1  0  0  0  0
 26 28  1  0  0  0  0
 26 29  1  0  0  0  0
 24 25  1  0  0  0  0
 24 26  1  0  0  0  0
M  END
$$$$
default_name
  -OEChem-02102213163D

 29 29  0     1  0  0  0  0  0999 V2000
   -3.6042   -3.5728    1.4576 H   0  0  0  0  0  0  0  0  0  0  0  0
   -3.5202   -2.6488    0.8866 C   0  0  0  0  0  0  0  0  0  0  0  0
   -4.2052   -1.9048    1.2896 H   0  0  0  0  0  0  0  0  0  0  0  0
   -3.7552   -2.8428   -0.1584 H   0  0  0  0  0  0  0  0  0  0  0  0
   -2.1052   -2.1358    0.9946 C   0  0  0  0  0  0  0  0  0  0  0  0
   -1.2852   -2.7288    1.6826 O   0  0  0  0  0  0  0  0  0  0  0  0
   -1.8202   -1.0288    0.3146 N   0  0  0  0  0  0  0  0  0  0  0  0
   -2.5542   -0.5788   -0.2104 H   0  0  0  0  0  0  0  0  0  0  0  0
   -0.5102   -0.3728    0.3086 C   0  0  1  0  0  0  0  0  0  0  0  0
    0.2354   -1.0844   -0.0490 H   0  0  0  0  0  0  0  0  0  0  0  0
   -0.5452    0.8158   -0.6698 C   0  0  0  0  0  0  0  0  0  0  0  0
   -0.0212    0.5396   -1.5865 H   0  0  0  0  0  0  0  0  0  0  0  0
   -1.5831    1.0328   -0.9290 H   0  0  0  0  0  0  0  0  0  0  0  0
    0.0820    2.0700   -0.1186 C   0  0  0  0  0  0  0  0  0  0  0  0
    1.1587    2.7458   -0.6516 N   0  0  0  0  0  0  0  0  0  0  0  0
    1.7179    2.4489   -1.4373 H   0  0  0  0  0  0  0  0  0  0  0  0
    1.3387    3.8697    0.0625 C   0  0  0  0  0  0  0  0  0  0  0  0
    2.1139    4.6056   -0.1132 H   0  0  0  0  0  0  0  0  0  0  0  0
    0.4149    3.9579    1.0305 N   0  0  0  0  0  0  0  0  0  0  0  0
   -0.3869    2.8181    0.9282 C   0  0  0  0  0  0  0  0  0  0  0  0
   -1.2473    2.5848    1.5420 H   0  0  0  0  0  0  0  0  0  0  0  0
   -0.1073    0.0565    1.7296 C   0  0  0  0  0  0  0  0  0  0  0  0
    1.0285   -0.1699    2.1459 O   0  0  0  0  0  0  0  0  0  0  0  0
   -1.0395    0.6588    2.4785 N   0  0  0  0  0  0  0  0  0  0  0  0
   -1.9636    0.7597    2.0849 H   0  0  0  0  0  0  0  0  0  0  0  0
   -0.8222    1.1334    3.8425 C   0  0  0  0  0  0  0  0  0  0  0  0
   -0.0212    1.8761    3.8521 H   0  0  0  0  0  0  0  0  0  0  0  0
   -1.7349    1.5853    4.2320 H   0  0  0  0  0  0  0  0  0  0  0  0
   -0.5312    0.2997    4.4834 H   0  0  0  0  0  0  0  0  0  0  0  0
  5  6  2  0  0  0  0
  5  7  1  0  0  0  0
  2  3  1  0  0  0  0
  2  4  1  0  0  0  0
  2  5  1  0  0  0  0
  1  2  1  0  0  0  0
 22 23  2  0  0  0  0
 22 24  1  0  0  0  0
 20 21  1  0  0  0  0
 19 20  1  0  0  0  0
 17 18  1  0  0  0  0
 17 19  2  0  0  0  0
 15 16  1  0  0  0  0
 15 17  1  0  0  0  0
 14 15  1  0  0  0  0
 14 20  2  0  0  0  0
 11 12  1  0  0  0  0
 11 13  1  0  0  0  0
 11 14  1  0  0  0  0
  9 10  1  0  0  0  0
  9 11  1  0  0  0  0
  9 22  1  0  0  0  0
  7  8  1  0  0  0  0
  7  9  1  0  0  0  0
 26 27  1  0  0  0  0
 26 28  1  0  0  0  0
 26 29  1  0  0  0  0
 24 25  1  0  0  0  0
 24 26  1  0  0  0  0
M  END
$$$$
default_name
  -OEChem-02102213163D

 29 29  0     1  0  0  0  0  0999 V2000
   -3.6042   -3.5728    1.4576 H   0  0  0  0  0  0  0  0  0  0  0  0
   -3.5202   -2.6488    0.8866 C   0  0  0  0  0  0  0  0  0  0  0  0
   -4.2052   -1.9048    1.2896 H   0  0  0  0  0  0  0  0  0  0  0  0
   -3.7552   -2.8428   -0.1584 H   0  0  0  0  0  0  0  0  0  0  0  0
   -2.1052   -2.1358    0.9946 C   0  0  0  0  0  0  0  0  0  0  0  0
   -1.2852   -2.7288    1.6826 O   0  0  0  0  0  0  0  0  0  0  0  0
   -1.8202   -1.0288    0.3146 N   0  0  0  0  0  0  0  0  0  0  0  0
   -2.5542   -0.5788   -0.2104 H   0  0  0  0  0  0  0  0  0  0  0  0
   -0.5102   -0.3728    0.3086 C   0  0  1  0  0  0  0  0  0  0  0  0
    0.2354   -1.0844   -0.0490 H   0  0  0  0  0  0  0  0  0  0  0  0
   -0.5452    0.8158   -0.6698 C   0  0  0  0  0  0  0  0  0  0  0  0
   -0.0212    0.5396   -1.5865 H   0  0  0  0  0  0  0  0  0  0  0  0
   -1.5831    1.0328   -0.9290 H   0  0  0  0  0  0  0  0  0  0  0  0
    0.0820    2.0700   -0.1186 C   0  0  0  0  0  0  0  0  0  0  0  0
    0.9548    2.9053   -0.7824 N   0  0  0  0  0  0  0  0  0  0  0  0
    1.3495    2.7475   -1.6975 H   0  0  0  0  0  0  0  0  0  0  0  0
    1.1941    3.9671    0.0055 C   0  0  0  0  0  0  0  0  0  0  0  0
    1.8477    4.7949   -0.2410 H   0  0  0  0  0  0  0  0  0  0  0  0
    0.5025    3.8617    1.1496 N   0  0  0  0  0  0  0  0  0  0  0  0
   -0.2047    2.6584    1.0843 C   0  0  0  0  0  0  0  0  0  0  0  0
   -0.8861    2.2762    1.8333 H   0  0  0  0  0  0  0  0  0  0  0  0
   -0.1073    0.0565    1.7296 C   0  0  0  0  0  0  0  0  0  0  0  0
    1.0285   -0.1699    2.1459 O   0  0  0  0  0  0  0  0  0  0  0  0
   -1.0395    0.6588    2.4785 N   0  0  0  0  0  0  0  0  0  0  0  0
   -1.9636    0.7597    2.0849 H   0  0  0  0  0  0  0  0  0  0  0  0
   -0.8222    1.1334    3.8425 C   0  0  0  0  0  0  0  0  0  0  0  0
   -0.0212    1.8761    3.8521 H   0  0  0  0  0  0  0  0  0  0  0  0
   -1.7349    1.5853    4.2320 H   0  0  0  0  0  0  0  0  0  0  0  0
   -0.5312    0.2997    4.4834 H   0  0  0  0  0  0  0  0  0  0  0  0
  5  6  2  0  0  0  0
  5  7  1  0  0  0  0
  2  3  1  0  0  0  0
  2  4  1  0  0  0  0
  2  5  1  0  0  0  0
  1  2  1  0  0  0  0
 22 23  2  0  0  0  0
 22 24  1  0  0  0  0
 20 21  1  0  0  0  0
 19 20  1  0  0  0  0
 17 18  1  0  0  0  0
 17 19  2  0  0  0  0
 15 16  1  0  0  0  0
 15 17  1  0  0  0  0
 14 15  1  0  0  0  0
 14 20  2  0  0  0  0
 11 12  1  0  0  0  0
 11 13  1  0  0  0  0
 11 14  1  0  0  0  0
  9 10  1  0  0  0  0
  9 11  1  0  0  0  0
  9 22  1  0  0  0  0
  7  8  1  0  0  0  0
  7  9  1  0  0  0  0
 26 27  1  0  0  0  0
 26 28  1  0  0  0  0
 26 29  1  0  0  0  0
 24 25  1  0  0  0  0
 24 26  1  0  0  0  0
M  END
$$$$
default_name
  -OEChem-02102213163D

 29 29  0     1  0  0  0  0  0999 V2000
   -3.6042   -3.5728    1.4576 H   0  0  0  0  0  0  0  0  0  0  0  0
   -3.5202   -2.6488    0.8866 C   0  0  0  0  0  0  0  0  0  0  0  0
   -4.2052   -1.9048    1.2896 H   0  0  0  0  0  0  0  0  0  0  0  0
   -3.7552   -2.8428   -0.1584 H   0  0  0  0  0  0  0  0  0  0  0  0
   -2.1052   -2.1358    0.9946 C   0  0  0  0  0  0  0  0  0  0  0  0
   -1.2852   -2.7288    1.6826 O   0  0  0  0  0  0  0  0  0  0  0  0
   -1.8202   -1.0288    0.3146 N   0  0  0  0  0  0  0  0  0  0  0  0
   -2.5542   -0.5788   -0.2104 H   0  0  0  0  0  0  0  0  0  0  0  0
   -0.5102   -0.3728    0.3086 C   0  0  1  0  0  0  0  0  0  0  0  0
    0.2354   -1.0844   -0.0490 H   0  0  0  0  0  0  0  0  0  0  0  0
   -0.5452    0.8158   -0.6698 C   0  0  0  0  0  0  0  0  0  0  0  0
   -0.0212    0.5396   -1.5865 H   0  0  0  0  0  0  0  0  0  0  0  0
   -1.5831    1.0328   -0.9290 H   0  0  0  0  0  0  0  0  0  0  0  0
    0.0820    2.0700   -0.1186 C   0  0  0  0  0  0  0  0  0  0  0  0
    0.7146    3.0541   -0.8476 N   0  0  0  0  0  0  0  0  0  0  0  0
    0.9092    3.0291   -1.8374 H   0  0  0  0  0  0  0  0  0  0  0  0
    1.0330    4.0536   -0.0079 C   0  0  0  0  0  0  0  0  0  0  0  0
    1.5451    4.9664   -0.2868 H   0  0  0  0  0  0  0  0  0  0  0  0
    0.6220    3.7643    1.2354 N   0  0  0  0  0  0  0  0  0  0  0  0
    0.0200    2.5046    1.1786 C   0  0  0  0  0  0  0  0  0  0  0  0
   -0.4453    1.9809    2.0036 H   0  0  0  0  0  0  0  0  0  0  0  0
   -0.1073    0.0565    1.7296 C   0  0  0  0  0  0  0  0  0  0  0  0
    1.0285   -0.1699    2.1459 O   0  0  0  0  0  0  0  0  0  0  0  0
   -1.0395    0.6588    2.4785 N   0  0  0  0  0  0  0  0  0  0  0  0
   -1.9636    0.7597    2.0849 H   0  0  0  0  0  0  0  0  0  0  0  0
   -0.8222    1.1334    3.8425 C   0  0  0  0  0  0  0  0  0  0  0  0
   -0.0212    1.8761    3.8521 H   0  0  0  0  0  0  0  0  0  0  0  0
   -1.7349    1.5853    4.2320 H   0  0  0  0  0  0  0  0  0  0  0  0
   -0.5312    0.2997    4.4834 H   0  0  0  0  0  0  0  0  0  0  0  0
  5  6  2  0  0  0  0
  5  7  1  0  0  0  0
  2  3  1  0  0  0  0
  2  4  1  0  0  0  0
  2  5  1  0  0  0  0
  1  2  1  0  0  0  0
 22 23  2  0  0  0  0
 22 24  1  0  0  0  0
 20 21  1  0  0  0  0
 19 20  1  0  0  0  0
 17 18  1  0  0  0  0
 17 19  2  0  0  0  0
 15 16  1  0  0  0  0
 15 17  1  0  0  0  0
 14 15  1  0  0  0  0
 14 20  2  0  0  0  0
 11 12  1  0  0  0  0
 11 13  1  0  0  0  0
 11 14  1  0  0  0  0
  9 10  1  0  0  0  0
  9 11  1  0  0  0  0
  9 22  1  0  0  0  0
  7  8  1  0  0  0  0
  7  9  1  0  0  0  0
 26 27  1  0  0  0  0
 26 28  1  0  0  0  0
 26 29  1  0  0  0  0
 24 25  1  0  0  0  0
 24 26  1  0  0  0  0
M  END
$$$$
default_name
  -OEChem-02102213163D

 29 29  0     1  0  0  0  0  0999 V2000
   -3.6042   -3.5728    1.4576 H   0  0  0  0  0  0  0  0  0  0  0  0
   -3.5202   -2.6488    0.8866 C   0  0  0  0  0  0  0  0  0  0  0  0
   -4.2052   -1.9048    1.2896 H   0  0  0  0  0  0  0  0  0  0  0  0
   -3.7552   -2.8428   -0.1584 H   0  0  0  0  0  0  0  0  0  0  0  0
   -2.1052   -2.1358    0.9946 C   0  0  0  0  0  0  0  0  0  0  0  0
   -1.2852   -2.7288    1.6826 O   0  0  0  0  0  0  0  0  0  0  0  0
   -1.8202   -1.0288    0.3146 N   0  0  0  0  0  0  0  0  0  0  0  0
   -2.5542   -0.5788   -0.2104 H   0  0  0  0  0  0  0  0  0  0  0  0
   -0.5102   -0.3728    0.3086 C   0  0  1  0  0  0  0  0  0  0  0  0
    0.2354   -1.0844   -0.0490 H   0  0  0  0  0  0  0  0  0  0  0  0
   -0.5452    0.8158   -0.6698 C   0  0  0  0  0  0  0  0  0  0  0  0
   -0.0212    0.5396   -1.5865 H   0  0  0  0  0  0  0  0  0  0  0  0
   -1.5831    1.0328   -0.9290 H   0  0  0  0  0  0  0  0  0  0  0  0
    0.0820    2.0700   -0.1186 C   0  0  0  0  0  0  0  0  0  0  0  0
    0.4543    3.1822   -0.8428 N   0  0  0  0  0  0  0  0  0  0  0  0
    0.4273    3.2745   -1.8473 H   0  0  0  0  0  0  0  0  0  0  0  0
    0.8662    4.1233    0.0232 C   0  0  0  0  0  0  0  0  0  0  0  0
    1.2267    5.1082   -0.2473 H   0  0  0  0  0  0  0  0  0  0  0  0
    0.7651    3.6722    1.2820 N   0  0  0  0  0  0  0  0  0  0  0  0
    0.2719    2.3671    1.2047 C   0  0  0  0  0  0  0  0  0  0  0  0
    0.0452    1.7190    2.0413 H   0  0  0  0  0  0  0  0  0  0  0  0
   -0.1073    0.0565    1.7296 C   0  0  0  0  0  0  0  0  0  0  0  0
    1.0285   -0.1699    2.1459 O   0  0  0  0  0  0  0  0  0  0  0  0
   -1.0395    0.6588    2.4785 N   0  0  0  0  0  0  0  0  0  0  0  0
   -1.9636    0.7597    2.0849 H   0  0  0  0  0  0  0  0  0  0  0  0
   -0.8222    1.1334    3.8425 C   0  0  0  0  0  0  0  0  0  0  0  0
   -0.0212    1.8761    3.8521 H   0  0  0  0  0  0  0  0  0  0  0  0
   -1.7349    1.5853    4.2320 H   0  0  0  0  0  0  0  0  0  0  0  0
   -0.5312    0.2997    4.4834 H   0  0  0  0  0  0  0  0  0  0  0  0
  5  6  2  0  0  0  0
  5  7  1  0  0  0  0
  2  3  1  0  0  0  0
  2  4  1  0  0  0  0
  2  5  1  0  0  0  0
  1  2  1  0  0  0  0
 22 23  2  0  0  0  0
 22 24  1  0  0  0  0
 20 21  1  0  0  0  0
 19 20  1  0  0  0  0
 17 18  1  0  0  0  0
 17 19  2  0  0  0  0
 15 16  1  0  0  0  0
 15 17  1  0  0  0  0
 14 15  1  0  0  0  0
 14 20  2  0  0  0  0
 11 12  1  0  0  0  0
 11 13  1  0  0  0  0
 11 14  1  0  0  0  0
  9 10  1  0  0  0  0
  9 11  1  0  0  0  0
  9 22  1  0  0  0  0
  7  8  1  0  0  0  0
  7  9  1  0  0  0  0
 26 27  1  0  0  0  0
 26 28  1  0  0  0  0
 26 29  1  0  0  0  0
 24 25  1  0  0  0  0
 24 26  1  0  0  0  0
M  END
$$$$
default_name
  -OEChem-02102213163D

 29 29  0     1  0  0  0  0  0999 V2000
   -3.6042   -3.5728    1.4576 H   0  0  0  0  0  0  0  0  0  0  0  0
   -3.5202   -2.6488    0.8866 C   0  0  0  0  0  0  0  0  0  0  0  0
   -4.2052   -1.9048    1.2896 H   0  0  0  0  0  0  0  0  0  0  0  0
   -3.7552   -2.8428   -0.1584 H   0  0  0  0  0  0  0  0  0  0  0  0
   -2.1052   -2.1358    0.9946 C   0  0  0  0  0  0  0  0  0  0  0  0
   -1.2852   -2.7288    1.6826 O   0  0  0  0  0  0  0  0  0  0  0  0
   -1.8202   -1.0288    0.3146 N   0  0  0  0  0  0  0  0  0  0  0  0
   -2.5542   -0.5788   -0.2104 H   0  0  0  0  0  0  0  0  0  0  0  0
   -0.5102   -0.3728    0.3086 C   0  0  1  0  0  0  0  0  0  0  0  0
    0.2354   -1.0844   -0.0490 H   0  0  0  0  0  0  0  0  0  0  0  0
   -0.5452    0.8158   -0.6698 C   0  0  0  0  0  0  0  0  0  0  0  0
   -0.2679    0.4668   -1.6661 H   0  0  0  0  0  0  0  0  0  0  0  0
   -1.5641    1.2039   -0.7218 H   0  0  0  0  0  0  0  0  0  0  0  0
    0.3766    1.9432   -0.2831 C   0  0  0  0  0  0  0  0  0  0  0  0
    0.5509    3.1262   -0.9689 N   0  0  0  0  0  0  0  0  0  0  0  0
    0.1427    3.3624   -1.8609 H   0  0  0  0  0  0  0  0  0  0  0  0
    1.3660    3.9106   -0.2439 C   0  0  0  0  0  0  0  0  0  0  0  0
    1.6937    4.9035   -0.5265 H   0  0  0  0  0  0  0  0  0  0  0  0
    1.7187    3.2902    0.8915 N   0  0  0  0  0  0  0  0  0  0  0  0
    1.0996    2.0376    0.8760 C   0  0  0  0  0  0  0  0  0  0  0  0
    1.1514    1.2895    1.6565 H   0  0  0  0  0  0  0  0  0  0  0  0
   -0.1073    0.0565    1.7296 C   0  0  0  0  0  0  0  0  0  0  0  0
    1.0285   -0.1699    2.1459 O   0  0  0  0  0  0  0  0  0  0  0  0
   -1.0395    0.6588    2.4785 N   0  0  0  0  0  0  0  0  0  0  0  0
   -1.9636    0.7597    2.0849 H   0  0  0  0  0  0  0  0  0  0  0  0
   -0.8222    1.1334    3.8425 C   0  0  0  0  0  0  0  0  0  0  0  0
   -0.0212    1.8761    3.8521 H   0  0  0  0  0  0  0  0  0  0  0  0
   -1.7349    1.5853    4.2320 H   0  0  0  0  0  0  0  0  0  0  0  0
   -0.5312    0.2997    4.4834 H   0  0  0  0  0  0  0  0  0  0  0  0
  5  6  2  0  0  0  0
  5  7  1  0  0  0  0
  2  3  1  0  0  0  0
  2  4  1  0  0  0  0
  2  5  1  0  0  0  0
  1  2  1  0  0  0  0
 22 23  2  0  0  0  0
 22 24  1  0  0  0  0
 20 21  1  0  0  0  0
 19 20  1  0  0  0  0
 17 18  1  0  0  0  0
 17 19  2  0  0  0  0
 15 16  1  0  0  0  0
 15 17  1  0  0  0  0
 14 15  1  0  0  0  0
 14 20  2  0  0  0  0
 11 12  1  0  0  0  0
 11 13  1  0  0  0  0
 11 14  1  0  0  0  0
  9 10  1  0  0  0  0
  9 11  1  0  0  0  0
  9 22  1  0  0  0  0
  7  8  1  0  0  0  0
  7  9  1  0  0  0  0
 26 27  1  0  0  0  0
 26 28  1  0  0  0  0
 26 29  1  0  0  0  0
 24 25  1  0  0  0  0
 24 26  1  0  0  0  0
M  END
$$$$
default_name
  -OEChem-02102213163D

 29 29  0     1  0  0  0  0  0999 V2000
   -3.6042   -3.5728    1.4576 H   0  0  0  0  0  0  0  0  0  0  0  0
   -3.5202   -2.6488    0.8866 C   0  0  0  0  0  0  0  0  0  0  0  0
   -4.2052   -1.9048    1.2896 H   0  0  0  0  0  0  0  0  0  0  0  0
   -3.7552   -2.8428   -0.1584 H   0  0  0  0  0  0  0  0  0  0  0  0
   -2.1052   -2.1358    0.9946 C   0  0  0  0  0  0  0  0  0  0  0  0
   -1.2852   -2.7288    1.6826 O   0  0  0  0  0  0  0  0  0  0  0  0
   -1.8202   -1.0288    0.3146 N   0  0  0  0  0  0  0  0  0  0  0  0
   -2.5542   -0.5788   -0.2104 H   0  0  0  0  0  0  0  0  0  0  0  0
   -0.5102   -0.3728    0.3086 C   0  0  1  0  0  0  0  0  0  0  0  0
    0.2354   -1.0844   -0.0490 H   0  0  0  0  0  0  0  0  0  0  0  0
   -0.5452    0.8158   -0.6698 C   0  0  0  0  0  0  0  0  0  0  0  0
   -0.2679    0.4668   -1.6661 H   0  0  0  0  0  0  0  0  0  0  0  0
   -1.5641    1.2039   -0.7218 H   0  0  0  0  0  0  0  0  0  0  0  0
    0.3766    1.9432   -0.2831 C   0  0  0  0  0  0  0  0  0  0  0  0
    0.3506    3.2268   -0.7849 N   0  0  0  0  0  0  0  0  0  0  0  0
   -0.2385    3.5615   -1.5327 H   0  0  0  0  0  0  0  0  0  0  0  0
    1.2527    3.9563   -0.1071 C   0  0  0  0  0  0  0  0  0  0  0  0
    1.4668    5.0041   -0.2787 H   0  0  0  0  0  0  0  0  0  0  0  0
    1.8554    3.2018    0.8234 N   0  0  0  0  0  0  0  0  0  0  0  0
    1.3101    1.9196    0.7185 C   0  0  0  0  0  0  0  0  0  0  0  0
    1.5541    1.0685    1.3411 H   0  0  0  0  0  0  0  0  0  0  0  0
   -0.1073    0.0565    1.7296 C   0  0  0  0  0  0  0  0  0  0  0  0
    1.0285   -0.1699    2.1459 O   0  0  0  0  0  0  0  0  0  0  0  0
   -1.0395    0.6588    2.4785 N   0  0  0  0  0  0  0  0  0  0  0  0
   -1.9636    0.7597    2.0849 H   0  0  0  0  0  0  0  0  0  0  0  0
   -0.8222    1.1334    3.8425 C   0  0  0  0  0  0  0  0  0  0  0  0
   -0.0212    1.8761    3.8521 H   0  0  0  0  0  0  0  0  0  0  0  0
   -1.7349    1.5853    4.2320 H   0  0  0  0  0  0  0  0  0  0  0  0
   -0.5312    0.2997    4.4834 H   0  0  0  0  0  0  0  0  0  0  0  0
  5  6  2  0  0  0  0
  5  7  1  0  0  0  0
  2  3  1  0  0  0  0
  2  4  1  0  0  0  0
  2  5  1  0  0  0  0
  1  2  1  0  0  0  0
 22 23  2  0  0  0  0
 22 24  1  0  0  0  0
 20 21  1  0  0  0  0
 19 20  1  0  0  0  0
 17 18  1  0  0  0  0
 17 19  2  0  0  0  0
 15 16  1  0  0  0  0
 15 17  1  0  0  0  0
 14 15  1  0  0  0  0
 14 20  2  0  0  0  0
 11 12  1  0  0  0  0
 11 13  1  0  0  0  0
 11 14  1  0  0  0  0
  9 10  1  0  0  0  0
  9 11  1  0  0  0  0
  9 22  1  0  0  0  0
  7  8  1  0  0  0  0
  7  9  1  0  0  0  0
 26 27  1  0  0  0  0
 26 28  1  0  0  0  0
 26 29  1  0  0  0  0
 24 25  1  0  0  0  0
 24 26  1  0  0  0  0
M  END
$$$$
default_name
  -OEChem-02102213163D

 29 29  0     1  0  0  0  0  0999 V2000
   -3.6042   -3.5728    1.4576 H   0  0  0  0  0  0  0  0  0  0  0  0
   -3.5202   -2.6488    0.8866 C   0  0  0  0  0  0  0  0  0  0  0  0
   -4.2052   -1.9048    1.2896 H   0  0  0  0  0  0  0  0  0  0  0  0
   -3.7552   -2.8428   -0.1584 H   0  0  0  0  0  0  0  0  0  0  0  0
   -2.1052   -2.1358    0.9946 C   0  0  0  0  0  0  0  0  0  0  0  0
   -1.2852   -2.7288    1.6826 O   0  0  0  0  0  0  0  0  0  0  0  0
   -1.8202   -1.0288    0.3146 N   0  0  0  0  0  0  0  0  0  0  0  0
   -2.5542   -0.5788   -0.2104 H   0  0  0  0  0  0  0  0  0  0  0  0
   -0.5102   -0.3728    0.3086 C   0  0  1  0  0  0  0  0  0  0  0  0
    0.2354   -1.0844   -0.0490 H   0  0  0  0  0  0  0  0  0  0  0  0
   -0.5452    0.8158   -0.6698 C   0  0  0  0  0  0  0  0  0  0  0  0
   -0.2679    0.4668   -1.6661 H   0  0  0  0  0  0  0  0  0  0  0  0
   -1.5641    1.2039   -0.7218 H   0  0  0  0  0  0  0  0  0  0  0  0
    0.3766    1.9432   -0.2831 C   0  0  0  0  0  0  0  0  0  0  0  0
    0.1861    3.2816   -0.5524 N   0  0  0  0  0  0  0  0  0  0  0  0
   -0.5563    3.6764   -1.1102 H   0  0  0  0  0  0  0  0  0  0  0  0
    1.1668    3.9712    0.0542 C   0  0  0  0  0  0  0  0  0  0  0  0
    1.2888    5.0470    0.0206 H   0  0  0  0  0  0  0  0  0  0  0  0
    1.9801    3.1363    0.7172 N   0  0  0  0  0  0  0  0  0  0  0  0
    1.4907    1.8444    0.5069 C   0  0  0  0  0  0  0  0  0  0  0  0
    1.8967    0.9316    0.9234 H   0  0  0  0  0  0  0  0  0  0  0  0
   -0.1073    0.0565    1.7296 C   0  0  0  0  0  0  0  0  0  0  0  0
    1.0285   -0.1699    2.1459 O   0  0  0  0  0  0  0  0  0  0  0  0
   -1.0395    0.6588    2.4785 N   0  0  0  0  0  0  0  0  0  0  0  0
   -1.9636    0.7597    2.0849 H   0  0  0  0  0  0  0  0  0  0  0  0
   -0.8222    1.1334    3.8425 C   0  0  0  0  0  0  0  0  0  0  0  0
   -0.0212    1.8761    3.8521 H   0  0  0  0  0  0  0  0  0  0  0  0
   -1.7349    1.5853    4.2320 H   0  0  0  0  0  0  0  0  0  0  0  0
   -0.5312    0.2997    4.4834 H   0  0  0  0  0  0  0  0  0  0  0  0
  5  6  2  0  0  0  0
  5  7  1  0  0  0  0
  2  3  1  0  0  0  0
  2  4  1  0  0  0  0
  2  5  1  0  0  0  0
  1  2  1  0  0  0  0
 22 23  2  0  0  0  0
 22 24  1  0  0  0  0
 20 21  1  0  0  0  0
 19 20  1  0  0  0  0
 17 18  1  0  0  0  0
 17 19  2  0  0  0  0
 15 16  1  0  0  0  0
 15 17  1  0  0  0  0
 14 15  1  0  0  0  0
 14 20  2  0  0  0  0
 11 12  1  0  0  0  0
 11 13  1  0  0  0  0
 11 14  1  0  0  0  0
  9 10  1  0  0  0  0
  9 11  1  0  0  0  0
  9 22  1  0  0  0  0
  7  8  1  0  0  0  0
  7  9  1  0  0  0  0
 26 27  1  0  0  0  0
 26 28  1  0  0  0  0
 26 29  1  0  0  0  0
 24 25  1  0  0  0  0
 24 26  1  0  0  0  0
M  END
$$$$
default_name
  -OEChem-02102213163D

 29 29  0     1  0  0  0  0  0999 V2000
   -3.6042   -3.5728    1.4576 H   0  0  0  0  0  0  0  0  0  0  0  0
   -3.5202   -2.6488    0.8866 C   0  0  0  0  0  0  0  0  0  0  0  0
   -4.2052   -1.9048    1.2896 H   0  0  0  0  0  0  0  0  0  0  0  0
   -3.7552   -2.8428   -0.1584 H   0  0  0  0  0  0  0  0  0  0  0  0
   -2.1052   -2.1358    0.9946 C   0  0  0  0  0  0  0  0  0  0  0  0
   -1.2852   -2.7288    1.6826 O   0  0  0  0  0  0  0  0  0  0  0  0
   -1.8202   -1.0288    0.3146 N   0  0  0  0  0  0  0  0  0  0  0  0
   -2.5542   -0.5788   -0.2104 H   0  0  0  0  0  0  0  0  0  0  0  0
   -0.5102   -0.3728    0.3086 C   0  0  1  0  0  0  0  0  0  0  0  0
    0.2354   -1.0844   -0.0490 H   0  0  0  0  0  0  0  0  0  0  0  0
   -0.5452    0.8158   -0.6698 C   0  0  0  0  0  0  0  0  0  0  0  0
   -0.2679    0.4668   -1.6661 H   0  0  0  0  0  0  0  0  0  0  0  0
   -1.5641    1.2039   -0.7218 H   0  0  0  0  0  0  0  0  0  0  0  0
    0.3766    1.9432   -0.2831 C   0  0  0  0  0  0  0  0  0  0  0  0
    0.0685    3.2868   -0.2873 N   0  0  0  0  0  0  0  0  0  0  0  0
   -0.7891    3.6995   -0.6225 H   0  0  0  0  0  0  0  0  0  0  0  0
    1.1140    3.9544    0.2291 C   0  0  0  0  0  0  0  0  0  0  0  0
    1.1721    5.0292    0.3508 H   0  0  0  0  0  0  0  0  0  0  0  0
    2.0844    3.0980    0.5801 N   0  0  0  0  0  0  0  0  0  0  0  0
    1.6292    1.8174    0.2557 C   0  0  0  0  0  0  0  0  0  0  0  0
    2.1558    0.8884    0.4319 H   0  0  0  0  0  0  0  0  0  0  0  0
   -0.1073    0.0565    1.7296 C   0  0  0  0  0  0  0  0  0  0  0  0
    1.0285   -0.1699    2.1459 O   0  0  0  0  0  0  0  0  0  0  0  0
   -1.0395    0.6588    2.4785 N   0  0  0  0  0  0  0  0  0  0  0  0
   -1.9636    0.7597    2.0849 H   0  0  0  0  0  0  0  0  0  0  0  0
   -0.8222    1.1334    3.8425 C   0  0  0  0  0  0  0  0  0  0  0  0
   -0.0212    1.8761    3.8521 H   0  0  0  0  0  0  0  0  0  0  0  0
   -1.7349    1.5853    4.2320 H   0  0  0  0  0  0  0  0  0  0  0  0
   -0.5312    0.2997    4.4834 H   0  0  0  0  0  0  0  0  0  0  0  0
  5  6  2  0  0  0  0
  5  7  1  0  0  0  0
  2  3  1  0  0  0  0
  2  4  1  0  0  0  0
  2  5  1  0  0  0  0
  1  2  1  0  0  0  0
 22 23  2  0  0  0  0
 22 24  1  0  0  0  0
 20 21  1  0  0  0  0
 19 20  1  0  0  0  0
 17 18  1  0  0  0  0
 17 19  2  0  0  0  0
 15 16  1  0  0  0  0
 15 17  1  0  0  0  0
 14 15  1  0  0  0  0
 14 20  2  0  0  0  0
 11 12  1  0  0  0  0
 11 13  1  0  0  0  0
 11 14  1  0  0  0  0
  9 10  1  0  0  0  0
  9 11  1  0  0  0  0
  9 22  1  0  0  0  0
  7  8  1  0  0  0  0
  7  9  1  0  0  0  0
 26 27  1  0  0  0  0
 26 28  1  0  0  0  0
 26 29  1  0  0  0  0
 24 25  1  0  0  0  0
 24 26  1  0  0  0  0
M  END
$$$$
default_name
  -OEChem-02102213163D

 29 29  0     1  0  0  0  0  0999 V2000
   -3.6042   -3.5728    1.4576 H   0  0  0  0  0  0  0  0  0  0  0  0
   -3.5202   -2.6488    0.8866 C   0  0  0  0  0  0  0  0  0  0  0  0
   -4.2052   -1.9048    1.2896 H   0  0  0  0  0  0  0  0  0  0  0  0
   -3.7552   -2.8428   -0.1584 H   0  0  0  0  0  0  0  0  0  0  0  0
   -2.1052   -2.1358    0.9946 C   0  0  0  0  0  0  0  0  0  0  0  0
   -1.2852   -2.7288    1.6826 O   0  0  0  0  0  0  0  0  0  0  0  0
   -1.8202   -1.0288    0.3146 N   0  0  0  0  0  0  0  0  0  0  0  0
   -2.5542   -0.5788   -0.2104 H   0  0  0  0  0  0  0  0  0  0  0  0
   -0.5102   -0.3728    0.3086 C   0  0  1  0  0  0  0  0  0  0  0  0
    0.2354   -1.0844   -0.0490 H   0  0  0  0  0  0  0  0  0  0  0  0
   -0.5452    0.8158   -0.6698 C   0  0  0  0  0  0  0  0  0  0  0  0
   -0.2679    0.4668   -1.6661 H   0  0  0  0  0  0  0  0  0  0  0  0
   -1.5641    1.2039   -0.7218 H   0  0  0  0  0  0  0  0  0  0  0  0
    0.3766    1.9432   -0.2831 C   0  0  0  0  0  0  0  0  0  0  0  0
    0.0060    3.2420   -0.0076 N   0  0  0  0  0  0  0  0  0  0  0  0
   -0.9210    3.6290   -0.1026 H   0  0  0  0  0  0  0  0  0  0  0  0
    1.0980    3.9070    0.4055 C   0  0  0  0  0  0  0  0  0  0  0  0
    1.1244    4.9519    0.6897 H   0  0  0  0  0  0  0  0  0  0  0  0
    2.1611    3.0898    0.4215 N   0  0  0  0  0  0  0  0  0  0  0  0
    1.7162    1.8402   -0.0181 C   0  0  0  0  0  0  0  0  0  0  0  0
    2.3138    0.9416   -0.0998 H   0  0  0  0  0  0  0  0  0  0  0  0
   -0.1073    0.0565    1.7296 C   0  0  0  0  0  0  0  0  0  0  0  0
    1.0285   -0.1699    2.1459 O   0  0  0  0  0  0  0  0  0  0  0  0
   -1.0395    0.6588    2.4785 N   0  0  0  0  0  0  0  0  0  0  0  0
   -1.9636    0.7597    2.0849 H   0  0  0  0  0  0  0  0  0  0  0  0
   -0.8222    1.1334    3.8425 C   0  0  0  0  0  0  0  0  0  0  0  0
   -0.0212    1.8761    3.8521 H   0  0  0  0  0  0  0  0  0  0  0  0
   -1.7349    1.5853    4.2320 H   0  0  0  0  0  0  0  0  0  0  0  0
   -0.5312    0.2997    4.4834 H   0  0  0  0  0  0  0  0  0  0  0  0
  5  6  2  0  0  0  0
  5  7  1  0  0  0  0
  2  3  1  0  0  0  0
  2  4  1  0  0  0  0
  2  5  1  0  0  0  0
  1  2  1  0  0  0  0
 22 23  2  0  0  0  0
 22 24  1  0  0  0  0
 20 21  1  0  0  0  0
 19 20  1  0  0  0  0
 17 18  1  0  0  0  0
 17 19  2  0  0  0  0
 15 16  1  0  0  0  0
 15 17  1  0  0  0  0
 14 15  1  0  0  0  0
 14 20  2  0  0  0  0
 11 12  1  0  0  0  0
 11 13  1  0  0  0  0
 11 14  1  0  0  0  0
  9 10  1  0  0  0  0
  9 11  1  0  0  0  0
  9 22  1  0  0  0  0
  7  8  1  0  0  0  0
  7  9  1  0  0  0  0
 26 27  1  0  0  0  0
 26 28  1  0  0  0  0
 26 29  1  0  0  0  0
 24 25  1  0  0  0  0
 24 26  1  0  0  0  0
M  END
$$$$
default_name
  -OEChem-02102213163D

 29 29  0     1  0  0  0  0  0999 V2000
   -3.6042   -3.5728    1.4576 H   0  0  0  0  0  0  0  0  0  0  0  0
   -3.5202   -2.6488    0.8866 C   0  0  0  0  0  0  0  0  0  0  0  0
   -4.2052   -1.9048    1.2896 H   0  0  0  0  0  0  0  0  0  0  0  0
   -3.7552   -2.8428   -0.1584 H   0  0  0  0  0  0  0  0  0  0  0  0
   -2.1052   -2.1358    0.9946 C   0  0  0  0  0  0  0  0  0  0  0  0
   -1.2852   -2.7288    1.6826 O   0  0  0  0  0  0  0  0  0  0  0  0
   -1.8202   -1.0288    0.3146 N   0  0  0  0  0  0  0  0  0  0  0  0
   -2.5542   -0.5788   -0.2104 H   0  0  0  0  0  0  0  0  0  0  0  0
   -0.5102   -0.3728    0.3086 C   0  0  1  0  0  0  0  0  0  0  0  0
    0.2354   -1.0844   -0.0490 H   0  0  0  0  0  0  0  0  0  0  0  0
   -0.5452    0.8158   -0.6698 C   0  0  0  0  0  0  0  0  0  0  0  0
   -0.2679    0.4668   -1.6661 H   0  0  0  0  0  0  0  0  0  0  0  0
   -1.5641    1.2039   -0.7218 H   0  0  0  0  0  0  0  0  0  0  0  0
    0.3766    1.9432   -0.2831 C   0  0  0  0  0  0  0  0  0  0  0  0
    0.0027    3.1503    0.2675 N   0  0  0  0  0  0  0  0  0  0  0  0
   -0.9431    3.4699    0.4140 H   0  0  0  0  0  0  0  0  0  0  0  0
    1.1198    3.8322    0.5715 C   0  0  0  0  0  0  0  0  0  0  0  0
    1.1492    4.8205    1.0139 H   0  0  0  0  0  0  0  0  0  0  0  0
    2.2050    3.1120    0.2520 N   0  0  0  0  0  0  0  0  0  0  0  0
    1.7456    1.9114   -0.2958 C   0  0  0  0  0  0  0  0  0  0  0  0
    2.3599    1.0877   -0.6356 H   0  0  0  0  0  0  0  0  0  0  0  0
   -0.1073    0.0565    1.7296 C   0  0  0  0  0  0  0  0  0  0  0  0
    1.0285   -0.1699    2.1459 O   0  0  0  0  0  0  0  0  0  0  0  0
   -1.0395    0.6588    2.4785 N   0  0  0  0  0  0  0  0  0  0  0  0
   -1.9636    0.7597    2.0849 H   0  0  0  0  0  0  0  0  0  0  0  0
   -0.8222    1.1334    3.8425 C   0  0  0  0  0  0  0  0  0  0  0  0
   -0.0212    1.8761    3.8521 H   0  0  0  0  0  0  0  0  0  0  0  0
   -1.7349    1.5853    4.2320 H   0  0  0  0  0  0  0  0  0  0  0  0
   -0.5312    0.2997    4.4834 H   0  0  0  0  0  0  0  0  0  0  0  0
  5  6  2  0  0  0  0
  5  7  1  0  0  0  0
  2  3  1  0  0  0  0
  2  4  1  0  0  0  0
  2  5  1  0  0  0  0
  1  2  1  0  0  0  0
 22 23  2  0  0  0  0
 22 24  1  0  0  0  0
 20 21  1  0  0  0  0
 19 20  1  0  0  0  0
 17 18  1  0  0  0  0
 17 19  2  0  0  0  0
 15 16  1  0  0  0  0
 15 17  1  0  0  0  0
 14 15  1  0  0  0  0
 14 20  2  0  0  0  0
 11 12  1  0  0  0  0
 11 13  1  0  0  0  0
 11 14  1  0  0  0  0
  9 10  1  0  0  0  0
  9 11  1  0  0  0  0
  9 22  1  0  0  0  0
  7  8  1  0  0  0  0
  7  9  1  0  0  0  0
 26 27  1  0  0  0  0
 26 28  1  0  0  0  0
 26 29  1  0  0  0  0
 24 25  1  0  0  0  0
 24 26  1  0  0  0  0
M  END
$$$$
default_name
  -OEChem-02102213163D

 29 29  0     1  0  0  0  0  0999 V2000
   -3.6042   -3.5728    1.4576 H   0  0  0  0  0  0  0  0  0  0  0  0
   -3.5202   -2.6488    0.8866 C   0  0  0  0  0  0  0  0  0  0  0  0
   -4.2052   -1.9048    1.2896 H   0  0  0  0  0  0  0  0  0  0  0  0
   -3.7552   -2.8428   -0.1584 H   0  0  0  0  0  0  0  0  0  0  0  0
   -2.1052   -2.1358    0.9946 C   0  0  0  0  0  0  0  0  0  0  0  0
   -1.2852   -2.7288    1.6826 O   0  0  0  0  0  0  0  0  0  0  0  0
   -1.8202   -1.0288    0.3146 N   0  0  0  0  0  0  0  0  0  0  0  0
   -2.5542   -0.5788   -0.2104 H   0  0  0  0  0  0  0  0  0  0  0  0
   -0.5102   -0.3728    0.3086 C   0  0  1  0  0  0  0  0  0  0  0  0
    0.2354   -1.0844   -0.0490 H   0  0  0  0  0  0  0  0  0  0  0  0
   -0.5452    0.8158   -0.6698 C   0  0  0  0  0  0  0  0  0  0  0  0
   -0.2679    0.4668   -1.6661 H   0  0  0  0  0  0  0  0  0  0  0  0
   -1.5641    1.2039   -0.7218 H   0  0  0  0  0  0  0  0  0  0  0  0
    0.3766    1.9432   -0.2831 C   0  0  0  0  0  0  0  0  0  0  0  0
    0.0589    3.0179    0.5194 N   0  0  0  0  0  0  0  0  0  0  0  0
   -0.8539    3.2330    0.8920 H   0  0  0  0  0  0  0  0  0  0  0  0
    1.1780    3.7351    0.7158 C   0  0  0  0  0  0  0  0  0  0  0  0
    1.2446    4.6438    1.3015 H   0  0  0  0  0  0  0  0  0  0  0  0
    2.2131    3.1632    0.0834 N   0  0  0  0  0  0  0  0  0  0  0  0
    1.7155    2.0261   -0.5584 C   0  0  0  0  0  0  0  0  0  0  0  0
    2.2909    1.3167   -1.1389 H   0  0  0  0  0  0  0  0  0  0  0  0
   -0.1073    0.0565    1.7296 C   0  0  0  0  0  0  0  0  0  0  0  0
    1.0285   -0.1699    2.1459 O   0  0  0  0  0  0  0  0  0  0  0  0
   -1.0395    0.6588    2.4785 N   0  0  0  0  0  0  0  0  0  0  0  0
   -1.9636    0.7597    2.0849 H   0  0  0  0  0  0  0  0  0  0  0  0
   -0.8222    1.1334    3.8425 C   0  0  0  0  0  0  0  0  0  0  0  0
   -0.0212    1.8761    3.8521 H   0  0  0  0  0  0  0  0  0  0  0  0
   -1.7349    1.5853    4.2320 H   0  0  0  0  0  0  0  0  0  0  0  0
   -0.5312    0.2997    4.4834 H   0  0  0  0  0  0  0  0  0  0  0  0
  5  6  2  0  0  0  0
  5  7  1  0  0  0  0
  2  3  1  0  0  0  0
  2  4  1  0  0  0  0
  2  5  1  0  0  0  0
  1  2  1  0  0  0  0
 22 23  2  0  0  0  0
 22 24  1  0  0  0  0
 20 21  1  0  0  0  0
 19 20  1  0  0  0  0
 17 18  1  0  0  0  0
 17 19  2  0  0  0  0
 15 16  1  0  0  0  0
 15 17  1  0  0  0  0
 14 15  1  0  0  0  0
 14 20  2  0  0  0  0
 11 12  1  0  0  0  0
 11 13  1  0  0  0  0
 11 14  1  0  0  0  0
  9 10  1  0  0  0  0
  9 11  1  0  0  0  0
  9 22  1  0  0  0  0
  7  8  1  0  0  0  0
  7  9  1  0  0  0  0
 26 27  1  0  0  0  0
 26 28  1  0  0  0  0
 26 29  1  0  0  0  0
 24 25  1  0  0  0  0
 24 26  1  0  0  0  0
M  END
$$$$
default_name
  -OEChem-02102213163D

 29 29  0     1  0  0  0  0  0999 V2000
   -3.6042   -3.5728    1.4576 H   0  0  0  0  0  0  0  0  0  0  0  0
   -3.5202   -2.6488    0.8866 C   0  0  0  0  0  0  0  0  0  0  0  0
   -4.2052   -1.9048    1.2896 H   0  0  0  0  0  0  0  0  0  0  0  0
   -3.7552   -2.8428   -0.1584 H   0  0  0  0  0  0  0  0  0  0  0  0
   -2.1052   -2.1358    0.9946 C   0  0  0  0  0  0  0  0  0  0  0  0
   -1.2852   -2.7288    1.6826 O   0  0  0  0  0  0  0  0  0  0  0  0
   -1.8202   -1.0288    0.3146 N   0  0  0  0  0  0  0  0  0  0  0  0
   -2.5542   -0.5788   -0.2104 H   0  0  0  0  0  0  0  0  0  0  0  0
   -0.5102   -0.3728    0.3086 C   0  0  1  0  0  0  0  0  0  0  0  0
    0.2354   -1.0844   -0.0490 H   0  0  0  0  0  0  0  0  0  0  0  0
   -0.5452    0.8158   -0.6698 C   0  0  0  0  0  0  0  0  0  0  0  0
   -0.2679    0.4668   -1.6661 H   0  0  0  0  0  0  0  0  0  0  0  0
   -1.5641    1.2039   -0.7218 H   0  0  0  0  0  0  0  0  0  0  0  0
    0.3766    1.9432   -0.2831 C   0  0  0  0  0  0  0  0  0  0  0  0
    0.1708    2.8539    0.7309 N   0  0  0  0  0  0  0  0  0  0  0  0
   -0.6593    2.9343    1.2990 H   0  0  0  0  0  0  0  0  0  0  0  0
    1.2687    3.6223    0.8285 C   0  0  0  0  0  0  0  0  0  0  0  0
    1.4042    4.4339    1.5329 H   0  0  0  0  0  0  0  0  0  0  0  0
    2.1849    3.2399   -0.0730 N   0  0  0  0  0  0  0  0  0  0  0  0
    1.6279    2.1765   -0.7881 C   0  0  0  0  0  0  0  0  0  0  0  0
    2.1116    1.6130   -1.5755 H   0  0  0  0  0  0  0  0  0  0  0  0
   -0.1073    0.0565    1.7296 C   0  0  0  0  0  0  0  0  0  0  0  0
    1.0285   -0.1699    2.1459 O   0  0  0  0  0  0  0  0  0  0  0  0
   -1.0395    0.6588    2.4785 N   0  0  0  0  0  0  0  0  0  0  0  0
   -1.9636    0.7597    2.0849 H   0  0  0  0  0  0  0  0  0  0  0  0
   -0.8222    1.1334    3.8425 C   0  0  0  0  0  0  0  0  0  0  0  0
   -0.0212    1.8761    3.8521 H   0  0  0  0  0  0  0  0  0  0  0  0
   -1.7349    1.5853    4.2320 H   0  0  0  0  0  0  0  0  0  0  0  0
   -0.5312    0.2997    4.4834 H   0  0  0  0  0  0  0  0  0  0  0  0
  5  6  2  0  0  0  0
  5  7  1  0  0  0  0
  2  3  1  0  0  0  0
  2  4  1  0  0  0  0
  2  5  1  0  0  0  0
  1  2  1  0  0  0  0
 22 23  2  0  0  0  0
 22 24  1  0  0  0  0
 20 21  1  0  0  0  0
 19 20  1  0  0  0  0
 17 18  1  0  0  0  0
 17 19  2  0  0  0  0
 15 16  1  0  0  0  0
 15 17  1  0  0  0  0
 14 15  1  0  0  0  0
 14 20  2  0  0  0  0
 11 12  1  0  0  0  0
 11 13  1  0  0  0  0
 11 14  1  0  0  0  0
  9 10  1  0  0  0  0
  9 11  1  0  0  0  0
  9 22  1  0  0  0  0
  7  8  1  0  0  0  0
  7  9  1  0  0  0  0
 26 27  1  0  0  0  0
 26 28  1  0  0  0  0
 26 29  1  0  0  0  0
 24 25  1  0  0  0  0
 24 26  1  0  0  0  0
M  END
$$$$
default_name
  -OEChem-02102213163D

 29 29  0     1  0  0  0  0  0999 V2000
   -3.6042   -3.5728    1.4576 H   0  0  0  0  0  0  0  0  0  0  0  0
   -3.5202   -2.6488    0.8866 C   0  0  0  0  0  0  0  0  0  0  0  0
   -4.2052   -1.9048    1.2896 H   0  0  0  0  0  0  0  0  0  0  0  0
   -3.7552   -2.8428   -0.1584 H   0  0  0  0  0  0  0  0  0  0  0  0
   -2.1052   -2.1358    0.9946 C   0  0  0  0  0  0  0  0  0  0  0  0
   -1.2852   -2.7288    1.6826 O   0  0  0  0  0  0  0  0  0  0  0  0
   -1.8202   -1.0288    0.3146 N   0  0  0  0  0  0  0  0  0  0  0  0
   -2.5542   -0.5788   -0.2104 H   0  0  0  0  0  0  0  0  0  0  0  0
   -0.5102   -0.3728    0.3086 C   0  0  1  0  0  0  0  0  0  0  0  0
    0.2354   -1.0844   -0.0490 H   0  0  0  0  0  0  0  0  0  0  0  0
   -0.5452    0.8158   -0.6698 C   0  0  0  0  0  0  0  0  0  0  0  0
   -0.2679    0.4668   -1.6661 H   0  0  0  0  0  0  0  0  0  0  0  0
   -1.5641    1.2039   -0.7218 H   0  0  0  0  0  0  0  0  0  0  0  0
    0.3766    1.9432   -0.2831 C   0  0  0  0  0  0  0  0  0  0  0  0
    0.3307    2.6695    0.8876 N   0  0  0  0  0  0  0  0  0  0  0  0
   -0.3727    2.5944    1.6071 H   0  0  0  0  0  0  0  0  0  0  0  0
    1.3856    3.5016    0.9020 C   0  0  0  0  0  0  0  0  0  0  0  0
    1.6171    4.2052    1.6923 H   0  0  0  0  0  0  0  0  0  0  0  0
    2.1222    3.3369   -0.2064 N   0  0  0  0  0  0  0  0  0  0  0  0
    1.4889    2.3523   -0.9692 C   0  0  0  0  0  0  0  0  0  0  0  0
    1.8342    1.9564   -1.9155 H   0  0  0  0  0  0  0  0  0  0  0  0
   -0.1073    0.0565    1.7296 C   0  0  0  0  0  0  0  0  0  0  0  0
    1.0285   -0.1699    2.1459 O   0  0  0  0  0  0  0  0  0  0  0  0
   -1.0395    0.6588    2.4785 N   0  0  0  0  0  0  0  0  0  0  0  0
   -1.9636    0.7597    2.0849 H   0  0  0  0  0  0  0  0  0  0  0  0
   -0.8222    1.1334    3.8425 C   0  0  0  0  0  0  0  0  0  0  0  0
   -0.0212    1.8761    3.8521 H   0  0  0  0  0  0  0  0  0  0  0  0
   -1.7349    1.5853    4.2320 H   0  0  0  0  0  0  0  0  0  0  0  0
   -0.5312    0.2997    4.4834 H   0  0  0  0  0  0  0  0  0  0  0  0
  5  6  2  0  0  0  0
  5  7  1  0  0  0  0
  2  3  1  0  0  0  0
  2  4  1  0  0  0  0
  2  5  1  0  0  0  0
  1  2  1  0  0  0  0
 22 23  2  0  0  0  0
 22 24  1  0  0  0  0
 20 21  1  0  0  0  0
 19 20  1  0  0  0  0
 17 18  1  0  0  0  0
 17 19  2  0  0  0  0
 15 16  1  0  0  0  0
 15 17  1  0  0  0  0
 14 15  1  0  0  0  0
 14 20  2  0  0  0  0
 11 12  1  0  0  0  0
 11 13  1  0  0  0  0
 11 14  1  0  0  0  0
  9 10  1  0  0  0  0
  9 11  1  0  0  0  0
  9 22  1  0  0  0  0
  7  8  1  0  0  0  0
  7  9  1  0  0  0  0
 26 27  1  0  0  0  0
 26 28  1  0  0  0  0
 26 29  1  0  0  0  0
 24 25  1  0  0  0  0
 24 26  1  0  0  0  0
M  END
$$$$
default_name
  -OEChem-02102213163D

 29 29  0     1  0  0  0  0  0999 V2000
   -3.6042   -3.5728    1.4576 H   0  0  0  0  0  0  0  0  0  0  0  0
   -3.5202   -2.6488    0.8866 C   0  0  0  0  0  0  0  0  0  0  0  0
   -4.2052   -1.9048    1.2896 H   0  0  0  0  0  0  0  0  0  0  0  0
   -3.7552   -2.8428   -0.1584 H   0  0  0  0  0  0  0  0  0  0  0  0
   -2.1052   -2.1358    0.9946 C   0  0  0  0  0  0  0  0  0  0  0  0
   -1.2852   -2.7288    1.6826 O   0  0  0  0  0  0  0  0  0  0  0  0
   -1.8202   -1.0288    0.3146 N   0  0  0  0  0  0  0  0  0  0  0  0
   -2.5542   -0.5788   -0.2104 H   0  0  0  0  0  0  0  0  0  0  0  0
   -0.5102   -0.3728    0.3086 C   0  0  1  0  0  0  0  0  0  0  0  0
    0.2354   -1.0844   -0.0490 H   0  0  0  0  0  0  0  0  0  0  0  0
   -0.5452    0.8158   -0.6698 C   0  0  0  0  0  0  0  0  0  0  0  0
   -0.2679    0.4668   -1.6661 H   0  0  0  0  0  0  0  0  0  0  0  0
   -1.5641    1.2039   -0.7218 H   0  0  0  0  0  0  0  0  0  0  0  0
    0.3766    1.9432   -0.2831 C   0  0  0  0  0  0  0  0  0  0  0  0
    0.5277    2.4771    0.9787 N   0  0  0  0  0  0  0  0  0  0  0  0
   -0.0137    2.2362    1.7954 H   0  0  0  0  0  0  0  0  0  0  0  0
    1.5207    3.3811    0.9312 C   0  0  0  0  0  0  0  0  0  0  0  0
    1.8688    3.9732    1.7687 H   0  0  0  0  0  0  0  0  0  0  0  0
    2.0294    3.4475   -0.3078 N   0  0  0  0  0  0  0  0  0  0  0  0
    1.3078    2.5415   -1.0894 C   0  0  0  0  0  0  0  0  0  0  0  0
    1.4776    2.3236   -2.1359 H   0  0  0  0  0  0  0  0  0  0  0  0
   -0.1073    0.0565    1.7296 C   0  0  0  0  0  0  0  0  0  0  0  0
    1.0285   -0.1699    2.1459 O   0  0  0  0  0  0  0  0  0  0  0  0
   -1.0395    0.6588    2.4785 N   0  0  0  0  0  0  0  0  0  0  0  0
   -1.9636    0.7597    2.0849 H   0  0  0  0  0  0  0  0  0  0  0  0
   -0.8222    1.1334    3.8425 C   0  0  0  0  0  0  0  0  0  0  0  0
   -0.0212    1.8761    3.8521 H   0  0  0  0  0  0  0  0  0  0  0  0
   -1.7349    1.5853    4.2320 H   0  0  0  0  0  0  0  0  0  0  0  0
   -0.5312    0.2997    4.4834 H   0  0  0  0  0  0  0  0  0  0  0  0
  5  6  2  0  0  0  0
  5  7  1  0  0  0  0
  2  3  1  0  0  0  0
  2  4  1  0  0  0  0
  2  5  1  0  0  0  0
  1  2  1  0  0  0  0
 22 23  2  0  0  0  0
 22 24  1  0  0  0  0
 20 21  1  0  0  0  0
 19 20  1  0  0  0  0
 17 18  1  0  0  0  0
 17 19  2  0  0  0  0
 15 16  1  0  0  0  0
 15 17  1  0  0  0  0
 14 15  1  0  0  0  0
 14 20  2  0  0  0  0
 11 12  1  0  0  0  0
 11 13  1  0  0  0  0
 11 14  1  0  0  0  0
  9 10  1  0  0  0  0
  9 11  1  0  0  0  0
  9 22  1  0  0  0  0
  7  8  1  0  0  0  0
  7  9  1  0  0  0  0
 26 27  1  0  0  0  0
 26 28  1  0  0  0  0
 26 29  1  0  0  0  0
 24 25  1  0  0  0  0
 24 26  1  0  0  0  0
M  END
$$$$
default_name
  -OEChem-02102213163D

 29 29  0     1  0  0  0  0  0999 V2000
   -3.6042   -3.5728    1.4576 H   0  0  0  0  0  0  0  0  0  0  0  0
   -3.5202   -2.6488    0.8866 C   0  0  0  0  0  0  0  0  0  0  0  0
   -4.2052   -1.9048    1.2896 H   0  0  0  0  0  0  0  0  0  0  0  0
   -3.7552   -2.8428   -0.1584 H   0  0  0  0  0  0  0  0  0  0  0  0
   -2.1052   -2.1358    0.9946 C   0  0  0  0  0  0  0  0  0  0  0  0
   -1.2852   -2.7288    1.6826 O   0  0  0  0  0  0  0  0  0  0  0  0
   -1.8202   -1.0288    0.3146 N   0  0  0  0  0  0  0  0  0  0  0  0
   -2.5542   -0.5788   -0.2104 H   0  0  0  0  0  0  0  0  0  0  0  0
   -0.5102   -0.3728    0.3086 C   0  0  1  0  0  0  0  0  0  0  0  0
    0.2354   -1.0844   -0.0490 H   0  0  0  0  0  0  0  0  0  0  0  0
   -0.5452    0.8158   -0.6698 C   0  0  0  0  0  0  0  0  0  0  0  0
   -0.2679    0.4668   -1.6661 H   0  0  0  0  0  0  0  0  0  0  0  0
   -1.5641    1.2039   -0.7218 H   0  0  0  0  0  0  0  0  0  0  0  0
    0.3766    1.9432   -0.2831 C   0  0  0  0  0  0  0  0  0  0  0  0
    0.7485    2.2900    0.9981 N   0  0  0  0  0  0  0  0  0  0  0  0
    0.3934    1.8843    1.8510 H   0  0  0  0  0  0  0  0  0  0  0  0
    1.6649    3.2690    0.9142 C   0  0  0  0  0  0  0  0  0  0  0  0
    2.1421    3.7537    1.7571 H   0  0  0  0  0  0  0  0  0  0  0  0
    1.9128    3.5643   -0.3702 N   0  0  0  0  0  0  0  0  0  0  0  0
    1.0971    2.7313   -1.1405 C   0  0  0  0  0  0  0  0  0  0  0  0
    1.0661    2.6894   -2.2216 H   0  0  0  0  0  0  0  0  0  0  0  0
   -0.1073    0.0565    1.7296 C   0  0  0  0  0  0  0  0  0  0  0  0
    1.0285   -0.1699    2.1459 O   0  0  0  0  0  0  0  0  0  0  0  0
   -1.0395    0.6588    2.4785 N   0  0  0  0  0  0  0  0  0  0  0  0
   -1.9636    0.7597    2.0849 H   0  0  0  0  0  0  0  0  0  0  0  0
   -0.8222    1.1334    3.8425 C   0  0  0  0  0  0  0  0  0  0  0  0
   -0.0212    1.8761    3.8521 H   0  0  0  0  0  0  0  0  0  0  0  0
   -1.7349    1.5853    4.2320 H   0  0  0  0  0  0  0  0  0  0  0  0
   -0.5312    0.2997    4.4834 H   0  0  0  0  0  0  0  0  0  0  0  0
  5  6  2  0  0  0  0
  5  7  1  0  0  0  0
  2  3  1  0  0  0  0
  2  4  1  0  0  0  0
  2  5  1  0  0  0  0
  1  2  1  0  0  0  0
 22 23  2  0  0  0  0
 22 24  1  0  0  0  0
 20 21  1  0  0  0  0
 19 20  1  0  0  0  0
 17 18  1  0  0  0  0
 17 19  2  0  0  0  0
 15 16  1  0  0  0  0
 15 17  1  0  0  0  0
 14 15  1  0  0  0  0
 14 20  2  0  0  0  0
 11 12  1  0  0  0  0
 11 13  1  0  0  0  0
 11 14  1  0  0  0  0
  9 10  1  0  0  0  0
  9 11  1  0  0  0  0
  9 22  1  0  0  0  0
  7  8  1  0  0  0  0
  7  9  1  0  0  0  0
 26 27  1  0  0  0  0
 26 28  1  0  0  0  0
 26 29  1  0  0  0  0
 24 25  1  0  0  0  0
 24 26  1  0  0  0  0
M  END
$$$$
default_name
  -OEChem-02102213163D

 29 29  0     1  0  0  0  0  0999 V2000
   -3.6042   -3.5728    1.4576 H   0  0  0  0  0  0  0  0  0  0  0  0
   -3.5202   -2.6488    0.8866 C   0  0  0  0  0  0  0  0  0  0  0  0
   -4.2052   -1.9048    1.2896 H   0  0  0  0  0  0  0  0  0  0  0  0
   -3.7552   -2.8428   -0.1584 H   0  0  0  0  0  0  0  0  0  0  0  0
   -2.1052   -2.1358    0.9946 C   0  0  0  0  0  0  0  0  0  0  0  0
   -1.2852   -2.7288    1.6826 O   0  0  0  0  0  0  0  0  0  0  0  0
   -1.8202   -1.0288    0.3146 N   0  0  0  0  0  0  0  0  0  0  0  0
   -2.5542   -0.5788   -0.2104 H   0  0  0  0  0  0  0  0  0  0  0  0
   -0.5102   -0.3728    0.3086 C   0  0  1  0  0  0  0  0  0  0  0  0
    0.2354   -1.0844   -0.0490 H   0  0  0  0  0  0  0  0  0  0  0  0
   -0.5452    0.8158   -0.6698 C   0  0  0  0  0  0  0  0  0  0  0  0
   -0.2679    0.4668   -1.6661 H   0  0  0  0  0  0  0  0  0  0  0  0
   -1.5641    1.2039   -0.7218 H   0  0  0  0  0  0  0  0  0  0  0  0
    0.3766    1.9432   -0.2831 C   0  0  0  0  0  0  0  0  0  0  0  0
    0.9779    2.1208    0.9444 N   0  0  0  0  0  0  0  0  0  0  0  0
    0.8207    1.5626    1.7702 H   0  0  0  0  0  0  0  0  0  0  0  0
    1.8083    3.1731    0.8521 C   0  0  0  0  0  0  0  0  0  0  0  0
    2.4185    3.5617    1.6582 H   0  0  0  0  0  0  0  0  0  0  0  0
    1.7803    3.6792   -0.3895 N   0  0  0  0  0  0  0  0  0  0  0  0
    0.8711    2.9087   -1.1189 C   0  0  0  0  0  0  0  0  0  0  0  0
    0.6277    3.0290   -2.1667 H   0  0  0  0  0  0  0  0  0  0  0  0
   -0.1073    0.0565    1.7296 C   0  0  0  0  0  0  0  0  0  0  0  0
    1.0285   -0.1699    2.1459 O   0  0  0  0  0  0  0  0  0  0  0  0
   -1.0395    0.6588    2.4785 N   0  0  0  0  0  0  0  0  0  0  0  0
   -1.9636    0.7597    2.0849 H   0  0  0  0  0  0  0  0  0  0  0  0
   -0.8222    1.1334    3.8425 C   0  0  0  0  0  0  0  0  0  0  0  0
   -0.0212    1.8761    3.8521 H   0  0  0  0  0  0  0  0  0  0  0  0
   -1.7349    1.5853    4.2320 H   0  0  0  0  0  0  0  0  0  0  0  0
   -0.5312    0.2997    4.4834 H   0  0  0  0  0  0  0  0  0  0  0  0
  5  6  2  0  0  0  0
  5  7  1  0  0  0  0
  2  3  1  0  0  0  0
  2  4  1  0  0  0  0
  2  5  1  0  0  0  0
  1  2  1  0  0  0  0
 22 23  2  0  0  0  0
 22 24  1  0  0  0  0
 20 21  1  0  0  0  0
 19 20  1  0  0  0  0
 17 18  1  0  0  0  0
 17 19  2  0  0  0  0
 15 16  1  0  0  0  0
 15 17  1  0  0  0  0
 14 15  1  0  0  0  0
 14 20  2  0  0  0  0
 11 12  1  0  0  0  0
 11 13  1  0  0  0  0
 11 14  1  0  0  0  0
  9 10  1  0  0  0  0
  9 11  1  0  0  0  0
  9 22  1  0  0  0  0
  7  8  1  0  0  0  0
  7  9  1  0  0  0  0
 26 27  1  0  0  0  0
 26 28  1  0  0  0  0
 26 29  1  0  0  0  0
 24 25  1  0  0  0  0
 24 26  1  0  0  0  0
M  END
$$$$
default_name
  -OEChem-02102213163D

 29 29  0     1  0  0  0  0  0999 V2000
   -3.6042   -3.5728    1.4576 H   0  0  0  0  0  0  0  0  0  0  0  0
   -3.5202   -2.6488    0.8866 C   0  0  0  0  0  0  0  0  0  0  0  0
   -4.2052   -1.9048    1.2896 H   0  0  0  0  0  0  0  0  0  0  0  0
   -3.7552   -2.8428   -0.1584 H   0  0  0  0  0  0  0  0  0  0  0  0
   -2.1052   -2.1358    0.9946 C   0  0  0  0  0  0  0  0  0  0  0  0
   -1.2852   -2.7288    1.6826 O   0  0  0  0  0  0  0  0  0  0  0  0
   -1.8202   -1.0288    0.3146 N   0  0  0  0  0  0  0  0  0  0  0  0
   -2.5542   -0.5788   -0.2104 H   0  0  0  0  0  0  0  0  0  0  0  0
   -0.5102   -0.3728    0.3086 C   0  0  1  0  0  0  0  0  0  0  0  0
    0.2354   -1.0844   -0.0490 H   0  0  0  0  0  0  0  0  0  0  0  0
   -0.5452    0.8158   -0.6698 C   0  0  0  0  0  0  0  0  0  0  0  0
   -0.2679    0.4668   -1.6661 H   0  0  0  0  0  0  0  0  0  0  0  0
   -1.5641    1.2039   -0.7218 H   0  0  0  0  0  0  0  0  0  0  0  0
    0.3766    1.9432   -0.2831 C   0  0  0  0  0  0  0  0  0  0  0  0
    1.2003    1.9811    0.8214 N   0  0  0  0  0  0  0  0  0  0  0  0
    1.2393    1.2931    1.5585 H   0  0  0  0  0  0  0  0  0  0  0  0
    1.9412    3.0998    0.7491 C   0  0  0  0  0  0  0  0  0  0  0  0
    2.6791    3.4102    1.4787 H   0  0  0  0  0  0  0  0  0  0  0  0
    1.6410    3.7844   -0.3642 N   0  0  0  0  0  0  0  0  0  0  0  0
    0.6451    3.0617   -1.0263 C   0  0  0  0  0  0  0  0  0  0  0  0
    0.1923    3.3192   -1.9750 H   0  0  0  0  0  0  0  0  0  0  0  0
   -0.1073    0.0565    1.7296 C   0  0  0  0  0  0  0  0  0  0  0  0
    1.0285   -0.1699    2.1459 O   0  0  0  0  0  0  0  0  0  0  0  0
   -1.0395    0.6588    2.4785 N   0  0  0  0  0  0  0  0  0  0  0  0
   -1.9636    0.7597    2.0849 H   0  0  0  0  0  0  0  0  0  0  0  0
   -0.8222    1.1334    3.8425 C   0  0  0  0  0  0  0  0  0  0  0  0
   -0.0212    1.8761    3.8521 H   0  0  0  0  0  0  0  0  0  0  0  0
   -1.7349    1.5853    4.2320 H   0  0  0  0  0  0  0  0  0  0  0  0
   -0.5312    0.2997    4.4834 H   0  0  0  0  0  0  0  0  0  0  0  0
  5  6  2  0  0  0  0
  5  7  1  0  0  0  0
  2  3  1  0  0  0  0
  2  4  1  0  0  0  0
  2  5  1  0  0  0  0
  1  2  1  0  0  0  0
 22 23  2  0  0  0  0
 22 24  1  0  0  0  0
 20 21  1  0  0  0  0
 19 20  1  0  0  0  0
 17 18  1  0  0  0  0
 17 19  2  0  0  0  0
 15 16  1  0  0  0  0
 15 17  1  0  0  0  0
 14 15  1  0  0  0  0
 14 20  2  0  0  0  0
 11 12  1  0  0  0  0
 11 13  1  0  0  0  0
 11 14  1  0  0  0  0
  9 10  1  0  0  0  0
  9 11  1  0  0  0  0
  9 22  1  0  0  0  0
  7  8  1  0  0  0  0
  7  9  1  0  0  0  0
 26 27  1  0  0  0  0
 26 28  1  0  0  0  0
 26 29  1  0  0  0  0
 24 25  1  0  0  0  0
 24 26  1  0  0  0  0
M  END
$$$$
default_name
  -OEChem-02102213163D

 29 29  0     1  0  0  0  0  0999 V2000
   -3.6042   -3.5728    1.4576 H   0  0  0  0  0  0  0  0  0  0  0  0
   -3.5202   -2.6488    0.8866 C   0  0  0  0  0  0  0  0  0  0  0  0
   -4.2052   -1.9048    1.2896 H   0  0  0  0  0  0  0  0  0  0  0  0
   -3.7552   -2.8428   -0.1584 H   0  0  0  0  0  0  0  0  0  0  0  0
   -2.1052   -2.1358    0.9946 C   0  0  0  0  0  0  0  0  0  0  0  0
   -1.2852   -2.7288    1.6826 O   0  0  0  0  0  0  0  0  0  0  0  0
   -1.8202   -1.0288    0.3146 N   0  0  0  0  0  0  0  0  0  0  0  0
   -2.5542   -0.5788   -0.2104 H   0  0  0  0  0  0  0  0  0  0  0  0
   -0.5102   -0.3728    0.3086 C   0  0  1  0  0  0  0  0  0  0  0  0
    0.2354   -1.0844   -0.0490 H   0  0  0  0  0  0  0  0  0  0  0  0
   -0.5452    0.8158   -0.6698 C   0  0  0  0  0  0  0  0  0  0  0  0
   -0.2679    0.4668   -1.6661 H   0  0  0  0  0  0  0  0  0  0  0  0
   -1.5641    1.2039   -0.7218 H   0  0  0  0  0  0  0  0  0  0  0  0
    0.3766    1.9432   -0.2831 C   0  0  0  0  0  0  0  0  0  0  0  0
    1.4007    1.8805    0.6374 N   0  0  0  0  0  0  0  0  0  0  0  0
    1.6204    1.0941    1.2302 H   0  0  0  0  0  0  0  0  0  0  0  0
    2.0545    3.0541    0.6123 C   0  0  0  0  0  0  0  0  0  0  0  0
    2.9060    3.3096    1.2309 H   0  0  0  0  0  0  0  0  0  0  0  0
    1.5043    3.8728   -0.2962 N   0  0  0  0  0  0  0  0  0  0  0  0
    0.4346    3.1797   -0.8688 C   0  0  0  0  0  0  0  0  0  0  0  0
   -0.2104    3.5403   -1.6596 H   0  0  0  0  0  0  0  0  0  0  0  0
   -0.1073    0.0565    1.7296 C   0  0  0  0  0  0  0  0  0  0  0  0
    1.0285   -0.1699    2.1459 O   0  0  0  0  0  0  0  0  0  0  0  0
   -1.0395    0.6588    2.4785 N   0  0  0  0  0  0  0  0  0  0  0  0
   -1.9636    0.7597    2.0849 H   0  0  0  0  0  0  0  0  0  0  0  0
   -0.8222    1.1334    3.8425 C   0  0  0  0  0  0  0  0  0  0  0  0
   -0.0212    1.8761    3.8521 H   0  0  0  0  0  0  0  0  0  0  0  0
   -1.7349    1.5853    4.2320 H   0  0  0  0  0  0  0  0  0  0  0  0
   -0.5312    0.2997    4.4834 H   0  0  0  0  0  0  0  0  0  0  0  0
  5  6  2  0  0  0  0
  5  7  1  0  0  0  0
  2  3  1  0  0  0  0
  2  4  1  0  0  0  0
  2  5  1  0  0  0  0
  1  2  1  0  0  0  0
 22 23  2  0  0  0  0
 22 24  1  0  0  0  0
 20 21  1  0  0  0  0
 19 20  1  0  0  0  0
 17 18  1  0  0  0  0
 17 19  2  0  0  0  0
 15 16  1  0  0  0  0
 15 17  1  0  0  0  0
 14 15  1  0  0  0  0
 14 20  2  0  0  0  0
 11 12  1  0  0  0  0
 11 13  1  0  0  0  0
 11 14  1  0  0  0  0
  9 10  1  0  0  0  0
  9 11  1  0  0  0  0
  9 22  1  0  0  0  0
  7  8  1  0  0  0  0
  7  9  1  0  0  0  0
 26 27  1  0  0  0  0
 26 28  1  0  0  0  0
 26 29  1  0  0  0  0
 24 25  1  0  0  0  0
 24 26  1  0  0  0  0
M  END
$$$$
default_name
  -OEChem-02102213163D

 29 29  0     1  0  0  0  0  0999 V2000
   -3.6042   -3.5728    1.4576 H   0  0  0  0  0  0  0  0  0  0  0  0
   -3.5202   -2.6488    0.8866 C   0  0  0  0  0  0  0  0  0  0  0  0
   -4.2052   -1.9048    1.2896 H   0  0  0  0  0  0  0  0  0  0  0  0
   -3.7552   -2.8428   -0.1584 H   0  0  0  0  0  0  0  0  0  0  0  0
   -2.1052   -2.1358    0.9946 C   0  0  0  0  0  0  0  0  0  0  0  0
   -1.2852   -2.7288    1.6826 O   0  0  0  0  0  0  0  0  0  0  0  0
   -1.8202   -1.0288    0.3146 N   0  0  0  0  0  0  0  0  0  0  0  0
   -2.5542   -0.5788   -0.2104 H   0  0  0  0  0  0  0  0  0  0  0  0
   -0.5102   -0.3728    0.3086 C   0  0  1  0  0  0  0  0  0  0  0  0
    0.2354   -1.0844   -0.0490 H   0  0  0  0  0  0  0  0  0  0  0  0
   -0.5452    0.8158   -0.6698 C   0  0  0  0  0  0  0  0  0  0  0  0
   -0.2679    0.4668   -1.6661 H   0  0  0  0  0  0  0  0  0  0  0  0
   -1.5641    1.2039   -0.7218 H   0  0  0  0  0  0  0  0  0  0  0  0
    0.3766    1.9432   -0.2831 C   0  0  0  0  0  0  0  0  0  0  0  0
    1.5652    1.8257    0.4049 N   0  0  0  0  0  0  0  0  0  0  0  0
    1.9382    0.9791    0.8078 H   0  0  0  0  0  0  0  0  0  0  0  0
    2.1404    3.0391    0.4510 C   0  0  0  0  0  0  0  0  0  0  0  0
    3.0840    3.2668    0.9317 H   0  0  0  0  0  0  0  0  0  0  0  0
    1.3796    3.9384   -0.1900 N   0  0  0  0  0  0  0  0  0  0  0  0
    0.2540    3.2549   -0.6572 C   0  0  0  0  0  0  0  0  0  0  0  0
   -0.5530    3.6771   -1.2419 H   0  0  0  0  0  0  0  0  0  0  0  0
   -0.1073    0.0565    1.7296 C   0  0  0  0  0  0  0  0  0  0  0  0
    1.0285   -0.1699    2.1459 O   0  0  0  0  0  0  0  0  0  0  0  0
   -1.0395    0.6588    2.4785 N   0  0  0  0  0  0  0  0  0  0  0  0
   -1.9636    0.7597    2.0849 H   0  0  0  0  0  0  0  0  0  0  0  0
   -0.8222    1.1334    3.8425 C   0  0  0  0  0  0  0  0  0  0  0  0
   -0.0212    1.8761    3.8521 H   0  0  0  0  0  0  0  0  0  0  0  0
   -1.7349    1.5853    4.2320 H   0  0  0  0  0  0  0  0  0  0  0  0
   -0.5312    0.2997    4.4834 H   0  0  0  0  0  0  0  0  0  0  0  0
  5  6  2  0  0  0  0
  5  7  1  0  0  0  0
  2  3  1  0  0  0  0
  2  4  1  0  0  0  0
  2  5  1  0  0  0  0
  1  2  1  0  0  0  0
 22 23  2  0  0  0  0
 22 24  1  0  0  0  0
 20 21  1  0  0  0  0
 19 20  1  0  0  0  0
 17 18  1  0  0  0  0
 17 19  2  0  0  0  0
 15 16  1  0  0  0  0
 15 17  1  0  0  0  0
 14 15  1  0  0  0  0
 14 20  2  0  0  0  0
 11 12  1  0  0  0  0
 11 13  1  0  0  0  0
 11 14  1  0  0  0  0
  9 10  1  0  0  0  0
  9 11  1  0  0  0  0
  9 22  1  0  0  0  0
  7  8  1  0  0  0  0
  7  9  1  0  0  0  0
 26 27  1  0  0  0  0
 26 28  1  0  0  0  0
 26 29  1  0  0  0  0
 24 25  1  0  0  0  0
 24 26  1  0  0  0  0
M  END
$$$$
default_name
  -OEChem-02102213163D

 29 29  0     1  0  0  0  0  0999 V2000
   -3.6042   -3.5728    1.4576 H   0  0  0  0  0  0  0  0  0  0  0  0
   -3.5202   -2.6488    0.8866 C   0  0  0  0  0  0  0  0  0  0  0  0
   -4.2052   -1.9048    1.2896 H   0  0  0  0  0  0  0  0  0  0  0  0
   -3.7552   -2.8428   -0.1584 H   0  0  0  0  0  0  0  0  0  0  0  0
   -2.1052   -2.1358    0.9946 C   0  0  0  0  0  0  0  0  0  0  0  0
   -1.2852   -2.7288    1.6826 O   0  0  0  0  0  0  0  0  0  0  0  0
   -1.8202   -1.0288    0.3146 N   0  0  0  0  0  0  0  0  0  0  0  0
   -2.5542   -0.5788   -0.2104 H   0  0  0  0  0  0  0  0  0  0  0  0
   -0.5102   -0.3728    0.3086 C   0  0  1  0  0  0  0  0  0  0  0  0
    0.2354   -1.0844   -0.0490 H   0  0  0  0  0  0  0  0  0  0  0  0
   -0.5452    0.8158   -0.6698 C   0  0  0  0  0  0  0  0  0  0  0  0
   -0.2679    0.4668   -1.6661 H   0  0  0  0  0  0  0  0  0  0  0  0
   -1.5641    1.2039   -0.7218 H   0  0  0  0  0  0  0  0  0  0  0  0
    0.3766    1.9432   -0.2831 C   0  0  0  0  0  0  0  0  0  0  0  0
    1.6828    1.8205    0.1398 N   0  0  0  0  0  0  0  0  0  0  0  0
    2.1710    0.9561    0.3200 H   0  0  0  0  0  0  0  0  0  0  0  0
    2.1932    3.0559    0.2761 C   0  0  0  0  0  0  0  0  0  0  0  0
    3.2007    3.2846    0.6014 H   0  0  0  0  0  0  0  0  0  0  0  0
    1.2754    3.9766   -0.0529 N   0  0  0  0  0  0  0  0  0  0  0  0
    0.1155    3.2819   -0.4059 C   0  0  0  0  0  0  0  0  0  0  0  0
   -0.8121    3.7204   -0.7504 H   0  0  0  0  0  0  0  0  0  0  0  0
   -0.1073    0.0565    1.7296 C   0  0  0  0  0  0  0  0  0  0  0  0
    1.0285   -0.1699    2.1459 O   0  0  0  0  0  0  0  0  0  0  0  0
   -1.0395    0.6588    2.4785 N   0  0  0  0  0  0  0  0  0  0  0  0
   -1.9636    0.7597    2.0849 H   0  0  0  0  0  0  0  0  0  0  0  0
   -0.8222    1.1334    3.8425 C   0  0  0  0  0  0  0  0  0  0  0  0
   -0.0212    1.8761    3.8521 H   0  0  0  0  0  0  0  0  0  0  0  0
   -1.7349    1.5853    4.2320 H   0  0  0  0  0  0  0  0  0  0  0  0
   -0.5312    0.2997    4.4834 H   0  0  0  0  0  0  0  0  0  0  0  0
  5  6  2  0  0  0  0
  5  7  1  0  0  0  0
  2  3  1  0  0  0  0
  2  4  1  0  0  0  0
  2  5  1  0  0  0  0
  1  2  1  0  0  0  0
 22 23  2  0  0  0  0
 22 24  1  0  0  0  0
 20 21  1  0  0  0  0
 19 20  1  0  0  0  0
 17 18  1  0  0  0  0
 17 19  2  0  0  0  0
 15 16  1  0  0  0  0
 15 17  1  0  0  0  0
 14 15  1  0  0  0  0
 14 20  2  0  0  0  0
 11 12  1  0  0  0  0
 11 13  1  0  0  0  0
 11 14  1  0  0  0  0
  9 10  1  0  0  0  0
  9 11  1  0  0  0  0
  9 22  1  0  0  0  0
  7  8  1  0  0  0  0
  7  9  1  0  0  0  0
 26 27  1  0  0  0  0
 26 28  1  0  0  0  0
 26 29  1  0  0  0  0
 24 25  1  0  0  0  0
 24 26  1  0  0  0  0
M  END
$$$$
default_name
  -OEChem-02102213163D

 29 29  0     1  0  0  0  0  0999 V2000
   -3.6042   -3.5728    1.4576 H   0  0  0  0  0  0  0  0  0  0  0  0
   -3.5202   -2.6488    0.8866 C   0  0  0  0  0  0  0  0  0  0  0  0
   -4.2052   -1.9048    1.2896 H   0  0  0  0  0  0  0  0  0  0  0  0
   -3.7552   -2.8428   -0.1584 H   0  0  0  0  0  0  0  0  0  0  0  0
   -2.1052   -2.1358    0.9946 C   0  0  0  0  0  0  0  0  0  0  0  0
   -1.2852   -2.7288    1.6826 O   0  0  0  0  0  0  0  0  0  0  0  0
   -1.8202   -1.0288    0.3146 N   0  0  0  0  0  0  0  0  0  0  0  0
   -2.5542   -0.5788   -0.2104 H   0  0  0  0  0  0  0  0  0  0  0  0
   -0.5102   -0.3728    0.3086 C   0  0  1  0  0  0  0  0  0  0  0  0
    0.2354   -1.0844   -0.0490 H   0  0  0  0  0  0  0  0  0  0  0  0
   -0.5452    0.8158   -0.6698 C   0  0  0  0  0  0  0  0  0  0  0  0
   -0.2679    0.4668   -1.6661 H   0  0  0  0  0  0  0  0  0  0  0  0
   -1.5641    1.2039   -0.7218 H   0  0  0  0  0  0  0  0  0  0  0  0
    0.3766    1.9432   -0.2831 C   0  0  0  0  0  0  0  0  0  0  0  0
    1.7453    1.8653   -0.1399 N   0  0  0  0  0  0  0  0  0  0  0  0
    2.3030    1.0265   -0.1999 H   0  0  0  0  0  0  0  0  0  0  0  0
    2.2092    3.1034    0.0997 C   0  0  0  0  0  0  0  0  0  0  0  0
    3.2484    3.3619    0.2626 H   0  0  0  0  0  0  0  0  0  0  0  0
    1.1987    3.9849    0.1058 N   0  0  0  0  0  0  0  0  0  0  0  0
    0.0286    3.2591   -0.1322 C   0  0  0  0  0  0  0  0  0  0  0  0
   -0.9701    3.6672   -0.2187 H   0  0  0  0  0  0  0  0  0  0  0  0
   -0.1073    0.0565    1.7296 C   0  0  0  0  0  0  0  0  0  0  0  0
    1.0285   -0.1699    2.1459 O   0  0  0  0  0  0  0  0  0  0  0  0
   -1.0395    0.6588    2.4785 N   0  0  0  0  0  0  0  0  0  0  0  0
   -1.9636    0.7597    2.0849 H   0  0  0  0  0  0  0  0  0  0  0  0
   -0.8222    1.1334    3.8425 C   0  0  0  0  0  0  0  0  0  0  0  0
   -0.0212    1.8761    3.8521 H   0  0  0  0  0  0  0  0  0  0  0  0
   -1.7349    1.5853    4.2320 H   0  0  0  0  0  0  0  0  0  0  0  0
   -0.5312    0.2997    4.4834 H   0  0  0  0  0  0  0  0  0  0  0  0
  5  6  2  0  0  0  0
  5  7  1  0  0  0  0
  2  3  1  0  0  0  0
  2  4  1  0  0  0  0
  2  5  1  0  0  0  0
  1  2  1  0  0  0  0
 22 23  2  0  0  0  0
 22 24  1  0  0  0  0
 20 21  1  0  0  0  0
 19 20  1  0  0  0  0
 17 18  1  0  0  0  0
 17 19  2  0  0  0  0
 15 16  1  0  0  0  0
 15 17  1  0  0  0  0
 14 15  1  0  0  0  0
 14 20  2  0  0  0  0
 11 12  1  0  0  0  0
 11 13  1  0  0  0  0
 11 14  1  0  0  0  0
  9 10  1  0  0  0  0
  9 11  1  0  0  0  0
  9 22  1  0  0  0  0
  7  8  1  0  0  0  0
  7  9  1  0  0  0  0
 26 27  1  0  0  0  0
 26 28  1  0  0  0  0
 26 29  1  0  0  0  0
 24 25  1  0  0  0  0
 24 26  1  0  0  0  0
M  END
$$$$
default_name
  -OEChem-02102213163D

 29 29  0     1  0  0  0  0  0999 V2000
   -3.6042   -3.5728    1.4576 H   0  0  0  0  0  0  0  0  0  0  0  0
   -3.5202   -2.6488    0.8866 C   0  0  0  0  0  0  0  0  0  0  0  0
   -4.2052   -1.9048    1.2896 H   0  0  0  0  0  0  0  0  0  0  0  0
   -3.7552   -2.8428   -0.1584 H   0  0  0  0  0  0  0  0  0  0  0  0
   -2.1052   -2.1358    0.9946 C   0  0  0  0  0  0  0  0  0  0  0  0
   -1.2852   -2.7288    1.6826 O   0  0  0  0  0  0  0  0  0  0  0  0
   -1.8202   -1.0288    0.3146 N   0  0  0  0  0  0  0  0  0  0  0  0
   -2.5542   -0.5788   -0.2104 H   0  0  0  0  0  0  0  0  0  0  0  0
   -0.5102   -0.3728    0.3086 C   0  0  1  0  0  0  0  0  0  0  0  0
    0.2354   -1.0844   -0.0490 H   0  0  0  0  0  0  0  0  0  0  0  0
   -0.5452    0.8158   -0.6698 C   0  0  0  0  0  0  0  0  0  0  0  0
   -0.2679    0.4668   -1.6661 H   0  0  0  0  0  0  0  0  0  0  0  0
   -1.5641    1.2039   -0.7218 H   0  0  0  0  0  0  0  0  0  0  0  0
    0.3766    1.9432   -0.2831 C   0  0  0  0  0  0  0  0  0  0  0  0
    1.7486    1.9570   -0.4151 N   0  0  0  0  0  0  0  0  0  0  0  0
    2.3251    1.1856   -0.7164 H   0  0  0  0  0  0  0  0  0  0  0  0
    2.1874    3.1782   -0.0663 C   0  0  0  0  0  0  0  0  0  0  0  0
    3.2237    3.4933   -0.0617 H   0  0  0  0  0  0  0  0  0  0  0  0
    1.1548    3.9627    0.2752 N   0  0  0  0  0  0  0  0  0  0  0  0
   -0.0008    3.1879    0.1455 C   0  0  0  0  0  0  0  0  0  0  0  0
   -1.0162    3.5211    0.3171 H   0  0  0  0  0  0  0  0  0  0  0  0
   -0.1073    0.0565    1.7296 C   0  0  0  0  0  0  0  0  0  0  0  0
    1.0285   -0.1699    2.1459 O   0  0  0  0  0  0  0  0  0  0  0  0
   -1.0395    0.6588    2.4785 N   0  0  0  0  0  0  0  0  0  0  0  0
   -1.9636    0.7597    2.0849 H   0  0  0  0  0  0  0  0  0  0  0  0
   -0.8222    1.1334    3.8425 C   0  0  0  0  0  0  0  0  0  0  0  0
   -0.0212    1.8761    3.8521 H   0  0  0  0  0  0  0  0  0  0  0  0
   -1.7349    1.5853    4.2320 H   0  0  0  0  0  0  0  0  0  0  0  0
   -0.5312    0.2997    4.4834 H   0  0  0  0  0  0  0  0  0  0  0  0
  5  6  2  0  0  0  0
  5  7  1  0  0  0  0
  2  3  1  0  0  0  0
  2  4  1  0  0  0  0
  2  5  1  0  0  0  0
  1  2  1  0  0  0  0
 22 23  2  0  0  0  0
 22 24  1  0  0  0  0
 20 21  1  0  0  0  0
 19 20  1  0  0  0  0
 17 18  1  0  0  0  0
 17 19  2  0  0  0  0
 15 16  1  0  0  0  0
 15 17  1  0  0  0  0
 14 15  1  0  0  0  0
 14 20  2  0  0  0  0
 11 12  1  0  0  0  0
 11 13  1  0  0  0  0
 11 14  1  0  0  0  0
  9 10  1  0  0  0  0
  9 11  1  0  0  0  0
  9 22  1  0  0  0  0
  7  8  1  0  0  0  0
  7  9  1  0  0  0  0
 26 27  1  0  0  0  0
 26 28  1  0  0  0  0
 26 29  1  0  0  0  0
 24 25  1  0  0  0  0
 24 26  1  0  0  0  0
M  END
$$$$
default_name
  -OEChem-02102213163D

 29 29  0     1  0  0  0  0  0999 V2000
   -3.6042   -3.5728    1.4576 H   0  0  0  0  0  0  0  0  0  0  0  0
   -3.5202   -2.6488    0.8866 C   0  0  0  0  0  0  0  0  0  0  0  0
   -4.2052   -1.9048    1.2896 H   0  0  0  0  0  0  0  0  0  0  0  0
   -3.7552   -2.8428   -0.1584 H   0  0  0  0  0  0  0  0  0  0  0  0
   -2.1052   -2.1358    0.9946 C   0  0  0  0  0  0  0  0  0  0  0  0
   -1.2852   -2.7288    1.6826 O   0  0  0  0  0  0  0  0  0  0  0  0
   -1.8202   -1.0288    0.3146 N   0  0  0  0  0  0  0  0  0  0  0  0
   -2.5542   -0.5788   -0.2104 H   0  0  0  0  0  0  0  0  0  0  0  0
   -0.5102   -0.3728    0.3086 C   0  0  1  0  0  0  0  0  0  0  0  0
    0.2354   -1.0844   -0.0490 H   0  0  0  0  0  0  0  0  0  0  0  0
   -0.5452    0.8158   -0.6698 C   0  0  0  0  0  0  0  0  0  0  0  0
   -0.2679    0.4668   -1.6661 H   0  0  0  0  0  0  0  0  0  0  0  0
   -1.5641    1.2039   -0.7218 H   0  0  0  0  0  0  0  0  0  0  0  0
    0.3766    1.9432   -0.2831 C   0  0  0  0  0  0  0  0  0  0  0  0
    1.6924    2.0894   -0.6670 N   0  0  0  0  0  0  0  0  0  0  0  0
    2.2358    1.4226   -1.1945 H   0  0  0  0  0  0  0  0  0  0  0  0
    2.1291    3.2753   -0.2106 C   0  0  0  0  0  0  0  0  0  0  0  0
    3.1282    3.6700   -0.3493 H   0  0  0  0  0  0  0  0  0  0  0  0
    1.1467    3.9114    0.4439 N   0  0  0  0  0  0  0  0  0  0  0  0
    0.0293    3.0732    0.4082 C   0  0  0  0  0  0  0  0  0  0  0  0
   -0.9472    3.2921    0.8204 H   0  0  0  0  0  0  0  0  0  0  0  0
   -0.1073    0.0565    1.7296 C   0  0  0  0  0  0  0  0  0  0  0  0
    1.0285   -0.1699    2.1459 O   0  0  0  0  0  0  0  0  0  0  0  0
   -1.0395    0.6588    2.4785 N   0  0  0  0  0  0  0  0  0  0  0  0
   -1.9636    0.7597    2.0849 H   0  0  0  0  0  0  0  0  0  0  0  0
   -0.8222    1.1334    3.8425 C   0  0  0  0  0  0  0  0  0  0  0  0
   -0.0212    1.8761    3.8521 H   0  0  0  0  0  0  0  0  0  0  0  0
   -1.7349    1.5853    4.2320 H   0  0  0  0  0  0  0  0  0  0  0  0
   -0.5312    0.2997    4.4834 H   0  0  0  0  0  0  0  0  0  0  0  0
  5  6  2  0  0  0  0
  5  7  1  0  0  0  0
  2  3  1  0  0  0  0
  2  4  1  0  0  0  0
  2  5  1  0  0  0  0
  1  2  1  0  0  0  0
 22 23  2  0  0  0  0
 22 24  1  0  0  0  0
 20 21  1  0  0  0  0
 19 20  1  0  0  0  0
 17 18  1  0  0  0  0
 17 19  2  0  0  0  0
 15 16  1  0  0  0  0
 15 17  1  0  0  0  0
 14 15  1  0  0  0  0
 14 20  2  0  0  0  0
 11 12  1  0  0  0  0
 11 13  1  0  0  0  0
 11 14  1  0  0  0  0
  9 10  1  0  0  0  0
  9 11  1  0  0  0  0
  9 22  1  0  0  0  0
  7  8  1  0  0  0  0
  7  9  1  0  0  0  0
 26 27  1  0  0  0  0
 26 28  1  0  0  0  0
 26 29  1  0  0  0  0
 24 25  1  0  0  0  0
 24 26  1  0  0  0  0
M  END
$$$$
default_name
  -OEChem-02102213163D

 29 29  0     1  0  0  0  0  0999 V2000
   -3.6042   -3.5728    1.4576 H   0  0  0  0  0  0  0  0  0  0  0  0
   -3.5202   -2.6488    0.8866 C   0  0  0  0  0  0  0  0  0  0  0  0
   -4.2052   -1.9048    1.2896 H   0  0  0  0  0  0  0  0  0  0  0  0
   -3.7552   -2.8428   -0.1584 H   0  0  0  0  0  0  0  0  0  0  0  0
   -2.1052   -2.1358    0.9946 C   0  0  0  0  0  0  0  0  0  0  0  0
   -1.2852   -2.7288    1.6826 O   0  0  0  0  0  0  0  0  0  0  0  0
   -1.8202   -1.0288    0.3146 N   0  0  0  0  0  0  0  0  0  0  0  0
   -2.5542   -0.5788   -0.2104 H   0  0  0  0  0  0  0  0  0  0  0  0
   -0.5102   -0.3728    0.3086 C   0  0  1  0  0  0  0  0  0  0  0  0
    0.2354   -1.0844   -0.0490 H   0  0  0  0  0  0  0  0  0  0  0  0
   -0.5452    0.8158   -0.6698 C   0  0  0  0  0  0  0  0  0  0  0  0
   -0.2679    0.4668   -1.6661 H   0  0  0  0  0  0  0  0  0  0  0  0
   -1.5641    1.2039   -0.7218 H   0  0  0  0  0  0  0  0  0  0  0  0
    0.3766    1.9432   -0.2831 C   0  0  0  0  0  0  0  0  0  0  0  0
    1.5805    2.2534   -0.8784 N   0  0  0  0  0  0  0  0  0  0  0  0
    2.0412    1.7212   -1.6014 H   0  0  0  0  0  0  0  0  0  0  0  0
    2.0385    3.3880   -0.3233 C   0  0  0  0  0  0  0  0  0  0  0  0
    2.9686    3.8798   -0.5807 H   0  0  0  0  0  0  0  0  0  0  0  0
    1.1749    3.8347    0.6002 N   0  0  0  0  0  0  0  0  0  0  0  0
    0.1168    2.9228    0.6379 C   0  0  0  0  0  0  0  0  0  0  0  0
   -0.7680    2.9958    1.2570 H   0  0  0  0  0  0  0  0  0  0  0  0
   -0.1073    0.0565    1.7296 C   0  0  0  0  0  0  0  0  0  0  0  0
    1.0285   -0.1699    2.1459 O   0  0  0  0  0  0  0  0  0  0  0  0
   -1.0395    0.6588    2.4785 N   0  0  0  0  0  0  0  0  0  0  0  0
   -1.9636    0.7597    2.0849 H   0  0  0  0  0  0  0  0  0  0  0  0
   -0.8222    1.1334    3.8425 C   0  0  0  0  0  0  0  0  0  0  0  0
   -0.0212    1.8761    3.8521 H   0  0  0  0  0  0  0  0  0  0  0  0
   -1.7349    1.5853    4.2320 H   0  0  0  0  0  0  0  0  0  0  0  0
   -0.5312    0.2997    4.4834 H   0  0  0  0  0  0  0  0  0  0  0  0
  5  6  2  0  0  0  0
  5  7  1  0  0  0  0
  2  3  1  0  0  0  0
  2  4  1  0  0  0  0
  2  5  1  0  0  0  0
  1  2  1  0  0  0  0
 22 23  2  0  0  0  0
 22 24  1  0  0  0  0
 20 21  1  0  0  0  0
 19 20  1  0  0  0  0
 17 18  1  0  0  0  0
 17 19  2  0  0  0  0
 15 16  1  0  0  0  0
 15 17  1  0  0  0  0
 14 15  1  0  0  0  0
 14 20  2  0  0  0  0
 11 12  1  0  0  0  0
 11 13  1  0  0  0  0
 11 14  1  0  0  0  0
  9 10  1  0  0  0  0
  9 11  1  0  0  0  0
  9 22  1  0  0  0  0
  7  8  1  0  0  0  0
  7  9  1  0  0  0  0
 26 27  1  0  0  0  0
 26 28  1  0  0  0  0
 26 29  1  0  0  0  0
 24 25  1  0  0  0  0
 24 26  1  0  0  0  0
M  END
$$$$
default_name
  -OEChem-02102213163D

 29 29  0     1  0  0  0  0  0999 V2000
   -3.6042   -3.5728    1.4576 H   0  0  0  0  0  0  0  0  0  0  0  0
   -3.5202   -2.6488    0.8866 C   0  0  0  0  0  0  0  0  0  0  0  0
   -4.2052   -1.9048    1.2896 H   0  0  0  0  0  0  0  0  0  0  0  0
   -3.7552   -2.8428   -0.1584 H   0  0  0  0  0  0  0  0  0  0  0  0
   -2.1052   -2.1358    0.9946 C   0  0  0  0  0  0  0  0  0  0  0  0
   -1.2852   -2.7288    1.6826 O   0  0  0  0  0  0  0  0  0  0  0  0
   -1.8202   -1.0288    0.3146 N   0  0  0  0  0  0  0  0  0  0  0  0
   -2.5542   -0.5788   -0.2104 H   0  0  0  0  0  0  0  0  0  0  0  0
   -0.5102   -0.3728    0.3086 C   0  0  1  0  0  0  0  0  0  0  0  0
    0.2354   -1.0844   -0.0490 H   0  0  0  0  0  0  0  0  0  0  0  0
   -0.5452    0.8158   -0.6698 C   0  0  0  0  0  0  0  0  0  0  0  0
   -0.2679    0.4668   -1.6661 H   0  0  0  0  0  0  0  0  0  0  0  0
   -1.5641    1.2039   -0.7218 H   0  0  0  0  0  0  0  0  0  0  0  0
    0.3766    1.9432   -0.2831 C   0  0  0  0  0  0  0  0  0  0  0  0
    1.4206    2.4378   -1.0351 N   0  0  0  0  0  0  0  0  0  0  0  0
    1.7547    2.0612   -1.9095 H   0  0  0  0  0  0  0  0  0  0  0  0
    1.9216    3.5088   -0.3968 C   0  0  0  0  0  0  0  0  0  0  0  0
    2.7557    4.1085   -0.7400 H   0  0  0  0  0  0  0  0  0  0  0  0
    1.2375    3.7378    0.7336 N   0  0  0  0  0  0  0  0  0  0  0  0
    0.2558    2.7470    0.8190 C   0  0  0  0  0  0  0  0  0  0  0  0
   -0.4905    2.6524    1.5970 H   0  0  0  0  0  0  0  0  0  0  0  0
   -0.1073    0.0565    1.7296 C   0  0  0  0  0  0  0  0  0  0  0  0
    1.0285   -0.1699    2.1459 O   0  0  0  0  0  0  0  0  0  0  0  0
   -1.0395    0.6588    2.4785 N   0  0  0  0  0  0  0  0  0  0  0  0
   -1.9636    0.7597    2.0849 H   0  0  0  0  0  0  0  0  0  0  0  0
   -0.8222    1.1334    3.8425 C   0  0  0  0  0  0  0  0  0  0  0  0
   -0.0212    1.8761    3.8521 H   0  0  0  0  0  0  0  0  0  0  0  0
   -1.7349    1.5853    4.2320 H   0  0  0  0  0  0  0  0  0  0  0  0
   -0.5312    0.2997    4.4834 H   0  0  0  0  0  0  0  0  0  0  0  0
  5  6  2  0  0  0  0
  5  7  1  0  0  0  0
  2  3  1  0  0  0  0
  2  4  1  0  0  0  0
  2  5  1  0  0  0  0
  1  2  1  0  0  0  0
 22 23  2  0  0  0  0
 22 24  1  0  0  0  0
 20 21  1  0  0  0  0
 19 20  1  0  0  0  0
 17 18  1  0  0  0  0
 17 19  2  0  0  0  0
 15 16  1  0  0  0  0
 15 17  1  0  0  0  0
 14 15  1  0  0  0  0
 14 20  2  0  0  0  0
 11 12  1  0  0  0  0
 11 13  1  0  0  0  0
 11 14  1  0  0  0  0
  9 10  1  0  0  0  0
  9 11  1  0  0  0  0
  9 22  1  0  0  0  0
  7  8  1  0  0  0  0
  7  9  1  0  0  0  0
 26 27  1  0  0  0  0
 26 28  1  0  0  0  0
 26 29  1  0  0  0  0
 24 25  1  0  0  0  0
 24 26  1  0  0  0  0
M  END
$$$$
default_name
  -OEChem-02102213163D

 29 29  0     1  0  0  0  0  0999 V2000
   -3.6042   -3.5728    1.4576 H   0  0  0  0  0  0  0  0  0  0  0  0
   -3.5202   -2.6488    0.8866 C   0  0  0  0  0  0  0  0  0  0  0  0
   -4.2052   -1.9048    1.2896 H   0  0  0  0  0  0  0  0  0  0  0  0
   -3.7552   -2.8428   -0.1584 H   0  0  0  0  0  0  0  0  0  0  0  0
   -2.1052   -2.1358    0.9946 C   0  0  0  0  0  0  0  0  0  0  0  0
   -1.2852   -2.7288    1.6826 O   0  0  0  0  0  0  0  0  0  0  0  0
   -1.8202   -1.0288    0.3146 N   0  0  0  0  0  0  0  0  0  0  0  0
   -2.5542   -0.5788   -0.2104 H   0  0  0  0  0  0  0  0  0  0  0  0
   -0.5102   -0.3728    0.3086 C   0  0  1  0  0  0  0  0  0  0  0  0
    0.2354   -1.0844   -0.0490 H   0  0  0  0  0  0  0  0  0  0  0  0
   -0.5452    0.8158   -0.6698 C   0  0  0  0  0  0  0  0  0  0  0  0
   -0.2679    0.4668   -1.6661 H   0  0  0  0  0  0  0  0  0  0  0  0
   -1.5641    1.2039   -0.7218 H   0  0  0  0  0  0  0  0  0  0  0  0
    0.3766    1.9432   -0.2831 C   0  0  0  0  0  0  0  0  0  0  0  0
    1.2236    2.6302   -1.1262 N   0  0  0  0  0  0  0  0  0  0  0  0
    1.3956    2.4193   -2.0978 H   0  0  0  0  0  0  0  0  0  0  0  0
    1.7865    3.6293   -0.4260 C   0  0  0  0  0  0  0  0  0  0  0  0
    2.5040    4.3405   -0.8165 H   0  0  0  0  0  0  0  0  0  0  0  0
    1.3303    3.6271    0.8350 N   0  0  0  0  0  0  0  0  0  0  0  0
    0.4369    2.5578    0.9392 C   0  0  0  0  0  0  0  0  0  0  0  0
   -0.1339    2.2852    1.8174 H   0  0  0  0  0  0  0  0  0  0  0  0
   -0.1073    0.0565    1.7296 C   0  0  0  0  0  0  0  0  0  0  0  0
    1.0285   -0.1699    2.1459 O   0  0  0  0  0  0  0  0  0  0  0  0
   -1.0395    0.6588    2.4785 N   0  0  0  0  0  0  0  0  0  0  0  0
   -1.9636    0.7597    2.0849 H   0  0  0  0  0  0  0  0  0  0  0  0
   -0.8222    1.1334    3.8425 C   0  0  0  0  0  0  0  0  0  0  0  0
   -0.0212    1.8761    3.8521 H   0  0  0  0  0  0  0  0  0  0  0  0
   -1.7349    1.5853    4.2320 H   0  0  0  0  0  0  0  0  0  0  0  0
   -0.5312    0.2997    4.4834 H   0  0  0  0  0  0  0  0  0  0  0  0
  5  6  2  0  0  0  0
  5  7  1  0  0  0  0
  2  3  1  0  0  0  0
  2  4  1  0  0  0  0
  2  5  1  0  0  0  0
  1  2  1  0  0  0  0
 22 23  2  0  0  0  0
 22 24  1  0  0  0  0
 20 21  1  0  0  0  0
 19 20  1  0  0  0  0
 17 18  1  0  0  0  0
 17 19  2  0  0  0  0
 15 16  1  0  0  0  0
 15 17  1  0  0  0  0
 14 15  1  0  0  0  0
 14 20  2  0  0  0  0
 11 12  1  0  0  0  0
 11 13  1  0  0  0  0
 11 14  1  0  0  0  0
  9 10  1  0  0  0  0
  9 11  1  0  0  0  0
  9 22  1  0  0  0  0
  7  8  1  0  0  0  0
  7  9  1  0  0  0  0
 26 27  1  0  0  0  0
 26 28  1  0  0  0  0
 26 29  1  0  0  0  0
 24 25  1  0  0  0  0
 24 26  1  0  0  0  0
M  END
$$$$
default_name
  -OEChem-02102213163D

 29 29  0     1  0  0  0  0  0999 V2000
   -3.6042   -3.5728    1.4576 H   0  0  0  0  0  0  0  0  0  0  0  0
   -3.5202   -2.6488    0.8866 C   0  0  0  0  0  0  0  0  0  0  0  0
   -4.2052   -1.9048    1.2896 H   0  0  0  0  0  0  0  0  0  0  0  0
   -3.7552   -2.8428   -0.1584 H   0  0  0  0  0  0  0  0  0  0  0  0
   -2.1052   -2.1358    0.9946 C   0  0  0  0  0  0  0  0  0  0  0  0
   -1.2852   -2.7288    1.6826 O   0  0  0  0  0  0  0  0  0  0  0  0
   -1.8202   -1.0288    0.3146 N   0  0  0  0  0  0  0  0  0  0  0  0
   -2.5542   -0.5788   -0.2104 H   0  0  0  0  0  0  0  0  0  0  0  0
   -0.5102   -0.3728    0.3086 C   0  0  1  0  0  0  0  0  0  0  0  0
    0.2354   -1.0844   -0.0490 H   0  0  0  0  0  0  0  0  0  0  0  0
   -0.5452    0.8158   -0.6698 C   0  0  0  0  0  0  0  0  0  0  0  0
   -0.2679    0.4668   -1.6661 H   0  0  0  0  0  0  0  0  0  0  0  0
   -1.5641    1.2039   -0.7218 H   0  0  0  0  0  0  0  0  0  0  0  0
    0.3766    1.9432   -0.2831 C   0  0  0  0  0  0  0  0  0  0  0  0
    1.0028    2.8173   -1.1456 N   0  0  0  0  0  0  0  0  0  0  0  0
    0.9885    2.7712   -2.1535 H   0  0  0  0  0  0  0  0  0  0  0  0
    1.6423    3.7413   -0.4090 C   0  0  0  0  0  0  0  0  0  0  0  0
    2.2307    4.5601   -0.8049 H   0  0  0  0  0  0  0  0  0  0  0  0
    1.4469    3.5104    0.8975 N   0  0  0  0  0  0  0  0  0  0  0  0
    0.6476    2.3680    0.9902 C   0  0  0  0  0  0  0  0  0  0  0  0
    0.2776    1.9194    1.9031 H   0  0  0  0  0  0  0  0  0  0  0  0
   -0.1073    0.0565    1.7296 C   0  0  0  0  0  0  0  0  0  0  0  0
    1.0285   -0.1699    2.1459 O   0  0  0  0  0  0  0  0  0  0  0  0
   -1.0395    0.6588    2.4785 N   0  0  0  0  0  0  0  0  0  0  0  0
   -1.9636    0.7597    2.0849 H   0  0  0  0  0  0  0  0  0  0  0  0
   -0.8222    1.1334    3.8425 C   0  0  0  0  0  0  0  0  0  0  0  0
   -0.0212    1.8761    3.8521 H   0  0  0  0  0  0  0  0  0  0  0  0
   -1.7349    1.5853    4.2320 H   0  0  0  0  0  0  0  0  0  0  0  0
   -0.5312    0.2997    4.4834 H   0  0  0  0  0  0  0  0  0  0  0  0
  5  6  2  0  0  0  0
  5  7  1  0  0  0  0
  2  3  1  0  0  0  0
  2  4  1  0  0  0  0
  2  5  1  0  0  0  0
  1  2  1  0  0  0  0
 22 23  2  0  0  0  0
 22 24  1  0  0  0  0
 20 21  1  0  0  0  0
 19 20  1  0  0  0  0
 17 18  1  0  0  0  0
 17 19  2  0  0  0  0
 15 16  1  0  0  0  0
 15 17  1  0  0  0  0
 14 15  1  0  0  0  0
 14 20  2  0  0  0  0
 11 12  1  0  0  0  0
 11 13  1  0  0  0  0
 11 14  1  0  0  0  0
  9 10  1  0  0  0  0
  9 11  1  0  0  0  0
  9 22  1  0  0  0  0
  7  8  1  0  0  0  0
  7  9  1  0  0  0  0
 26 27  1  0  0  0  0
 26 28  1  0  0  0  0
 26 29  1  0  0  0  0
 24 25  1  0  0  0  0
 24 26  1  0  0  0  0
M  END
$$$$
default_name
  -OEChem-02102213163D

 29 29  0     1  0  0  0  0  0999 V2000
   -3.6042   -3.5728    1.4576 H   0  0  0  0  0  0  0  0  0  0  0  0
   -3.5202   -2.6488    0.8866 C   0  0  0  0  0  0  0  0  0  0  0  0
   -4.2052   -1.9048    1.2896 H   0  0  0  0  0  0  0  0  0  0  0  0
   -3.7552   -2.8428   -0.1584 H   0  0  0  0  0  0  0  0  0  0  0  0
   -2.1052   -2.1358    0.9946 C   0  0  0  0  0  0  0  0  0  0  0  0
   -1.2852   -2.7288    1.6826 O   0  0  0  0  0  0  0  0  0  0  0  0
   -1.8202   -1.0288    0.3146 N   0  0  0  0  0  0  0  0  0  0  0  0
   -2.5542   -0.5788   -0.2104 H   0  0  0  0  0  0  0  0  0  0  0  0
   -0.5102   -0.3728    0.3086 C   0  0  1  0  0  0  0  0  0  0  0  0
    0.2354   -1.0844   -0.0490 H   0  0  0  0  0  0  0  0  0  0  0  0
   -0.5452    0.8158   -0.6698 C   0  0  0  0  0  0  0  0  0  0  0  0
   -0.2679    0.4668   -1.6661 H   0  0  0  0  0  0  0  0  0  0  0  0
   -1.5641    1.2039   -0.7218 H   0  0  0  0  0  0  0  0  0  0  0  0
    0.3766    1.9432   -0.2831 C   0  0  0  0  0  0  0  0  0  0  0  0
    0.7734    2.9865   -1.0920 N   0  0  0  0  0  0  0  0  0  0  0  0
    0.5612    3.0929   -2.0727 H   0  0  0  0  0  0  0  0  0  0  0  0
    1.4989    3.8373   -0.3468 C   0  0  0  0  0  0  0  0  0  0  0  0
    1.9543    4.7521   -0.7059 H   0  0  0  0  0  0  0  0  0  0  0  0
    1.5794    3.3955    0.9167 N   0  0  0  0  0  0  0  0  0  0  0  0
    0.8737    2.1906    0.9687 C   0  0  0  0  0  0  0  0  0  0  0  0
    0.7160    1.5798    1.8482 H   0  0  0  0  0  0  0  0  0  0  0  0
   -0.1073    0.0565    1.7296 C   0  0  0  0  0  0  0  0  0  0  0  0
    1.0285   -0.1699    2.1459 O   0  0  0  0  0  0  0  0  0  0  0  0
   -1.0395    0.6588    2.4785 N   0  0  0  0  0  0  0  0  0  0  0  0
   -1.9636    0.7597    2.0849 H   0  0  0  0  0  0  0  0  0  0  0  0
   -0.8222    1.1334    3.8425 C   0  0  0  0  0  0  0  0  0  0  0  0
   -0.0212    1.8761    3.8521 H   0  0  0  0  0  0  0  0  0  0  0  0
   -1.7349    1.5853    4.2320 H   0  0  0  0  0  0  0  0  0  0  0  0
   -0.5312    0.2997    4.4834 H   0  0  0  0  0  0  0  0  0  0  0  0
  5  6  2  0  0  0  0
  5  7  1  0  0  0  0
  2  3  1  0  0  0  0
  2  4  1  0  0  0  0
  2  5  1  0  0  0  0
  1  2  1  0  0  0  0
 22 23  2  0  0  0  0
 22 24  1  0  0  0  0
 20 21  1  0  0  0  0
 19 20  1  0  0  0  0
 17 18  1  0  0  0  0
 17 19  2  0  0  0  0
 15 16  1  0  0  0  0
 15 17  1  0  0  0  0
 14 15  1  0  0  0  0
 14 20  2  0  0  0  0
 11 12  1  0  0  0  0
 11 13  1  0  0  0  0
 11 14  1  0  0  0  0
  9 10  1  0  0  0  0
  9 11  1  0  0  0  0
  9 22  1  0  0  0  0
  7  8  1  0  0  0  0
  7  9  1  0  0  0  0
 26 27  1  0  0  0  0
 26 28  1  0  0  0  0
 26 29  1  0  0  0  0
 24 25  1  0  0  0  0
 24 26  1  0  0  0  0
M  END
$$$$
default_name
  -OEChem-02102213163D

 29 29  0     1  0  0  0  0  0999 V2000
   -3.6042   -3.5728    1.4576 H   0  0  0  0  0  0  0  0  0  0  0  0
   -3.5202   -2.6488    0.8866 C   0  0  0  0  0  0  0  0  0  0  0  0
   -4.2052   -1.9048    1.2896 H   0  0  0  0  0  0  0  0  0  0  0  0
   -3.7552   -2.8428   -0.1584 H   0  0  0  0  0  0  0  0  0  0  0  0
   -2.1052   -2.1358    0.9946 C   0  0  0  0  0  0  0  0  0  0  0  0
   -1.2852   -2.7288    1.6826 O   0  0  0  0  0  0  0  0  0  0  0  0
   -1.8202   -1.0288    0.3146 N   0  0  0  0  0  0  0  0  0  0  0  0
   -2.5542   -0.5788   -0.2104 H   0  0  0  0  0  0  0  0  0  0  0  0
   -0.5102   -0.3728    0.3086 C   0  0  1  0  0  0  0  0  0  0  0  0
    0.2354   -1.0844   -0.0490 H   0  0  0  0  0  0  0  0  0  0  0  0
   -0.5452    0.8158   -0.6698 C   0  0  0  0  0  0  0  0  0  0  0  0
   -0.5340    0.4366   -1.6932 H   0  0  0  0  0  0  0  0  0  0  0  0
   -1.4762    1.3673   -0.5264 H   0  0  0  0  0  0  0  0  0  0  0  0
    0.6073    1.7714   -0.5001 C   0  0  0  0  0  0  0  0  0  0  0  0
    0.8322    2.9167   -1.2335 N   0  0  0  0  0  0  0  0  0  0  0  0
    0.2980    3.2268   -2.0313 H   0  0  0  0  0  0  0  0  0  0  0  0
    1.8933    3.5479   -0.7033 C   0  0  0  0  0  0  0  0  0  0  0  0
    2.3160    4.4762   -1.0679 H   0  0  0  0  0  0  0  0  0  0  0  0
    2.3597    2.8656    0.3527 N   0  0  0  0  0  0  0  0  0  0  0  0
    1.5534    1.7326    0.4892 C   0  0  0  0  0  0  0  0  0  0  0  0
    1.6371    0.9778    1.2604 H   0  0  0  0  0  0  0  0  0  0  0  0
   -0.1073    0.0565    1.7296 C   0  0  0  0  0  0  0  0  0  0  0  0
    1.0285   -0.1699    2.1459 O   0  0  0  0  0  0  0  0  0  0  0  0
   -1.0395    0.6588    2.4785 N   0  0  0  0  0  0  0  0  0  0  0  0
   -1.9636    0.7597    2.0849 H   0  0  0  0  0  0  0  0  0  0  0  0
   -0.8222    1.1334    3.8425 C   0  0  0  0  0  0  0  0  0  0  0  0
   -0.0212    1.8761    3.8521 H   0  0  0  0  0  0  0  0  0  0  0  0
   -1.7349    1.5853    4.2320 H   0  0  0  0  0  0  0  0  0  0  0  0
   -0.5312    0.2997    4.4834 H   0  0  0  0  0  0  0  0  0  0  0  0
  5  6  2  0  0  0  0
  5  7  1  0  0  0  0
  2  3  1  0  0  0  0
  2  4  1  0  0  0  0
  2  5  1  0  0  0  0
  1  2  1  0  0  0  0
 22 23  2  0  0  0  0
 22 24  1  0  0  0  0
 20 21  1  0  0  0  0
 19 20  1  0  0  0  0
 17 18  1  0  0  0  0
 17 19  2  0  0  0  0
 15 16  1  0  0  0  0
 15 17  1  0  0  0  0
 14 15  1  0  0  0  0
 14 20  2  0  0  0  0
 11 12  1  0  0  0  0
 11 13  1  0  0  0  0
 11 14  1  0  0  0  0
  9 10  1  0  0  0  0
  9 11  1  0  0  0  0
  9 22  1  0  0  0  0
  7  8  1  0  0  0  0
  7  9  1  0  0  0  0
 26 27  1  0  0  0  0
 26 28  1  0  0  0  0
 26 29  1  0  0  0  0
 24 25  1  0  0  0  0
 24 26  1  0  0  0  0
M  END
$$$$
default_name
  -OEChem-02102213163D

 29 29  0     1  0  0  0  0  0999 V2000
   -3.6042   -3.5728    1.4576 H   0  0  0  0  0  0  0  0  0  0  0  0
   -3.5202   -2.6488    0.8866 C   0  0  0  0  0  0  0  0  0  0  0  0
   -4.2052   -1.9048    1.2896 H   0  0  0  0  0  0  0  0  0  0  0  0
   -3.7552   -2.8428   -0.1584 H   0  0  0  0  0  0  0  0  0  0  0  0
   -2.1052   -2.1358    0.9946 C   0  0  0  0  0  0  0  0  0  0  0  0
   -1.2852   -2.7288    1.6826 O   0  0  0  0  0  0  0  0  0  0  0  0
   -1.8202   -1.0288    0.3146 N   0  0  0  0  0  0  0  0  0  0  0  0
   -2.5542   -0.5788   -0.2104 H   0  0  0  0  0  0  0  0  0  0  0  0
   -0.5102   -0.3728    0.3086 C   0  0  1  0  0  0  0  0  0  0  0  0
    0.2354   -1.0844   -0.0490 H   0  0  0  0  0  0  0  0  0  0  0  0
   -0.5452    0.8158   -0.6698 C   0  0  0  0  0  0  0  0  0  0  0  0
   -0.5340    0.4366   -1.6932 H   0  0  0  0  0  0  0  0  0  0  0  0
   -1.4762    1.3673   -0.5264 H   0  0  0  0  0  0  0  0  0  0  0  0
    0.6073    1.7714   -0.5001 C   0  0  0  0  0  0  0  0  0  0  0  0
    0.6921    3.0470   -1.0155 N   0  0  0  0  0  0  0  0  0  0  0  0
    0.0282    3.4824   -1.6383 H   0  0  0  0  0  0  0  0  0  0  0  0
    1.8188    3.6102   -0.5477 C   0  0  0  0  0  0  0  0  0  0  0  0
    2.1628    4.6101   -0.7822 H   0  0  0  0  0  0  0  0  0  0  0  0
    2.4636    2.7565    0.2608 N   0  0  0  0  0  0  0  0  0  0  0  0
    1.7058    1.5831    0.2957 C   0  0  0  0  0  0  0  0  0  0  0  0
    1.9267    0.6967    0.8761 H   0  0  0  0  0  0  0  0  0  0  0  0
   -0.1073    0.0565    1.7296 C   0  0  0  0  0  0  0  0  0  0  0  0
    1.0285   -0.1699    2.1459 O   0  0  0  0  0  0  0  0  0  0  0  0
   -1.0395    0.6588    2.4785 N   0  0  0  0  0  0  0  0  0  0  0  0
   -1.9636    0.7597    2.0849 H   0  0  0  0  0  0  0  0  0  0  0  0
   -0.8222    1.1334    3.8425 C   0  0  0  0  0  0  0  0  0  0  0  0
   -0.0212    1.8761    3.8521 H   0  0  0  0  0  0  0  0  0  0  0  0
   -1.7349    1.5853    4.2320 H   0  0  0  0  0  0  0  0  0  0  0  0
   -0.5312    0.2997    4.4834 H   0  0  0  0  0  0  0  0  0  0  0  0
  5  6  2  0  0  0  0
  5  7  1  0  0  0  0
  2  3  1  0  0  0  0
  2  4  1  0  0  0  0
  2  5  1  0  0  0  0
  1  2  1  0  0  0  0
 22 23  2  0  0  0  0
 22 24  1  0  0  0  0
 20 21  1  0  0  0  0
 19 20  1  0  0  0  0
 17 18  1  0  0  0  0
 17 19  2  0  0  0  0
 15 16  1  0  0  0  0
 15 17  1  0  0  0  0
 14 15  1  0  0  0  0
 14 20  2  0  0  0  0
 11 12  1  0  0  0  0
 11 13  1  0  0  0  0
 11 14  1  0  0  0  0
  9 10  1  0  0  0  0
  9 11  1  0  0  0  0
  9 22  1  0  0  0  0
  7  8  1  0  0  0  0
  7  9  1  0  0  0  0
 26 27  1  0  0  0  0
 26 28  1  0  0  0  0
 26 29  1  0  0  0  0
 24 25  1  0  0  0  0
 24 26  1  0  0  0  0
M  END
$$$$
default_name
  -OEChem-02102213163D

 29 29  0     1  0  0  0  0  0999 V2000
   -3.6042   -3.5728    1.4576 H   0  0  0  0  0  0  0  0  0  0  0  0
   -3.5202   -2.6488    0.8866 C   0  0  0  0  0  0  0  0  0  0  0  0
   -4.2052   -1.9048    1.2896 H   0  0  0  0  0  0  0  0  0  0  0  0
   -3.7552   -2.8428   -0.1584 H   0  0  0  0  0  0  0  0  0  0  0  0
   -2.1052   -2.1358    0.9946 C   0  0  0  0  0  0  0  0  0  0  0  0
   -1.2852   -2.7288    1.6826 O   0  0  0  0  0  0  0  0  0  0  0  0
   -1.8202   -1.0288    0.3146 N   0  0  0  0  0  0  0  0  0  0  0  0
   -2.5542   -0.5788   -0.2104 H   0  0  0  0  0  0  0  0  0  0  0  0
   -0.5102   -0.3728    0.3086 C   0  0  1  0  0  0  0  0  0  0  0  0
    0.2354   -1.0844   -0.0490 H   0  0  0  0  0  0  0  0  0  0  0  0
   -0.5452    0.8158   -0.6698 C   0  0  0  0  0  0  0  0  0  0  0  0
   -0.5340    0.4366   -1.6932 H   0  0  0  0  0  0  0  0  0  0  0  0
   -1.4762    1.3673   -0.5264 H   0  0  0  0  0  0  0  0  0  0  0  0
    0.6073    1.7714   -0.5001 C   0  0  0  0  0  0  0  0  0  0  0  0
    0.5887    3.1257   -0.7562 N   0  0  0  0  0  0  0  0  0  0  0  0
   -0.1754    3.6436   -1.1637 H   0  0  0  0  0  0  0  0  0  0  0  0
    1.7705    3.6374   -0.3729 C   0  0  0  0  0  0  0  0  0  0  0  0
    2.0579    4.6785   -0.4545 H   0  0  0  0  0  0  0  0  0  0  0  0
    2.5521    2.6725    0.1334 N   0  0  0  0  0  0  0  0  0  0  0  0
    1.8256    1.4815    0.0541 C   0  0  0  0  0  0  0  0  0  0  0  0
    2.1516    0.5098    0.4018 H   0  0  0  0  0  0  0  0  0  0  0  0
   -0.1073    0.0565    1.7296 C   0  0  0  0  0  0  0  0  0  0  0  0
    1.0285   -0.1699    2.1459 O   0  0  0  0  0  0  0  0  0  0  0  0
   -1.0395    0.6588    2.4785 N   0  0  0  0  0  0  0  0  0  0  0  0
   -1.9636    0.7597    2.0849 H   0  0  0  0  0  0  0  0  0  0  0  0
   -0.8222    1.1334    3.8425 C   0  0  0  0  0  0  0  0  0  0  0  0
   -0.0212    1.8761    3.8521 H   0  0  0  0  0  0  0  0  0  0  0  0
   -1.7349    1.5853    4.2320 H   0  0  0  0  0  0  0  0  0  0  0  0
   -0.5312    0.2997    4.4834 H   0  0  0  0  0  0  0  0  0  0  0  0
  5  6  2  0  0  0  0
  5  7  1  0  0  0  0
  2  3  1  0  0  0  0
  2  4  1  0  0  0  0
  2  5  1  0  0  0  0
  1  2  1  0  0  0  0
 22 23  2  0  0  0  0
 22 24  1  0  0  0  0
 20 21  1  0  0  0  0
 19 20  1  0  0  0  0
 17 18  1  0  0  0  0
 17 19  2  0  0  0  0
 15 16  1  0  0  0  0
 15 17  1  0  0  0  0
 14 15  1  0  0  0  0
 14 20  2  0  0  0  0
 11 12  1  0  0  0  0
 11 13  1  0  0  0  0
 11 14  1  0  0  0  0
  9 10  1  0  0  0  0
  9 11  1  0  0  0  0
  9 22  1  0  0  0  0
  7  8  1  0  0  0  0
  7  9  1  0  0  0  0
 26 27  1  0  0  0  0
 26 28  1  0  0  0  0
 26 29  1  0  0  0  0
 24 25  1  0  0  0  0
 24 26  1  0  0  0  0
M  END
$$$$
default_name
  -OEChem-02102213163D

 29 29  0     1  0  0  0  0  0999 V2000
   -3.6042   -3.5728    1.4576 H   0  0  0  0  0  0  0  0  0  0  0  0
   -3.5202   -2.6488    0.8866 C   0  0  0  0  0  0  0  0  0  0  0  0
   -4.2052   -1.9048    1.2896 H   0  0  0  0  0  0  0  0  0  0  0  0
   -3.7552   -2.8428   -0.1584 H   0  0  0  0  0  0  0  0  0  0  0  0
   -2.1052   -2.1358    0.9946 C   0  0  0  0  0  0  0  0  0  0  0  0
   -1.2852   -2.7288    1.6826 O   0  0  0  0  0  0  0  0  0  0  0  0
   -1.8202   -1.0288    0.3146 N   0  0  0  0  0  0  0  0  0  0  0  0
   -2.5542   -0.5788   -0.2104 H   0  0  0  0  0  0  0  0  0  0  0  0
   -0.5102   -0.3728    0.3086 C   0  0  1  0  0  0  0  0  0  0  0  0
    0.2354   -1.0844   -0.0490 H   0  0  0  0  0  0  0  0  0  0  0  0
   -0.5452    0.8158   -0.6698 C   0  0  0  0  0  0  0  0  0  0  0  0
   -0.5340    0.4366   -1.6932 H   0  0  0  0  0  0  0  0  0  0  0  0
   -1.4762    1.3673   -0.5264 H   0  0  0  0  0  0  0  0  0  0  0  0
    0.6073    1.7714   -0.5001 C   0  0  0  0  0  0  0  0  0  0  0  0
    0.5291    3.1473   -0.4732 N   0  0  0  0  0  0  0  0  0  0  0  0
   -0.2988    3.6995   -0.6400 H   0  0  0  0  0  0  0  0  0  0  0  0
    1.7517    3.6276   -0.1907 C   0  0  0  0  0  0  0  0  0  0  0  0
    2.0083    4.6766   -0.1073 H   0  0  0  0  0  0  0  0  0  0  0  0
    2.6191    2.6191   -0.0208 N   0  0  0  0  0  0  0  0  0  0  0  0
    1.9046    1.4347   -0.2191 C   0  0  0  0  0  0  0  0  0  0  0  0
    2.2964    0.4296   -0.1304 H   0  0  0  0  0  0  0  0  0  0  0  0
   -0.1073    0.0565    1.7296 C   0  0  0  0  0  0  0  0  0  0  0  0
    1.0285   -0.1699    2.1459 O   0  0  0  0  0  0  0  0  0  0  0  0
   -1.0395    0.6588    2.4785 N   0  0  0  0  0  0  0  0  0  0  0  0
   -1.9636    0.7597    2.0849 H   0  0  0  0  0  0  0  0  0  0  0  0
   -0.8222    1.1334    3.8425 C   0  0  0  0  0  0  0  0  0  0  0  0
   -0.0212    1.8761    3.8521 H   0  0  0  0  0  0  0  0  0  0  0  0
   -1.7349    1.5853    4.2320 H   0  0  0  0  0  0  0  0  0  0  0  0
   -0.5312    0.2997    4.4834 H   0  0  0  0  0  0  0  0  0  0  0  0
  5  6  2  0  0  0  0
  5  7  1  0  0  0  0
  2  3  1  0  0  0  0
  2  4  1  0  0  0  0
  2  5  1  0  0  0  0
  1  2  1  0  0  0  0
 22 23  2  0  0  0  0
 22 24  1  0  0  0  0
 20 21  1  0  0  0  0
 19 20  1  0  0  0  0
 17 18  1  0  0  0  0
 17 19  2  0  0  0  0
 15 16  1  0  0  0  0
 15 17  1  0  0  0  0
 14 15  1  0  0  0  0
 14 20  2  0  0  0  0
 11 12  1  0  0  0  0
 11 13  1  0  0  0  0
 11 14  1  0  0  0  0
  9 10  1  0  0  0  0
  9 11  1  0  0  0  0
  9 22  1  0  0  0  0
  7  8  1  0  0  0  0
  7  9  1  0  0  0  0
 26 27  1  0  0  0  0
 26 28  1  0  0  0  0
 26 29  1  0  0  0  0
 24 25  1  0  0  0  0
 24 26  1  0  0  0  0
M  END
$$$$
default_name
  -OEChem-02102213163D

 29 29  0     1  0  0  0  0  0999 V2000
   -3.6042   -3.5728    1.4576 H   0  0  0  0  0  0  0  0  0  0  0  0
   -3.5202   -2.6488    0.8866 C   0  0  0  0  0  0  0  0  0  0  0  0
   -4.2052   -1.9048    1.2896 H   0  0  0  0  0  0  0  0  0  0  0  0
   -3.7552   -2.8428   -0.1584 H   0  0  0  0  0  0  0  0  0  0  0  0
   -2.1052   -2.1358    0.9946 C   0  0  0  0  0  0  0  0  0  0  0  0
   -1.2852   -2.7288    1.6826 O   0  0  0  0  0  0  0  0  0  0  0  0
   -1.8202   -1.0288    0.3146 N   0  0  0  0  0  0  0  0  0  0  0  0
   -2.5542   -0.5788   -0.2104 H   0  0  0  0  0  0  0  0  0  0  0  0
   -0.5102   -0.3728    0.3086 C   0  0  1  0  0  0  0  0  0  0  0  0
    0.2354   -1.0844   -0.0490 H   0  0  0  0  0  0  0  0  0  0  0  0
   -0.5452    0.8158   -0.6698 C   0  0  0  0  0  0  0  0  0  0  0  0
   -0.5340    0.4366   -1.6932 H   0  0  0  0  0  0  0  0  0  0  0  0
   -1.4762    1.3673   -0.5264 H   0  0  0  0  0  0  0  0  0  0  0  0
    0.6073    1.7714   -0.5001 C   0  0  0  0  0  0  0  0  0  0  0  0
    0.5173    3.1104   -0.1857 N   0  0  0  0  0  0  0  0  0  0  0  0
   -0.3337    3.6462   -0.1028 H   0  0  0  0  0  0  0  0  0  0  0  0
    1.7638    3.5816   -0.0136 C   0  0  0  0  0  0  0  0  0  0  0  0
    2.0175    4.6046    0.2359 H   0  0  0  0  0  0  0  0  0  0  0  0
    2.6600    2.6000   -0.1914 N   0  0  0  0  0  0  0  0  0  0  0  0
    1.9375    1.4458   -0.5051 C   0  0  0  0  0  0  0  0  0  0  0  0
    2.3512    0.4618   -0.6840 H   0  0  0  0  0  0  0  0  0  0  0  0
   -0.1073    0.0565    1.7296 C   0  0  0  0  0  0  0  0  0  0  0  0
    1.0285   -0.1699    2.1459 O   0  0  0  0  0  0  0  0  0  0  0  0
   -1.0395    0.6588    2.4785 N   0  0  0  0  0  0  0  0  0  0  0  0
   -1.9636    0.7597    2.0849 H   0  0  0  0  0  0  0  0  0  0  0  0
   -0.8222    1.1334    3.8425 C   0  0  0  0  0  0  0  0  0  0  0  0
   -0.0212    1.8761    3.8521 H   0  0  0  0  0  0  0  0  0  0  0  0
   -1.7349    1.5853    4.2320 H   0  0  0  0  0  0  0  0  0  0  0  0
   -0.5312    0.2997    4.4834 H   0  0  0  0  0  0  0  0  0  0  0  0
  5  6  2  0  0  0  0
  5  7  1  0  0  0  0
  2  3  1  0  0  0  0
  2  4  1  0  0  0  0
  2  5  1  0  0  0  0
  1  2  1  0  0  0  0
 22 23  2  0  0  0  0
 22 24  1  0  0  0  0
 20 21  1  0  0  0  0
 19 20  1  0  0  0  0
 17 18  1  0  0  0  0
 17 19  2  0  0  0  0
 15 16  1  0  0  0  0
 15 17  1  0  0  0  0
 14 15  1  0  0  0  0
 14 20  2  0  0  0  0
 11 12  1  0  0  0  0
 11 13  1  0  0  0  0
 11 14  1  0  0  0  0
  9 10  1  0  0  0  0
  9 11  1  0  0  0  0
  9 22  1  0  0  0  0
  7  8  1  0  0  0  0
  7  9  1  0  0  0  0
 26 27  1  0  0  0  0
 26 28  1  0  0  0  0
 26 29  1  0  0  0  0
 24 25  1  0  0  0  0
 24 26  1  0  0  0  0
M  END
$$$$
default_name
  -OEChem-02102213163D

 29 29  0     1  0  0  0  0  0999 V2000
   -3.6042   -3.5728    1.4576 H   0  0  0  0  0  0  0  0  0  0  0  0
   -3.5202   -2.6488    0.8866 C   0  0  0  0  0  0  0  0  0  0  0  0
   -4.2052   -1.9048    1.2896 H   0  0  0  0  0  0  0  0  0  0  0  0
   -3.7552   -2.8428   -0.1584 H   0  0  0  0  0  0  0  0  0  0  0  0
   -2.1052   -2.1358    0.9946 C   0  0  0  0  0  0  0  0  0  0  0  0
   -1.2852   -2.7288    1.6826 O   0  0  0  0  0  0  0  0  0  0  0  0
   -1.8202   -1.0288    0.3146 N   0  0  0  0  0  0  0  0  0  0  0  0
   -2.5542   -0.5788   -0.2104 H   0  0  0  0  0  0  0  0  0  0  0  0
   -0.5102   -0.3728    0.3086 C   0  0  1  0  0  0  0  0  0  0  0  0
    0.2354   -1.0844   -0.0490 H   0  0  0  0  0  0  0  0  0  0  0  0
   -0.5452    0.8158   -0.6698 C   0  0  0  0  0  0  0  0  0  0  0  0
   -0.5340    0.4366   -1.6932 H   0  0  0  0  0  0  0  0  0  0  0  0
   -1.4762    1.3673   -0.5264 H   0  0  0  0  0  0  0  0  0  0  0  0
    0.6073    1.7714   -0.5001 C   0  0  0  0  0  0  0  0  0  0  0  0
    0.5542    3.0176    0.0866 N   0  0  0  0  0  0  0  0  0  0  0  0
   -0.2777    3.4873    0.4113 H   0  0  0  0  0  0  0  0  0  0  0  0
    1.8059    3.5024    0.1464 C   0  0  0  0  0  0  0  0  0  0  0  0
    2.0848    4.4674    0.5516 H   0  0  0  0  0  0  0  0  0  0  0  0
    2.6721    2.6165   -0.3666 N   0  0  0  0  0  0  0  0  0  0  0  0
    1.9220    1.5142   -0.7846 C   0  0  0  0  0  0  0  0  0  0  0  0
    2.3123    0.6041   -1.2214 H   0  0  0  0  0  0  0  0  0  0  0  0
   -0.1073    0.0565    1.7296 C   0  0  0  0  0  0  0  0  0  0  0  0
    1.0285   -0.1699    2.1459 O   0  0  0  0  0  0  0  0  0  0  0  0
   -1.0395    0.6588    2.4785 N   0  0  0  0  0  0  0  0  0  0  0  0
   -1.9636    0.7597    2.0849 H   0  0  0  0  0  0  0  0  0  0  0  0
   -0.8222    1.1334    3.8425 C   0  0  0  0  0  0  0  0  0  0  0  0
   -0.0212    1.8761    3.8521 H   0  0  0  0  0  0  0  0  0  0  0  0
   -1.7349    1.5853    4.2320 H   0  0  0  0  0  0  0  0  0  0  0  0
   -0.5312    0.2997    4.4834 H   0  0  0  0  0  0  0  0  0  0  0  0
  5  6  2  0  0  0  0
  5  7  1  0  0  0  0
  2  3  1  0  0  0  0
  2  4  1  0  0  0  0
  2  5  1  0  0  0  0
  1  2  1  0  0  0  0
 22 23  2  0  0  0  0
 22 24  1  0  0  0  0
 20 21  1  0  0  0  0
 19 20  1  0  0  0  0
 17 18  1  0  0  0  0
 17 19  2  0  0  0  0
 15 16  1  0  0  0  0
 15 17  1  0  0  0  0
 14 15  1  0  0  0  0
 14 20  2  0  0  0  0
 11 12  1  0  0  0  0
 11 13  1  0  0  0  0
 11 14  1  0  0  0  0
  9 10  1  0  0  0  0
  9 11  1  0  0  0  0
  9 22  1  0  0  0  0
  7  8  1  0  0  0  0
  7  9  1  0  0  0  0
 26 27  1  0  0  0  0
 26 28  1  0  0  0  0
 26 29  1  0  0  0  0
 24 25  1  0  0  0  0
 24 26  1  0  0  0  0
M  END
$$$$
default_name
  -OEChem-02102213163D

 29 29  0     1  0  0  0  0  0999 V2000
   -3.6042   -3.5728    1.4576 H   0  0  0  0  0  0  0  0  0  0  0  0
   -3.5202   -2.6488    0.8866 C   0  0  0  0  0  0  0  0  0  0  0  0
   -4.2052   -1.9048    1.2896 H   0  0  0  0  0  0  0  0  0  0  0  0
   -3.7552   -2.8428   -0.1584 H   0  0  0  0  0  0  0  0  0  0  0  0
   -2.1052   -2.1358    0.9946 C   0  0  0  0  0  0  0  0  0  0  0  0
   -1.2852   -2.7288    1.6826 O   0  0  0  0  0  0  0  0  0  0  0  0
   -1.8202   -1.0288    0.3146 N   0  0  0  0  0  0  0  0  0  0  0  0
   -2.5542   -0.5788   -0.2104 H   0  0  0  0  0  0  0  0  0  0  0  0
   -0.5102   -0.3728    0.3086 C   0  0  1  0  0  0  0  0  0  0  0  0
    0.2354   -1.0844   -0.0490 H   0  0  0  0  0  0  0  0  0  0  0  0
   -0.5452    0.8158   -0.6698 C   0  0  0  0  0  0  0  0  0  0  0  0
   -0.5340    0.4366   -1.6932 H   0  0  0  0  0  0  0  0  0  0  0  0
   -1.4762    1.3673   -0.5264 H   0  0  0  0  0  0  0  0  0  0  0  0
    0.6073    1.7714   -0.5001 C   0  0  0  0  0  0  0  0  0  0  0  0
    0.6373    2.8750    0.3252 N   0  0  0  0  0  0  0  0  0  0  0  0
   -0.1345    3.2337    0.8672 H   0  0  0  0  0  0  0  0  0  0  0  0
    1.8752    3.3955    0.2783 C   0  0  0  0  0  0  0  0  0  0  0  0
    2.2056    4.2743    0.8184 H   0  0  0  0  0  0  0  0  0  0  0  0
    2.6546    2.6675   -0.5346 N   0  0  0  0  0  0  0  0  0  0  0  0
    1.8591    1.6351   -1.0385 C   0  0  0  0  0  0  0  0  0  0  0  0
    2.1825    0.8468   -1.7059 H   0  0  0  0  0  0  0  0  0  0  0  0
   -0.1073    0.0565    1.7296 C   0  0  0  0  0  0  0  0  0  0  0  0
    1.0285   -0.1699    2.1459 O   0  0  0  0  0  0  0  0  0  0  0  0
   -1.0395    0.6588    2.4785 N   0  0  0  0  0  0  0  0  0  0  0  0
   -1.9636    0.7597    2.0849 H   0  0  0  0  0  0  0  0  0  0  0  0
   -0.8222    1.1334    3.8425 C   0  0  0  0  0  0  0  0  0  0  0  0
   -0.0212    1.8761    3.8521 H   0  0  0  0  0  0  0  0  0  0  0  0
   -1.7349    1.5853    4.2320 H   0  0  0  0  0  0  0  0  0  0  0  0
   -0.5312    0.2997    4.4834 H   0  0  0  0  0  0  0  0  0  0  0  0
  5  6  2  0  0  0  0
  5  7  1  0  0  0  0
  2  3  1  0  0  0  0
  2  4  1  0  0  0  0
  2  5  1  0  0  0  0
  1  2  1  0  0  0  0
 22 23  2  0  0  0  0
 22 24  1  0  0  0  0
 20 21  1  0  0  0  0
 19 20  1  0  0  0  0
 17 18  1  0  0  0  0
 17 19  2  0  0  0  0
 15 16  1  0  0  0  0
 15 17  1  0  0  0  0
 14 15  1  0  0  0  0
 14 20  2  0  0  0  0
 11 12  1  0  0  0  0
 11 13  1  0  0  0  0
 11 14  1  0  0  0  0
  9 10  1  0  0  0  0
  9 11  1  0  0  0  0
  9 22  1  0  0  0  0
  7  8  1  0  0  0  0
  7  9  1  0  0  0  0
 26 27  1  0  0  0  0
 26 28  1  0  0  0  0
 26 29  1  0  0  0  0
 24 25  1  0  0  0  0
 24 26  1  0  0  0  0
M  END
$$$$
default_name
  -OEChem-02102213163D

 29 29  0     1  0  0  0  0  0999 V2000
   -3.6042   -3.5728    1.4576 H   0  0  0  0  0  0  0  0  0  0  0  0
   -3.5202   -2.6488    0.8866 C   0  0  0  0  0  0  0  0  0  0  0  0
   -4.2052   -1.9048    1.2896 H   0  0  0  0  0  0  0  0  0  0  0  0
   -3.7552   -2.8428   -0.1584 H   0  0  0  0  0  0  0  0  0  0  0  0
   -2.1052   -2.1358    0.9946 C   0  0  0  0  0  0  0  0  0  0  0  0
   -1.2852   -2.7288    1.6826 O   0  0  0  0  0  0  0  0  0  0  0  0
   -1.8202   -1.0288    0.3146 N   0  0  0  0  0  0  0  0  0  0  0  0
   -2.5542   -0.5788   -0.2104 H   0  0  0  0  0  0  0  0  0  0  0  0
   -0.5102   -0.3728    0.3086 C   0  0  1  0  0  0  0  0  0  0  0  0
    0.2354   -1.0844   -0.0490 H   0  0  0  0  0  0  0  0  0  0  0  0
   -0.5452    0.8158   -0.6698 C   0  0  0  0  0  0  0  0  0  0  0  0
   -0.5340    0.4366   -1.6932 H   0  0  0  0  0  0  0  0  0  0  0  0
   -1.4762    1.3673   -0.5264 H   0  0  0  0  0  0  0  0  0  0  0  0
    0.6073    1.7714   -0.5001 C   0  0  0  0  0  0  0  0  0  0  0  0
    0.7608    2.6925    0.5138 N   0  0  0  0  0  0  0  0  0  0  0  0
    0.0860    2.9027    1.2339 H   0  0  0  0  0  0  0  0  0  0  0  0
    1.9668    3.2681    0.3732 C   0  0  0  0  0  0  0  0  0  0  0  0
    2.3718    4.0385    1.0180 H   0  0  0  0  0  0  0  0  0  0  0  0
    2.6086    2.7495   -0.6839 N   0  0  0  0  0  0  0  0  0  0  0  0
    1.7532    1.8004   -1.2495 C   0  0  0  0  0  0  0  0  0  0  0  0
    1.9704    1.1733   -2.1046 H   0  0  0  0  0  0  0  0  0  0  0  0
   -0.1073    0.0565    1.7296 C   0  0  0  0  0  0  0  0  0  0  0  0
    1.0285   -0.1699    2.1459 O   0  0  0  0  0  0  0  0  0  0  0  0
   -1.0395    0.6588    2.4785 N   0  0  0  0  0  0  0  0  0  0  0  0
   -1.9636    0.7597    2.0849 H   0  0  0  0  0  0  0  0  0  0  0  0
   -0.8222    1.1334    3.8425 C   0  0  0  0  0  0  0  0  0  0  0  0
   -0.0212    1.8761    3.8521 H   0  0  0  0  0  0  0  0  0  0  0  0
   -1.7349    1.5853    4.2320 H   0  0  0  0  0  0  0  0  0  0  0  0
   -0.5312    0.2997    4.4834 H   0  0  0  0  0  0  0  0  0  0  0  0
  5  6  2  0  0  0  0
  5  7  1  0  0  0  0
  2  3  1  0  0  0  0
  2  4  1  0  0  0  0
  2  5  1  0  0  0  0
  1  2  1  0  0  0  0
 22 23  2  0  0  0  0
 22 24  1  0  0  0  0
 20 21  1  0  0  0  0
 19 20  1  0  0  0  0
 17 18  1  0  0  0  0
 17 19  2  0  0  0  0
 15 16  1  0  0  0  0
 15 17  1  0  0  0  0
 14 15  1  0  0  0  0
 14 20  2  0  0  0  0
 11 12  1  0  0  0  0
 11 13  1  0  0  0  0
 11 14  1  0  0  0  0
  9 10  1  0  0  0  0
  9 11  1  0  0  0  0
  9 22  1  0  0  0  0
  7  8  1  0  0  0  0
  7  9  1  0  0  0  0
 26 27  1  0  0  0  0
 26 28  1  0  0  0  0
 26 29  1  0  0  0  0
 24 25  1  0  0  0  0
 24 26  1  0  0  0  0
M  END
$$$$
default_name
  -OEChem-02102213163D

 29 29  0     1  0  0  0  0  0999 V2000
   -3.6042   -3.5728    1.4576 H   0  0  0  0  0  0  0  0  0  0  0  0
   -3.5202   -2.6488    0.8866 C   0  0  0  0  0  0  0  0  0  0  0  0
   -4.2052   -1.9048    1.2896 H   0  0  0  0  0  0  0  0  0  0  0  0
   -3.7552   -2.8428   -0.1584 H   0  0  0  0  0  0  0  0  0  0  0  0
   -2.1052   -2.1358    0.9946 C   0  0  0  0  0  0  0  0  0  0  0  0
   -1.2852   -2.7288    1.6826 O   0  0  0  0  0  0  0  0  0  0  0  0
   -1.8202   -1.0288    0.3146 N   0  0  0  0  0  0  0  0  0  0  0  0
   -2.5542   -0.5788   -0.2104 H   0  0  0  0  0  0  0  0  0  0  0  0
   -0.5102   -0.3728    0.3086 C   0  0  1  0  0  0  0  0  0  0  0  0
    0.2354   -1.0844   -0.0490 H   0  0  0  0  0  0  0  0  0  0  0  0
   -0.5452    0.8158   -0.6698 C   0  0  0  0  0  0  0  0  0  0  0  0
   -0.5340    0.4366   -1.6932 H   0  0  0  0  0  0  0  0  0  0  0  0
   -1.4762    1.3673   -0.5264 H   0  0  0  0  0  0  0  0  0  0  0  0
    0.6073    1.7714   -0.5001 C   0  0  0  0  0  0  0  0  0  0  0  0
    0.9165    2.4825    0.6395 N   0  0  0  0  0  0  0  0  0  0  0  0
    0.3688    2.5167    1.4863 H   0  0  0  0  0  0  0  0  0  0  0  0
    2.0746    3.1289    0.4246 C   0  0  0  0  0  0  0  0  0  0  0  0
    2.5718    3.7761    1.1368 H   0  0  0  0  0  0  0  0  0  0  0  0
    2.5373    2.8569   -0.8043 N   0  0  0  0  0  0  0  0  0  0  0  0
    1.6114    1.9986   -1.4032 C   0  0  0  0  0  0  0  0  0  0  0  0
    1.6906    1.5615   -2.3902 H   0  0  0  0  0  0  0  0  0  0  0  0
   -0.1073    0.0565    1.7296 C   0  0  0  0  0  0  0  0  0  0  0  0
    1.0285   -0.1699    2.1459 O   0  0  0  0  0  0  0  0  0  0  0  0
   -1.0395    0.6588    2.4785 N   0  0  0  0  0  0  0  0  0  0  0  0
   -1.9636    0.7597    2.0849 H   0  0  0  0  0  0  0  0  0  0  0  0
   -0.8222    1.1334    3.8425 C   0  0  0  0  0  0  0  0  0  0  0  0
   -0.0212    1.8761    3.8521 H   0  0  0  0  0  0  0  0  0  0  0  0
   -1.7349    1.5853    4.2320 H   0  0  0  0  0  0  0  0  0  0  0  0
   -0.5312    0.2997    4.4834 H   0  0  0  0  0  0  0  0  0  0  0  0
  5  6  2  0  0  0  0
  5  7  1  0  0  0  0
  2  3  1  0  0  0  0
  2  4  1  0  0  0  0
  2  5  1  0  0  0  0
  1  2  1  0  0  0  0
 22 23  2  0  0  0  0
 22 24  1  0  0  0  0
 20 21  1  0  0  0  0
 19 20  1  0  0  0  0
 17 18  1  0  0  0  0
 17 19  2  0  0  0  0
 15 16  1  0  0  0  0
 15 17  1  0  0  0  0
 14 15  1  0  0  0  0
 14 20  2  0  0  0  0
 11 12  1  0  0  0  0
 11 13  1  0  0  0  0
 11 14  1  0  0  0  0
  9 10  1  0  0  0  0
  9 11  1  0  0  0  0
  9 22  1  0  0  0  0
  7  8  1  0  0  0  0
  7  9  1  0  0  0  0
 26 27  1  0  0  0  0
 26 28  1  0  0  0  0
 26 29  1  0  0  0  0
 24 25  1  0  0  0  0
 24 26  1  0  0  0  0
M  END
$$$$
default_name
  -OEChem-02102213163D

 29 29  0     1  0  0  0  0  0999 V2000
   -3.6042   -3.5728    1.4576 H   0  0  0  0  0  0  0  0  0  0  0  0
   -3.5202   -2.6488    0.8866 C   0  0  0  0  0  0  0  0  0  0  0  0
   -4.2052   -1.9048    1.2896 H   0  0  0  0  0  0  0  0  0  0  0  0
   -3.7552   -2.8428   -0.1584 H   0  0  0  0  0  0  0  0  0  0  0  0
   -2.1052   -2.1358    0.9946 C   0  0  0  0  0  0  0  0  0  0  0  0
   -1.2852   -2.7288    1.6826 O   0  0  0  0  0  0  0  0  0  0  0  0
   -1.8202   -1.0288    0.3146 N   0  0  0  0  0  0  0  0  0  0  0  0
   -2.5542   -0.5788   -0.2104 H   0  0  0  0  0  0  0  0  0  0  0  0
   -0.5102   -0.3728    0.3086 C   0  0  1  0  0  0  0  0  0  0  0  0
    0.2354   -1.0844   -0.0490 H   0  0  0  0  0  0  0  0  0  0  0  0
   -0.5452    0.8158   -0.6698 C   0  0  0  0  0  0  0  0  0  0  0  0
   -0.5340    0.4366   -1.6932 H   0  0  0  0  0  0  0  0  0  0  0  0
   -1.4762    1.3673   -0.5264 H   0  0  0  0  0  0  0  0  0  0  0  0
    0.6073    1.7714   -0.5001 C   0  0  0  0  0  0  0  0  0  0  0  0
    1.0935    2.2593    0.6939 N   0  0  0  0  0  0  0  0  0  0  0  0
    0.6946    2.1022    1.6073 H   0  0  0  0  0  0  0  0  0  0  0  0
    2.1913    2.9874    0.4290 C   0  0  0  0  0  0  0  0  0  0  0  0
    2.7923    3.5049    1.1668 H   0  0  0  0  0  0  0  0  0  0  0  0
    2.4455    2.9824   -0.8876 N   0  0  0  0  0  0  0  0  0  0  0  0
    1.4435    2.2165   -1.4892 C   0  0  0  0  0  0  0  0  0  0  0  0
    1.3622    1.9848   -2.5433 H   0  0  0  0  0  0  0  0  0  0  0  0
   -0.1073    0.0565    1.7296 C   0  0  0  0  0  0  0  0  0  0  0  0
    1.0285   -0.1699    2.1459 O   0  0  0  0  0  0  0  0  0  0  0  0
   -1.0395    0.6588    2.4785 N   0  0  0  0  0  0  0  0  0  0  0  0
   -1.9636    0.7597    2.0849 H   0  0  0  0  0  0  0  0  0  0  0  0
   -0.8222    1.1334    3.8425 C   0  0  0  0  0  0  0  0  0  0  0  0
   -0.0212    1.8761    3.8521 H   0  0  0  0  0  0  0  0  0  0  0  0
   -1.7349    1.5853    4.2320 H   0  0  0  0  0  0  0  0  0  0  0  0
   -0.5312    0.2997    4.4834 H   0  0  0  0  0  0  0  0  0  0  0  0
  5  6  2  0  0  0  0
  5  7  1  0  0  0  0
  2  3  1  0  0  0  0
  2  4  1  0  0  0  0
  2  5  1  0  0  0  0
  1  2  1  0  0  0  0
 22 23  2  0  0  0  0
 22 24  1  0  0  0  0
 20 21  1  0  0  0  0
 19 20  1  0  0  0  0
 17 18  1  0  0  0  0
 17 19  2  0  0  0  0
 15 16  1  0  0  0  0
 15 17  1  0  0  0  0
 14 15  1  0  0  0  0
 14 20  2  0  0  0  0
 11 12  1  0  0  0  0
 11 13  1  0  0  0  0
 11 14  1  0  0  0  0
  9 10  1  0  0  0  0
  9 11  1  0  0  0  0
  9 22  1  0  0  0  0
  7  8  1  0  0  0  0
  7  9  1  0  0  0  0
 26 27  1  0  0  0  0
 26 28  1  0  0  0  0
 26 29  1  0  0  0  0
 24 25  1  0  0  0  0
 24 26  1  0  0  0  0
M  END
$$$$
default_name
  -OEChem-02102213163D

 29 29  0     1  0  0  0  0  0999 V2000
   -3.6042   -3.5728    1.4576 H   0  0  0  0  0  0  0  0  0  0  0  0
   -3.5202   -2.6488    0.8866 C   0  0  0  0  0  0  0  0  0  0  0  0
   -4.2052   -1.9048    1.2896 H   0  0  0  0  0  0  0  0  0  0  0  0
   -3.7552   -2.8428   -0.1584 H   0  0  0  0  0  0  0  0  0  0  0  0
   -2.1052   -2.1358    0.9946 C   0  0  0  0  0  0  0  0  0  0  0  0
   -1.2852   -2.7288    1.6826 O   0  0  0  0  0  0  0  0  0  0  0  0
   -1.8202   -1.0288    0.3146 N   0  0  0  0  0  0  0  0  0  0  0  0
   -2.5542   -0.5788   -0.2104 H   0  0  0  0  0  0  0  0  0  0  0  0
   -0.5102   -0.3728    0.3086 C   0  0  1  0  0  0  0  0  0  0  0  0
    0.2354   -1.0844   -0.0490 H   0  0  0  0  0  0  0  0  0  0  0  0
   -0.5452    0.8158   -0.6698 C   0  0  0  0  0  0  0  0  0  0  0  0
   -0.5340    0.4366   -1.6932 H   0  0  0  0  0  0  0  0  0  0  0  0
   -1.4762    1.3673   -0.5264 H   0  0  0  0  0  0  0  0  0  0  0  0
    0.6073    1.7714   -0.5001 C   0  0  0  0  0  0  0  0  0  0  0  0
    1.2800    2.0381    0.6731 N   0  0  0  0  0  0  0  0  0  0  0  0
    1.0413    1.6874    1.5886 H   0  0  0  0  0  0  0  0  0  0  0  0
    2.3088    2.8533    0.3862 C   0  0  0  0  0  0  0  0  0  0  0  0
    3.0180    3.2434    1.1059 H   0  0  0  0  0  0  0  0  0  0  0  0
    2.3394    3.1175   -0.9282 N   0  0  0  0  0  0  0  0  0  0  0  0
    1.2608    2.4390   -1.5015 C   0  0  0  0  0  0  0  0  0  0  0  0
    1.0074    2.4145   -2.5534 H   0  0  0  0  0  0  0  0  0  0  0  0
   -0.1073    0.0565    1.7296 C   0  0  0  0  0  0  0  0  0  0  0  0
    1.0285   -0.1699    2.1459 O   0  0  0  0  0  0  0  0  0  0  0  0
   -1.0395    0.6588    2.4785 N   0  0  0  0  0  0  0  0  0  0  0  0
   -1.9636    0.7597    2.0849 H   0  0  0  0  0  0  0  0  0  0  0  0
   -0.8222    1.1334    3.8425 C   0  0  0  0  0  0  0  0  0  0  0  0
   -0.0212    1.8761    3.8521 H   0  0  0  0  0  0  0  0  0  0  0  0
   -1.7349    1.5853    4.2320 H   0  0  0  0  0  0  0  0  0  0  0  0
   -0.5312    0.2997    4.4834 H   0  0  0  0  0  0  0  0  0  0  0  0
  5  6  2  0  0  0  0
  5  7  1  0  0  0  0
  2  3  1  0  0  0  0
  2  4  1  0  0  0  0
  2  5  1  0  0  0  0
  1  2  1  0  0  0  0
 22 23  2  0  0  0  0
 22 24  1  0  0  0  0
 20 21  1  0  0  0  0
 19 20  1  0  0  0  0
 17 18  1  0  0  0  0
 17 19  2  0  0  0  0
 15 16  1  0  0  0  0
 15 17  1  0  0  0  0
 14 15  1  0  0  0  0
 14 20  2  0  0  0  0
 11 12  1  0  0  0  0
 11 13  1  0  0  0  0
 11 14  1  0  0  0  0
  9 10  1  0  0  0  0
  9 11  1  0  0  0  0
  9 22  1  0  0  0  0
  7  8  1  0  0  0  0
  7  9  1  0  0  0  0
 26 27  1  0  0  0  0
 26 28  1  0  0  0  0
 26 29  1  0  0  0  0
 24 25  1  0  0  0  0
 24 26  1  0  0  0  0
M  END
$$$$
default_name
  -OEChem-02102213163D

 29 29  0     1  0  0  0  0  0999 V2000
   -3.6042   -3.5728    1.4576 H   0  0  0  0  0  0  0  0  0  0  0  0
   -3.5202   -2.6488    0.8866 C   0  0  0  0  0  0  0  0  0  0  0  0
   -4.2052   -1.9048    1.2896 H   0  0  0  0  0  0  0  0  0  0  0  0
   -3.7552   -2.8428   -0.1584 H   0  0  0  0  0  0  0  0  0  0  0  0
   -2.1052   -2.1358    0.9946 C   0  0  0  0  0  0  0  0  0  0  0  0
   -1.2852   -2.7288    1.6826 O   0  0  0  0  0  0  0  0  0  0  0  0
   -1.8202   -1.0288    0.3146 N   0  0  0  0  0  0  0  0  0  0  0  0
   -2.5542   -0.5788   -0.2104 H   0  0  0  0  0  0  0  0  0  0  0  0
   -0.5102   -0.3728    0.3086 C   0  0  1  0  0  0  0  0  0  0  0  0
    0.2354   -1.0844   -0.0490 H   0  0  0  0  0  0  0  0  0  0  0  0
   -0.5452    0.8158   -0.6698 C   0  0  0  0  0  0  0  0  0  0  0  0
   -0.5340    0.4366   -1.6932 H   0  0  0  0  0  0  0  0  0  0  0  0
   -1.4762    1.3673   -0.5264 H   0  0  0  0  0  0  0  0  0  0  0  0
    0.6073    1.7714   -0.5001 C   0  0  0  0  0  0  0  0  0  0  0  0
    1.4631    1.8340    0.5787 N   0  0  0  0  0  0  0  0  0  0  0  0
    1.3852    1.3005    1.4316 H   0  0  0  0  0  0  0  0  0  0  0  0
    2.4192    2.7357    0.2989 C   0  0  0  0  0  0  0  0  0  0  0  0
    3.2337    3.0095    0.9583 H   0  0  0  0  0  0  0  0  0  0  0  0
    2.2265    3.2529   -0.9233 N   0  0  0  0  0  0  0  0  0  0  0  0
    1.0758    2.6510   -1.4393 C   0  0  0  0  0  0  0  0  0  0  0  0
    0.6506    2.8212   -2.4200 H   0  0  0  0  0  0  0  0  0  0  0  0
   -0.1073    0.0565    1.7296 C   0  0  0  0  0  0  0  0  0  0  0  0
    1.0285   -0.1699    2.1459 O   0  0  0  0  0  0  0  0  0  0  0  0
   -1.0395    0.6588    2.4785 N   0  0  0  0  0  0  0  0  0  0  0  0
   -1.9636    0.7597    2.0849 H   0  0  0  0  0  0  0  0  0  0  0  0
   -0.8222    1.1334    3.8425 C   0  0  0  0  0  0  0  0  0  0  0  0
   -0.0212    1.8761    3.8521 H   0  0  0  0  0  0  0  0  0  0  0  0
   -1.7349    1.5853    4.2320 H   0  0  0  0  0  0  0  0  0  0  0  0
   -0.5312    0.2997    4.4834 H   0  0  0  0  0  0  0  0  0  0  0  0
  5  6  2  0  0  0  0
  5  7  1  0  0  0  0
  2  3  1  0  0  0  0
  2  4  1  0  0  0  0
  2  5  1  0  0  0  0
  1  2  1  0  0  0  0
 22 23  2  0  0  0  0
 22 24  1  0  0  0  0
 20 21  1  0  0  0  0
 19 20  1  0  0  0  0
 17 18  1  0  0  0  0
 17 19  2  0  0  0  0
 15 16  1  0  0  0  0
 15 17  1  0  0  0  0
 14 15  1  0  0  0  0
 14 20  2  0  0  0  0
 11 12  1  0  0  0  0
 11 13  1  0  0  0  0
 11 14  1  0  0  0  0
  9 10  1  0  0  0  0
  9 11  1  0  0  0  0
  9 22  1  0  0  0  0
  7  8  1  0  0  0  0
  7  9  1  0  0  0  0
 26 27  1  0  0  0  0
 26 28  1  0  0  0  0
 26 29  1  0  0  0  0
 24 25  1  0  0  0  0
 24 26  1  0  0  0  0
M  END
$$$$
default_name
  -OEChem-02102213163D

 29 29  0     1  0  0  0  0  0999 V2000
   -3.6042   -3.5728    1.4576 H   0  0  0  0  0  0  0  0  0  0  0  0
   -3.5202   -2.6488    0.8866 C   0  0  0  0  0  0  0  0  0  0  0  0
   -4.2052   -1.9048    1.2896 H   0  0  0  0  0  0  0  0  0  0  0  0
   -3.7552   -2.8428   -0.1584 H   0  0  0  0  0  0  0  0  0  0  0  0
   -2.1052   -2.1358    0.9946 C   0  0  0  0  0  0  0  0  0  0  0  0
   -1.2852   -2.7288    1.6826 O   0  0  0  0  0  0  0  0  0  0  0  0
   -1.8202   -1.0288    0.3146 N   0  0  0  0  0  0  0  0  0  0  0  0
   -2.5542   -0.5788   -0.2104 H   0  0  0  0  0  0  0  0  0  0  0  0
   -0.5102   -0.3728    0.3086 C   0  0  1  0  0  0  0  0  0  0  0  0
    0.2354   -1.0844   -0.0490 H   0  0  0  0  0  0  0  0  0  0  0  0
   -0.5452    0.8158   -0.6698 C   0  0  0  0  0  0  0  0  0  0  0  0
   -0.5340    0.4366   -1.6932 H   0  0  0  0  0  0  0  0  0  0  0  0
   -1.4762    1.3673   -0.5264 H   0  0  0  0  0  0  0  0  0  0  0  0
    0.6073    1.7714   -0.5001 C   0  0  0  0  0  0  0  0  0  0  0  0
    1.6305    1.6608    0.4169 N   0  0  0  0  0  0  0  0  0  0  0  0
    1.7029    0.9679    1.1468 H   0  0  0  0  0  0  0  0  0  0  0  0
    2.5149    2.6426    0.1732 C   0  0  0  0  0  0  0  0  0  0  0  0
    3.4246    2.8190    0.7339 H   0  0  0  0  0  0  0  0  0  0  0  0
    2.1142    3.3794   -0.8732 N   0  0  0  0  0  0  0  0  0  0  0  0
    0.9012    2.8382   -1.3070 C   0  0  0  0  0  0  0  0  0  0  0  0
    0.3160    3.1772   -2.1520 H   0  0  0  0  0  0  0  0  0  0  0  0
   -0.1073    0.0565    1.7296 C   0  0  0  0  0  0  0  0  0  0  0  0
    1.0285   -0.1699    2.1459 O   0  0  0  0  0  0  0  0  0  0  0  0
   -1.0395    0.6588    2.4785 N   0  0  0  0  0  0  0  0  0  0  0  0
   -1.9636    0.7597    2.0849 H   0  0  0  0  0  0  0  0  0  0  0  0
   -0.8222    1.1334    3.8425 C   0  0  0  0  0  0  0  0  0  0  0  0
   -0.0212    1.8761    3.8521 H   0  0  0  0  0  0  0  0  0  0  0  0
   -1.7349    1.5853    4.2320 H   0  0  0  0  0  0  0  0  0  0  0  0
   -0.5312    0.2997    4.4834 H   0  0  0  0  0  0  0  0  0  0  0  0
  5  6  2  0  0  0  0
  5  7  1  0  0  0  0
  2  3  1  0  0  0  0
  2  4  1  0  0  0  0
  2  5  1  0  0  0  0
  1  2  1  0  0  0  0
 22 23  2  0  0  0  0
 22 24  1  0  0  0  0
 20 21  1  0  0  0  0
 19 20  1  0  0  0  0
 17 18  1  0  0  0  0
 17 19  2  0  0  0  0
 15 16  1  0  0  0  0
 15 17  1  0  0  0  0
 14 15  1  0  0  0  0
 14 20  2  0  0  0  0
 11 12  1  0  0  0  0
 11 13  1  0  0  0  0
 11 14  1  0  0  0  0
  9 10  1  0  0  0  0
  9 11  1  0  0  0  0
  9 22  1  0  0  0  0
  7  8  1  0  0  0  0
  7  9  1  0  0  0  0
 26 27  1  0  0  0  0
 26 28  1  0  0  0  0
 26 29  1  0  0  0  0
 24 25  1  0  0  0  0
 24 26  1  0  0  0  0
M  END
$$$$
default_name
  -OEChem-02102213163D

 29 29  0     1  0  0  0  0  0999 V2000
   -3.6042   -3.5728    1.4576 H   0  0  0  0  0  0  0  0  0  0  0  0
   -3.5202   -2.6488    0.8866 C   0  0  0  0  0  0  0  0  0  0  0  0
   -4.2052   -1.9048    1.2896 H   0  0  0  0  0  0  0  0  0  0  0  0
   -3.7552   -2.8428   -0.1584 H   0  0  0  0  0  0  0  0  0  0  0  0
   -2.1052   -2.1358    0.9946 C   0  0  0  0  0  0  0  0  0  0  0  0
   -1.2852   -2.7288    1.6826 O   0  0  0  0  0  0  0  0  0  0  0  0
   -1.8202   -1.0288    0.3146 N   0  0  0  0  0  0  0  0  0  0  0  0
   -2.5542   -0.5788   -0.2104 H   0  0  0  0  0  0  0  0  0  0  0  0
   -0.5102   -0.3728    0.3086 C   0  0  1  0  0  0  0  0  0  0  0  0
    0.2354   -1.0844   -0.0490 H   0  0  0  0  0  0  0  0  0  0  0  0
   -0.5452    0.8158   -0.6698 C   0  0  0  0  0  0  0  0  0  0  0  0
   -0.5340    0.4366   -1.6932 H   0  0  0  0  0  0  0  0  0  0  0  0
   -1.4762    1.3673   -0.5264 H   0  0  0  0  0  0  0  0  0  0  0  0
    0.6073    1.7714   -0.5001 C   0  0  0  0  0  0  0  0  0  0  0  0
    1.7706    1.5305    0.1990 N   0  0  0  0  0  0  0  0  0  0  0  0
    1.9728    0.7122    0.7537 H   0  0  0  0  0  0  0  0  0  0  0  0
    2.5894    2.5803    0.0176 C   0  0  0  0  0  0  0  0  0  0  0  0
    3.5778    2.6851    0.4482 H   0  0  0  0  0  0  0  0  0  0  0  0
    2.0103    3.4884   -0.7812 N   0  0  0  0  0  0  0  0  0  0  0  0
    0.7488    2.9876   -1.1134 C   0  0  0  0  0  0  0  0  0  0  0  0
    0.0264    3.4583   -1.7677 H   0  0  0  0  0  0  0  0  0  0  0  0
   -0.1073    0.0565    1.7296 C   0  0  0  0  0  0  0  0  0  0  0  0
    1.0285   -0.1699    2.1459 O   0  0  0  0  0  0  0  0  0  0  0  0
   -1.0395    0.6588    2.4785 N   0  0  0  0  0  0  0  0  0  0  0  0
   -1.9636    0.7597    2.0849 H   0  0  0  0  0  0  0  0  0  0  0  0
   -0.8222    1.1334    3.8425 C   0  0  0  0  0  0  0  0  0  0  0  0
   -0.0212    1.8761    3.8521 H   0  0  0  0  0  0  0  0  0  0  0  0
   -1.7349    1.5853    4.2320 H   0  0  0  0  0  0  0  0  0  0  0  0
   -0.5312    0.2997    4.4834 H   0  0  0  0  0  0  0  0  0  0  0  0
  5  6  2  0  0  0  0
  5  7  1  0  0  0  0
  2  3  1  0  0  0  0
  2  4  1  0  0  0  0
  2  5  1  0  0  0  0
  1  2  1  0  0  0  0
 22 23  2  0  0  0  0
 22 24  1  0  0  0  0
 20 21  1  0  0  0  0
 19 20  1  0  0  0  0
 17 18  1  0  0  0  0
 17 19  2  0  0  0  0
 15 16  1  0  0  0  0
 15 17  1  0  0  0  0
 14 15  1  0  0  0  0
 14 20  2  0  0  0  0
 11 12  1  0  0  0  0
 11 13  1  0  0  0  0
 11 14  1  0  0  0  0
  9 10  1  0  0  0  0
  9 11  1  0  0  0  0
  9 22  1  0  0  0  0
  7  8  1  0  0  0  0
  7  9  1  0  0  0  0
 26 27  1  0  0  0  0
 26 28  1  0  0  0  0
 26 29  1  0  0  0  0
 24 25  1  0  0  0  0
 24 26  1  0  0  0  0
M  END
$$$$
default_name
  -OEChem-02102213163D

 29 29  0     1  0  0  0  0  0999 V2000
   -3.6042   -3.5728    1.4576 H   0  0  0  0  0  0  0  0  0  0  0  0
   -3.5202   -2.6488    0.8866 C   0  0  0  0  0  0  0  0  0  0  0  0
   -4.2052   -1.9048    1.2896 H   0  0  0  0  0  0  0  0  0  0  0  0
   -3.7552   -2.8428   -0.1584 H   0  0  0  0  0  0  0  0  0  0  0  0
   -2.1052   -2.1358    0.9946 C   0  0  0  0  0  0  0  0  0  0  0  0
   -1.2852   -2.7288    1.6826 O   0  0  0  0  0  0  0  0  0  0  0  0
   -1.8202   -1.0288    0.3146 N   0  0  0  0  0  0  0  0  0  0  0  0
   -2.5542   -0.5788   -0.2104 H   0  0  0  0  0  0  0  0  0  0  0  0
   -0.5102   -0.3728    0.3086 C   0  0  1  0  0  0  0  0  0  0  0  0
    0.2354   -1.0844   -0.0490 H   0  0  0  0  0  0  0  0  0  0  0  0
   -0.5452    0.8158   -0.6698 C   0  0  0  0  0  0  0  0  0  0  0  0
   -0.5340    0.4366   -1.6932 H   0  0  0  0  0  0  0  0  0  0  0  0
   -1.4762    1.3673   -0.5264 H   0  0  0  0  0  0  0  0  0  0  0  0
    0.6073    1.7714   -0.5001 C   0  0  0  0  0  0  0  0  0  0  0  0
    1.8740    1.4518   -0.0603 N   0  0  0  0  0  0  0  0  0  0  0  0
    2.1763    0.5510    0.2792 H   0  0  0  0  0  0  0  0  0  0  0  0
    2.6377    2.5531   -0.1572 C   0  0  0  0  0  0  0  0  0  0  0  0
    3.6827    2.6167    0.1206 H   0  0  0  0  0  0  0  0  0  0  0  0
    1.9218    3.5725   -0.6538 N   0  0  0  0  0  0  0  0  0  0  0  0
    0.6289    3.0892   -0.8718 C   0  0  0  0  0  0  0  0  0  0  0  0
   -0.1985    3.6452   -1.2933 H   0  0  0  0  0  0  0  0  0  0  0  0
   -0.1073    0.0565    1.7296 C   0  0  0  0  0  0  0  0  0  0  0  0
    1.0285   -0.1699    2.1459 O   0  0  0  0  0  0  0  0  0  0  0  0
   -1.0395    0.6588    2.4785 N   0  0  0  0  0  0  0  0  0  0  0  0
   -1.9636    0.7597    2.0849 H   0  0  0  0  0  0  0  0  0  0  0  0
   -0.8222    1.1334    3.8425 C   0  0  0  0  0  0  0  0  0  0  0  0
   -0.0212    1.8761    3.8521 H   0  0  0  0  0  0  0  0  0  0  0  0
   -1.7349    1.5853    4.2320 H   0  0  0  0  0  0  0  0  0  0  0  0
   -0.5312    0.2997    4.4834 H   0  0  0  0  0  0  0  0  0  0  0  0
  5  6  2  0  0  0  0
  5  7  1  0  0  0  0
  2  3  1  0  0  0  0
  2  4  1  0  0  0  0
  2  5  1  0  0  0  0
  1  2  1  0  0  0  0
 22 23  2  0  0  0  0
 22 24  1  0  0  0  0
 20 21  1  0  0  0  0
 19 20  1  0  0  0  0
 17 18  1  0  0  0  0
 17 19  2  0  0  0  0
 15 16  1  0  0  0  0
 15 17  1  0  0  0  0
 14 15  1  0  0  0  0
 14 20  2  0  0  0  0
 11 12  1  0  0  0  0
 11 13  1  0  0  0  0
 11 14  1  0  0  0  0
  9 10  1  0  0  0  0
  9 11  1  0  0  0  0
  9 22  1  0  0  0  0
  7  8  1  0  0  0  0
  7  9  1  0  0  0  0
 26 27  1  0  0  0  0
 26 28  1  0  0  0  0
 26 29  1  0  0  0  0
 24 25  1  0  0  0  0
 24 26  1  0  0  0  0
M  END
$$$$
default_name
  -OEChem-02102213163D

 29 29  0     1  0  0  0  0  0999 V2000
   -3.6042   -3.5728    1.4576 H   0  0  0  0  0  0  0  0  0  0  0  0
   -3.5202   -2.6488    0.8866 C   0  0  0  0  0  0  0  0  0  0  0  0
   -4.2052   -1.9048    1.2896 H   0  0  0  0  0  0  0  0  0  0  0  0
   -3.7552   -2.8428   -0.1584 H   0  0  0  0  0  0  0  0  0  0  0  0
   -2.1052   -2.1358    0.9946 C   0  0  0  0  0  0  0  0  0  0  0  0
   -1.2852   -2.7288    1.6826 O   0  0  0  0  0  0  0  0  0  0  0  0
   -1.8202   -1.0288    0.3146 N   0  0  0  0  0  0  0  0  0  0  0  0
   -2.5542   -0.5788   -0.2104 H   0  0  0  0  0  0  0  0  0  0  0  0
   -0.5102   -0.3728    0.3086 C   0  0  1  0  0  0  0  0  0  0  0  0
    0.2354   -1.0844   -0.0490 H   0  0  0  0  0  0  0  0  0  0  0  0
   -0.5452    0.8158   -0.6698 C   0  0  0  0  0  0  0  0  0  0  0  0
   -0.5340    0.4366   -1.6932 H   0  0  0  0  0  0  0  0  0  0  0  0
   -1.4762    1.3673   -0.5264 H   0  0  0  0  0  0  0  0  0  0  0  0
    0.6073    1.7714   -0.5001 C   0  0  0  0  0  0  0  0  0  0  0  0
    1.9336    1.4302   -0.3434 N   0  0  0  0  0  0  0  0  0  0  0  0
    2.2997    0.4951   -0.2445 H   0  0  0  0  0  0  0  0  0  0  0  0
    2.6564    2.5629   -0.3394 C   0  0  0  0  0  0  0  0  0  0  0  0
    3.7323    2.6186   -0.2267 H   0  0  0  0  0  0  0  0  0  0  0  0
    1.8548    3.6259   -0.4996 N   0  0  0  0  0  0  0  0  0  0  0  0
    0.5499    3.1360   -0.5987 C   0  0  0  0  0  0  0  0  0  0  0  0
   -0.3433    3.7253   -0.7612 H   0  0  0  0  0  0  0  0  0  0  0  0
   -0.1073    0.0565    1.7296 C   0  0  0  0  0  0  0  0  0  0  0  0
    1.0285   -0.1699    2.1459 O   0  0  0  0  0  0  0  0  0  0  0  0
   -1.0395    0.6588    2.4785 N   0  0  0  0  0  0  0  0  0  0  0  0
   -1.9636    0.7597    2.0849 H   0  0  0  0  0  0  0  0  0  0  0  0
   -0.8222    1.1334    3.8425 C   0  0  0  0  0  0  0  0  0  0  0  0
   -0.0212    1.8761    3.8521 H   0  0  0  0  0  0  0  0  0  0  0  0
   -1.7349    1.5853    4.2320 H   0  0  0  0  0  0  0  0  0  0  0  0
   -0.5312    0.2997    4.4834 H   0  0  0  0  0  0  0  0  0  0  0  0
  5  6  2  0  0  0  0
  5  7  1  0  0  0  0
  2  3  1  0  0  0  0
  2  4  1  0  0  0  0
  2  5  1  0  0  0  0
  1  2  1  0  0  0  0
 22 23  2  0  0  0  0
 22 24  1  0  0  0  0
 20 21  1  0  0  0  0
 19 20  1  0  0  0  0
 17 18  1  0  0  0  0
 17 19  2  0  0  0  0
 15 16  1  0  0  0  0
 15 17  1  0  0  0  0
 14 15  1  0  0  0  0
 14 20  2  0  0  0  0
 11 12  1  0  0  0  0
 11 13  1  0  0  0  0
 11 14  1  0  0  0  0
  9 10  1  0  0  0  0
  9 11  1  0  0  0  0
  9 22  1  0  0  0  0
  7  8  1  0  0  0  0
  7  9  1  0  0  0  0
 26 27  1  0  0  0  0
 26 28  1  0  0  0  0
 26 29  1  0  0  0  0
 24 25  1  0  0  0  0
 24 26  1  0  0  0  0
M  END
$$$$
default_name
  -OEChem-02102213163D

 29 29  0     1  0  0  0  0  0999 V2000
   -3.6042   -3.5728    1.4576 H   0  0  0  0  0  0  0  0  0  0  0  0
   -3.5202   -2.6488    0.8866 C   0  0  0  0  0  0  0  0  0  0  0  0
   -4.2052   -1.9048    1.2896 H   0  0  0  0  0  0  0  0  0  0  0  0
   -3.7552   -2.8428   -0.1584 H   0  0  0  0  0  0  0  0  0  0  0  0
   -2.1052   -2.1358    0.9946 C   0  0  0  0  0  0  0  0  0  0  0  0
   -1.2852   -2.7288    1.6826 O   0  0  0  0  0  0  0  0  0  0  0  0
   -1.8202   -1.0288    0.3146 N   0  0  0  0  0  0  0  0  0  0  0  0
   -2.5542   -0.5788   -0.2104 H   0  0  0  0  0  0  0  0  0  0  0  0
   -0.5102   -0.3728    0.3086 C   0  0  1  0  0  0  0  0  0  0  0  0
    0.2354   -1.0844   -0.0490 H   0  0  0  0  0  0  0  0  0  0  0  0
   -0.5452    0.8158   -0.6698 C   0  0  0  0  0  0  0  0  0  0  0  0
   -0.5340    0.4366   -1.6932 H   0  0  0  0  0  0  0  0  0  0  0  0
   -1.4762    1.3673   -0.5264 H   0  0  0  0  0  0  0  0  0  0  0  0
    0.6073    1.7714   -0.5001 C   0  0  0  0  0  0  0  0  0  0  0  0
    1.9454    1.4671   -0.6308 N   0  0  0  0  0  0  0  0  0  0  0  0
    2.3346    0.5484   -0.7817 H   0  0  0  0  0  0  0  0  0  0  0  0
    2.6443    2.6089   -0.5165 C   0  0  0  0  0  0  0  0  0  0  0  0
    3.7231    2.6906   -0.5698 H   0  0  0  0  0  0  0  0  0  0  0  0
    1.8139    3.6450   -0.3291 N   0  0  0  0  0  0  0  0  0  0  0  0
    0.5170    3.1249   -0.3126 C   0  0  0  0  0  0  0  0  0  0  0  0
   -0.3981    3.6932   -0.2076 H   0  0  0  0  0  0  0  0  0  0  0  0
   -0.1073    0.0565    1.7296 C   0  0  0  0  0  0  0  0  0  0  0  0
    1.0285   -0.1699    2.1459 O   0  0  0  0  0  0  0  0  0  0  0  0
   -1.0395    0.6588    2.4785 N   0  0  0  0  0  0  0  0  0  0  0  0
   -1.9636    0.7597    2.0849 H   0  0  0  0  0  0  0  0  0  0  0  0
   -0.8222    1.1334    3.8425 C   0  0  0  0  0  0  0  0  0  0  0  0
   -0.0212    1.8761    3.8521 H   0  0  0  0  0  0  0  0  0  0  0  0
   -1.7349    1.5853    4.2320 H   0  0  0  0  0  0  0  0  0  0  0  0
   -0.5312    0.2997    4.4834 H   0  0  0  0  0  0  0  0  0  0  0  0
  5  6  2  0  0  0  0
  5  7  1  0  0  0  0
  2  3  1  0  0  0  0
  2  4  1  0  0  0  0
  2  5  1  0  0  0  0
  1  2  1  0  0  0  0
 22 23  2  0  0  0  0
 22 24  1  0  0  0  0
 20 21  1  0  0  0  0
 19 20  1  0  0  0  0
 17 18  1  0  0  0  0
 17 19  2  0  0  0  0
 15 16  1  0  0  0  0
 15 17  1  0  0  0  0
 14 15  1  0  0  0  0
 14 20  2  0  0  0  0
 11 12  1  0  0  0  0
 11 13  1  0  0  0  0
 11 14  1  0  0  0  0
  9 10  1  0  0  0  0
  9 11  1  0  0  0  0
  9 22  1  0  0  0  0
  7  8  1  0  0  0  0
  7  9  1  0  0  0  0
 26 27  1  0  0  0  0
 26 28  1  0  0  0  0
 26 29  1  0  0  0  0
 24 25  1  0  0  0  0
 24 26  1  0  0  0  0
M  END
$$$$
default_name
  -OEChem-02102213163D

 29 29  0     1  0  0  0  0  0999 V2000
   -3.6042   -3.5728    1.4576 H   0  0  0  0  0  0  0  0  0  0  0  0
   -3.5202   -2.6488    0.8866 C   0  0  0  0  0  0  0  0  0  0  0  0
   -4.2052   -1.9048    1.2896 H   0  0  0  0  0  0  0  0  0  0  0  0
   -3.7552   -2.8428   -0.1584 H   0  0  0  0  0  0  0  0  0  0  0  0
   -2.1052   -2.1358    0.9946 C   0  0  0  0  0  0  0  0  0  0  0  0
   -1.2852   -2.7288    1.6826 O   0  0  0  0  0  0  0  0  0  0  0  0
   -1.8202   -1.0288    0.3146 N   0  0  0  0  0  0  0  0  0  0  0  0
   -2.5542   -0.5788   -0.2104 H   0  0  0  0  0  0  0  0  0  0  0  0
   -0.5102   -0.3728    0.3086 C   0  0  1  0  0  0  0  0  0  0  0  0
    0.2354   -1.0844   -0.0490 H   0  0  0  0  0  0  0  0  0  0  0  0
   -0.5452    0.8158   -0.6698 C   0  0  0  0  0  0  0  0  0  0  0  0
   -0.5340    0.4366   -1.6932 H   0  0  0  0  0  0  0  0  0  0  0  0
   -1.4762    1.3673   -0.5264 H   0  0  0  0  0  0  0  0  0  0  0  0
    0.6073    1.7714   -0.5001 C   0  0  0  0  0  0  0  0  0  0  0  0
    1.9085    1.5599   -0.9031 N   0  0  0  0  0  0  0  0  0  0  0  0
    2.2786    0.7073   -1.2958 H   0  0  0  0  0  0  0  0  0  0  0  0
    2.6022    2.6881   -0.6765 C   0  0  0  0  0  0  0  0  0  0  0  0
    3.6558    2.8278   -0.8856 H   0  0  0  0  0  0  0  0  0  0  0  0
    1.8017    3.6285   -0.1538 N   0  0  0  0  0  0  0  0  0  0  0  0
    0.5326    3.0565   -0.0331 C   0  0  0  0  0  0  0  0  0  0  0  0
   -0.3592    3.5509    0.3298 H   0  0  0  0  0  0  0  0  0  0  0  0
   -0.1073    0.0565    1.7296 C   0  0  0  0  0  0  0  0  0  0  0  0
    1.0285   -0.1699    2.1459 O   0  0  0  0  0  0  0  0  0  0  0  0
   -1.0395    0.6588    2.4785 N   0  0  0  0  0  0  0  0  0  0  0  0
   -1.9636    0.7597    2.0849 H   0  0  0  0  0  0  0  0  0  0  0  0
   -0.8222    1.1334    3.8425 C   0  0  0  0  0  0  0  0  0  0  0  0
   -0.0212    1.8761    3.8521 H   0  0  0  0  0  0  0  0  0  0  0  0
   -1.7349    1.5853    4.2320 H   0  0  0  0  0  0  0  0  0  0  0  0
   -0.5312    0.2997    4.4834 H   0  0  0  0  0  0  0  0  0  0  0  0
  5  6  2  0  0  0  0
  5  7  1  0  0  0  0
  2  3  1  0  0  0  0
  2  4  1  0  0  0  0
  2  5  1  0  0  0  0
  1  2  1  0  0  0  0
 22 23  2  0  0  0  0
 22 24  1  0  0  0  0
 20 21  1  0  0  0  0
 19 20  1  0  0  0  0
 17 18  1  0  0  0  0
 17 19  2  0  0  0  0
 15 16  1  0  0  0  0
 15 17  1  0  0  0  0
 14 15  1  0  0  0  0
 14 20  2  0  0  0  0
 11 12  1  0  0  0  0
 11 13  1  0  0  0  0
 11 14  1  0  0  0  0
  9 10  1  0  0  0  0
  9 11  1  0  0  0  0
  9 22  1  0  0  0  0
  7  8  1  0  0  0  0
  7  9  1  0  0  0  0
 26 27  1  0  0  0  0
 26 28  1  0  0  0  0
 26 29  1  0  0  0  0
 24 25  1  0  0  0  0
 24 26  1  0  0  0  0
M  END
$$$$
default_name
  -OEChem-02102213163D

 29 29  0     1  0  0  0  0  0999 V2000
   -3.6042   -3.5728    1.4576 H   0  0  0  0  0  0  0  0  0  0  0  0
   -3.5202   -2.6488    0.8866 C   0  0  0  0  0  0  0  0  0  0  0  0
   -4.2052   -1.9048    1.2896 H   0  0  0  0  0  0  0  0  0  0  0  0
   -3.7552   -2.8428   -0.1584 H   0  0  0  0  0  0  0  0  0  0  0  0
   -2.1052   -2.1358    0.9946 C   0  0  0  0  0  0  0  0  0  0  0  0
   -1.2852   -2.7288    1.6826 O   0  0  0  0  0  0  0  0  0  0  0  0
   -1.8202   -1.0288    0.3146 N   0  0  0  0  0  0  0  0  0  0  0  0
   -2.5542   -0.5788   -0.2104 H   0  0  0  0  0  0  0  0  0  0  0  0
   -0.5102   -0.3728    0.3086 C   0  0  1  0  0  0  0  0  0  0  0  0
    0.2354   -1.0844   -0.0490 H   0  0  0  0  0  0  0  0  0  0  0  0
   -0.5452    0.8158   -0.6698 C   0  0  0  0  0  0  0  0  0  0  0  0
   -0.5340    0.4366   -1.6932 H   0  0  0  0  0  0  0  0  0  0  0  0
   -1.4762    1.3673   -0.5264 H   0  0  0  0  0  0  0  0  0  0  0  0
    0.6073    1.7714   -0.5001 C   0  0  0  0  0  0  0  0  0  0  0  0
    1.8254    1.7025   -1.1417 N   0  0  0  0  0  0  0  0  0  0  0  0
    2.1354    0.9609   -1.7517 H   0  0  0  0  0  0  0  0  0  0  0  0
    2.5330    2.7950   -0.8084 C   0  0  0  0  0  0  0  0  0  0  0  0
    3.5350    3.0209   -1.1523 H   0  0  0  0  0  0  0  0  0  0  0  0
    1.8193    3.5775    0.0142 N   0  0  0  0  0  0  0  0  0  0  0  0
    0.5955    2.9356    0.2208 C   0  0  0  0  0  0  0  0  0  0  0  0
   -0.2294    3.3082    0.8143 H   0  0  0  0  0  0  0  0  0  0  0  0
   -0.1073    0.0565    1.7296 C   0  0  0  0  0  0  0  0  0  0  0  0
    1.0285   -0.1699    2.1459 O   0  0  0  0  0  0  0  0  0  0  0  0
   -1.0395    0.6588    2.4785 N   0  0  0  0  0  0  0  0  0  0  0  0
   -1.9636    0.7597    2.0849 H   0  0  0  0  0  0  0  0  0  0  0  0
   -0.8222    1.1334    3.8425 C   0  0  0  0  0  0  0  0  0  0  0  0
   -0.0212    1.8761    3.8521 H   0  0  0  0  0  0  0  0  0  0  0  0
   -1.7349    1.5853    4.2320 H   0  0  0  0  0  0  0  0  0  0  0  0
   -0.5312    0.2997    4.4834 H   0  0  0  0  0  0  0  0  0  0  0  0
  5  6  2  0  0  0  0
  5  7  1  0  0  0  0
  2  3  1  0  0  0  0
  2  4  1  0  0  0  0
  2  5  1  0  0  0  0
  1  2  1  0  0  0  0
 22 23  2  0  0  0  0
 22 24  1  0  0  0  0
 20 21  1  0  0  0  0
 19 20  1  0  0  0  0
 17 18  1  0  0  0  0
 17 19  2  0  0  0  0
 15 16  1  0  0  0  0
 15 17  1  0  0  0  0
 14 15  1  0  0  0  0
 14 20  2  0  0  0  0
 11 12  1  0  0  0  0
 11 13  1  0  0  0  0
 11 14  1  0  0  0  0
  9 10  1  0  0  0  0
  9 11  1  0  0  0  0
  9 22  1  0  0  0  0
  7  8  1  0  0  0  0
  7  9  1  0  0  0  0
 26 27  1  0  0  0  0
 26 28  1  0  0  0  0
 26 29  1  0  0  0  0
 24 25  1  0  0  0  0
 24 26  1  0  0  0  0
M  END
$$$$
default_name
  -OEChem-02102213163D

 29 29  0     1  0  0  0  0  0999 V2000
   -3.6042   -3.5728    1.4576 H   0  0  0  0  0  0  0  0  0  0  0  0
   -3.5202   -2.6488    0.8866 C   0  0  0  0  0  0  0  0  0  0  0  0
   -4.2052   -1.9048    1.2896 H   0  0  0  0  0  0  0  0  0  0  0  0
   -3.7552   -2.8428   -0.1584 H   0  0  0  0  0  0  0  0  0  0  0  0
   -2.1052   -2.1358    0.9946 C   0  0  0  0  0  0  0  0  0  0  0  0
   -1.2852   -2.7288    1.6826 O   0  0  0  0  0  0  0  0  0  0  0  0
   -1.8202   -1.0288    0.3146 N   0  0  0  0  0  0  0  0  0  0  0  0
   -2.5542   -0.5788   -0.2104 H   0  0  0  0  0  0  0  0  0  0  0  0
   -0.5102   -0.3728    0.3086 C   0  0  1  0  0  0  0  0  0  0  0  0
    0.2354   -1.0844   -0.0490 H   0  0  0  0  0  0  0  0  0  0  0  0
   -0.5452    0.8158   -0.6698 C   0  0  0  0  0  0  0  0  0  0  0  0
   -0.5340    0.4366   -1.6932 H   0  0  0  0  0  0  0  0  0  0  0  0
   -1.4762    1.3673   -0.5264 H   0  0  0  0  0  0  0  0  0  0  0  0
    0.6073    1.7714   -0.5001 C   0  0  0  0  0  0  0  0  0  0  0  0
    1.7019    1.8850   -1.3303 N   0  0  0  0  0  0  0  0  0  0  0  0
    1.9149    1.2920   -2.1184 H   0  0  0  0  0  0  0  0  0  0  0  0
    2.4414    2.9224   -0.9033 C   0  0  0  0  0  0  0  0  0  0  0  0
    3.3689    3.2567   -1.3519 H   0  0  0  0  0  0  0  0  0  0  0  0
    1.8653    3.4955    0.1635 N   0  0  0  0  0  0  0  0  0  0  0  0
    0.7014    2.7704    0.4318 C   0  0  0  0  0  0  0  0  0  0  0  0
   -0.0173    2.9817    1.2130 H   0  0  0  0  0  0  0  0  0  0  0  0
   -0.1073    0.0565    1.7296 C   0  0  0  0  0  0  0  0  0  0  0  0
    1.0285   -0.1699    2.1459 O   0  0  0  0  0  0  0  0  0  0  0  0
   -1.0395    0.6588    2.4785 N   0  0  0  0  0  0  0  0  0  0  0  0
   -1.9636    0.7597    2.0849 H   0  0  0  0  0  0  0  0  0  0  0  0
   -0.8222    1.1334    3.8425 C   0  0  0  0  0  0  0  0  0  0  0  0
   -0.0212    1.8761    3.8521 H   0  0  0  0  0  0  0  0  0  0  0  0
   -1.7349    1.5853    4.2320 H   0  0  0  0  0  0  0  0  0  0  0  0
   -0.5312    0.2997    4.4834 H   0  0  0  0  0  0  0  0  0  0  0  0
  5  6  2  0  0  0  0
  5  7  1  0  0  0  0
  2  3  1  0  0  0  0
  2  4  1  0  0  0  0
  2  5  1  0  0  0  0
  1  2  1  0  0  0  0
 22 23  2  0  0  0  0
 22 24  1  0  0  0  0
 20 21  1  0  0  0  0
 19 20  1  0  0  0  0
 17 18  1  0  0  0  0
 17 19  2  0  0  0  0
 15 16  1  0  0  0  0
 15 17  1  0  0  0  0
 14 15  1  0  0  0  0
 14 20  2  0  0  0  0
 11 12  1  0  0  0  0
 11 13  1  0  0  0  0
 11 14  1  0  0  0  0
  9 10  1  0  0  0  0
  9 11  1  0  0  0  0
  9 22  1  0  0  0  0
  7  8  1  0  0  0  0
  7  9  1  0  0  0  0
 26 27  1  0  0  0  0
 26 28  1  0  0  0  0
 26 29  1  0  0  0  0
 24 25  1  0  0  0  0
 24 26  1  0  0  0  0
M  END
$$$$
default_name
  -OEChem-02102213163D

 29 29  0     1  0  0  0  0  0999 V2000
   -3.6042   -3.5728    1.4576 H   0  0  0  0  0  0  0  0  0  0  0  0
   -3.5202   -2.6488    0.8866 C   0  0  0  0  0  0  0  0  0  0  0  0
   -4.2052   -1.9048    1.2896 H   0  0  0  0  0  0  0  0  0  0  0  0
   -3.7552   -2.8428   -0.1584 H   0  0  0  0  0  0  0  0  0  0  0  0
   -2.1052   -2.1358    0.9946 C   0  0  0  0  0  0  0  0  0  0  0  0
   -1.2852   -2.7288    1.6826 O   0  0  0  0  0  0  0  0  0  0  0  0
   -1.8202   -1.0288    0.3146 N   0  0  0  0  0  0  0  0  0  0  0  0
   -2.5542   -0.5788   -0.2104 H   0  0  0  0  0  0  0  0  0  0  0  0
   -0.5102   -0.3728    0.3086 C   0  0  1  0  0  0  0  0  0  0  0  0
    0.2354   -1.0844   -0.0490 H   0  0  0  0  0  0  0  0  0  0  0  0
   -0.5452    0.8158   -0.6698 C   0  0  0  0  0  0  0  0  0  0  0  0
   -0.5340    0.4366   -1.6932 H   0  0  0  0  0  0  0  0  0  0  0  0
   -1.4762    1.3673   -0.5264 H   0  0  0  0  0  0  0  0  0  0  0  0
    0.6073    1.7714   -0.5001 C   0  0  0  0  0  0  0  0  0  0  0  0
    1.5463    2.0950   -1.4560 N   0  0  0  0  0  0  0  0  0  0  0  0
    1.6321    1.6779   -2.3708 H   0  0  0  0  0  0  0  0  0  0  0  0
    2.3335    3.0616   -0.9547 C   0  0  0  0  0  0  0  0  0  0  0  0
    3.1688    3.5191   -1.4708 H   0  0  0  0  0  0  0  0  0  0  0  0
    1.9366    3.3881    0.2839 N   0  0  0  0  0  0  0  0  0  0  0  0
    0.8432    2.5721    0.5855 C   0  0  0  0  0  0  0  0  0  0  0  0
    0.2625    2.5935    1.4986 H   0  0  0  0  0  0  0  0  0  0  0  0
   -0.1073    0.0565    1.7296 C   0  0  0  0  0  0  0  0  0  0  0  0
    1.0285   -0.1699    2.1459 O   0  0  0  0  0  0  0  0  0  0  0  0
   -1.0395    0.6588    2.4785 N   0  0  0  0  0  0  0  0  0  0  0  0
   -1.9636    0.7597    2.0849 H   0  0  0  0  0  0  0  0  0  0  0  0
   -0.8222    1.1334    3.8425 C   0  0  0  0  0  0  0  0  0  0  0  0
   -0.0212    1.8761    3.8521 H   0  0  0  0  0  0  0  0  0  0  0  0
   -1.7349    1.5853    4.2320 H   0  0  0  0  0  0  0  0  0  0  0  0
   -0.5312    0.2997    4.4834 H   0  0  0  0  0  0  0  0  0  0  0  0
  5  6  2  0  0  0  0
  5  7  1  0  0  0  0
  2  3  1  0  0  0  0
  2  4  1  0  0  0  0
  2  5  1  0  0  0  0
  1  2  1  0  0  0  0
 22 23  2  0  0  0  0
 22 24  1  0  0  0  0
 20 21  1  0  0  0  0
 19 20  1  0  0  0  0
 17 18  1  0  0  0  0
 17 19  2  0  0  0  0
 15 16  1  0  0  0  0
 15 17  1  0  0  0  0
 14 15  1  0  0  0  0
 14 20  2  0  0  0  0
 11 12  1  0  0  0  0
 11 13  1  0  0  0  0
 11 14  1  0  0  0  0
  9 10  1  0  0  0  0
  9 11  1  0  0  0  0
  9 22  1  0  0  0  0
  7  8  1  0  0  0  0
  7  9  1  0  0  0  0
 26 27  1  0  0  0  0
 26 28  1  0  0  0  0
 26 29  1  0  0  0  0
 24 25  1  0  0  0  0
 24 26  1  0  0  0  0
M  END
$$$$
default_name
  -OEChem-02102213163D

 29 29  0     1  0  0  0  0  0999 V2000
   -3.6042   -3.5728    1.4576 H   0  0  0  0  0  0  0  0  0  0  0  0
   -3.5202   -2.6488    0.8866 C   0  0  0  0  0  0  0  0  0  0  0  0
   -4.2052   -1.9048    1.2896 H   0  0  0  0  0  0  0  0  0  0  0  0
   -3.7552   -2.8428   -0.1584 H   0  0  0  0  0  0  0  0  0  0  0  0
   -2.1052   -2.1358    0.9946 C   0  0  0  0  0  0  0  0  0  0  0  0
   -1.2852   -2.7288    1.6826 O   0  0  0  0  0  0  0  0  0  0  0  0
   -1.8202   -1.0288    0.3146 N   0  0  0  0  0  0  0  0  0  0  0  0
   -2.5542   -0.5788   -0.2104 H   0  0  0  0  0  0  0  0  0  0  0  0
   -0.5102   -0.3728    0.3086 C   0  0  1  0  0  0  0  0  0  0  0  0
    0.2354   -1.0844   -0.0490 H   0  0  0  0  0  0  0  0  0  0  0  0
   -0.5452    0.8158   -0.6698 C   0  0  0  0  0  0  0  0  0  0  0  0
   -0.5340    0.4366   -1.6932 H   0  0  0  0  0  0  0  0  0  0  0  0
   -1.4762    1.3673   -0.5264 H   0  0  0  0  0  0  0  0  0  0  0  0
    0.6073    1.7714   -0.5001 C   0  0  0  0  0  0  0  0  0  0  0  0
    1.3692    2.3182   -1.5104 N   0  0  0  0  0  0  0  0  0  0  0  0
    1.3063    2.0924   -2.4918 H   0  0  0  0  0  0  0  0  0  0  0  0
    2.2169    3.2030   -0.9592 C   0  0  0  0  0  0  0  0  0  0  0  0
    2.9483    3.7903   -1.5008 H   0  0  0  0  0  0  0  0  0  0  0  0
    2.0284    3.2626    0.3672 N   0  0  0  0  0  0  0  0  0  0  0  0
    1.0111    2.3543    0.6714 C   0  0  0  0  0  0  0  0  0  0  0  0
    0.5909    2.1701    1.6517 H   0  0  0  0  0  0  0  0  0  0  0  0
   -0.1073    0.0565    1.7296 C   0  0  0  0  0  0  0  0  0  0  0  0
    1.0285   -0.1699    2.1459 O   0  0  0  0  0  0  0  0  0  0  0  0
   -1.0395    0.6588    2.4785 N   0  0  0  0  0  0  0  0  0  0  0  0
   -1.9636    0.7597    2.0849 H   0  0  0  0  0  0  0  0  0  0  0  0
   -0.8222    1.1334    3.8425 C   0  0  0  0  0  0  0  0  0  0  0  0
   -0.0212    1.8761    3.8521 H   0  0  0  0  0  0  0  0  0  0  0  0
   -1.7349    1.5853    4.2320 H   0  0  0  0  0  0  0  0  0  0  0  0
   -0.5312    0.2997    4.4834 H   0  0  0  0  0  0  0  0  0  0  0  0
  5  6  2  0  0  0  0
  5  7  1  0  0  0  0
  2  3  1  0  0  0  0
  2  4  1  0  0  0  0
  2  5  1  0  0  0  0
  1  2  1  0  0  0  0
 22 23  2  0  0  0  0
 22 24  1  0  0  0  0
 20 21  1  0  0  0  0
 19 20  1  0  0  0  0
 17 18  1  0  0  0  0
 17 19  2  0  0  0  0
 15 16  1  0  0  0  0
 15 17  1  0  0  0  0
 14 15  1  0  0  0  0
 14 20  2  0  0  0  0
 11 12  1  0  0  0  0
 11 13  1  0  0  0  0
 11 14  1  0  0  0  0
  9 10  1  0  0  0  0
  9 11  1  0  0  0  0
  9 22  1  0  0  0  0
  7  8  1  0  0  0  0
  7  9  1  0  0  0  0
 26 27  1  0  0  0  0
 26 28  1  0  0  0  0
 26 29  1  0  0  0  0
 24 25  1  0  0  0  0
 24 26  1  0  0  0  0
M  END
$$$$
default_name
  -OEChem-02102213163D

 29 29  0     1  0  0  0  0  0999 V2000
   -3.6042   -3.5728    1.4576 H   0  0  0  0  0  0  0  0  0  0  0  0
   -3.5202   -2.6488    0.8866 C   0  0  0  0  0  0  0  0  0  0  0  0
   -4.2052   -1.9048    1.2896 H   0  0  0  0  0  0  0  0  0  0  0  0
   -3.7552   -2.8428   -0.1584 H   0  0  0  0  0  0  0  0  0  0  0  0
   -2.1052   -2.1358    0.9946 C   0  0  0  0  0  0  0  0  0  0  0  0
   -1.2852   -2.7288    1.6826 O   0  0  0  0  0  0  0  0  0  0  0  0
   -1.8202   -1.0288    0.3146 N   0  0  0  0  0  0  0  0  0  0  0  0
   -2.5542   -0.5788   -0.2104 H   0  0  0  0  0  0  0  0  0  0  0  0
   -0.5102   -0.3728    0.3086 C   0  0  1  0  0  0  0  0  0  0  0  0
    0.2354   -1.0844   -0.0490 H   0  0  0  0  0  0  0  0  0  0  0  0
   -0.5452    0.8158   -0.6698 C   0  0  0  0  0  0  0  0  0  0  0  0
   -0.5340    0.4366   -1.6932 H   0  0  0  0  0  0  0  0  0  0  0  0
   -1.4762    1.3673   -0.5264 H   0  0  0  0  0  0  0  0  0  0  0  0
    0.6073    1.7714   -0.5001 C   0  0  0  0  0  0  0  0  0  0  0  0
    1.1827    2.5394   -1.4896 N   0  0  0  0  0  0  0  0  0  0  0  0
    0.9596    2.5072   -2.4731 H   0  0  0  0  0  0  0  0  0  0  0  0
    2.0994    3.3372   -0.9163 C   0  0  0  0  0  0  0  0  0  0  0  0
    2.7226    4.0518   -1.4399 H   0  0  0  0  0  0  0  0  0  0  0  0
    2.1344    3.1275    0.4078 N   0  0  0  0  0  0  0  0  0  0  0  0
    1.1938    2.1317    0.6837 C   0  0  0  0  0  0  0  0  0  0  0  0
    0.9457    1.7405    1.6619 H   0  0  0  0  0  0  0  0  0  0  0  0
   -0.1073    0.0565    1.7296 C   0  0  0  0  0  0  0  0  0  0  0  0
    1.0285   -0.1699    2.1459 O   0  0  0  0  0  0  0  0  0  0  0  0
   -1.0395    0.6588    2.4785 N   0  0  0  0  0  0  0  0  0  0  0  0
   -1.9636    0.7597    2.0849 H   0  0  0  0  0  0  0  0  0  0  0  0
   -0.8222    1.1334    3.8425 C   0  0  0  0  0  0  0  0  0  0  0  0
   -0.0212    1.8761    3.8521 H   0  0  0  0  0  0  0  0  0  0  0  0
   -1.7349    1.5853    4.2320 H   0  0  0  0  0  0  0  0  0  0  0  0
   -0.5312    0.2997    4.4834 H   0  0  0  0  0  0  0  0  0  0  0  0
  5  6  2  0  0  0  0
  5  7  1  0  0  0  0
  2  3  1  0  0  0  0
  2  4  1  0  0  0  0
  2  5  1  0  0  0  0
  1  2  1  0  0  0  0
 22 23  2  0  0  0  0
 22 24  1  0  0  0  0
 20 21  1  0  0  0  0
 19 20  1  0  0  0  0
 17 18  1  0  0  0  0
 17 19  2  0  0  0  0
 15 16  1  0  0  0  0
 15 17  1  0  0  0  0
 14 15  1  0  0  0  0
 14 20  2  0  0  0  0
 11 12  1  0  0  0  0
 11 13  1  0  0  0  0
 11 14  1  0  0  0  0
  9 10  1  0  0  0  0
  9 11  1  0  0  0  0
  9 22  1  0  0  0  0
  7  8  1  0  0  0  0
  7  9  1  0  0  0  0
 26 27  1  0  0  0  0
 26 28  1  0  0  0  0
 26 29  1  0  0  0  0
 24 25  1  0  0  0  0
 24 26  1  0  0  0  0
M  END
$$$$
default_name
  -OEChem-02102213163D

 29 29  0     1  0  0  0  0  0999 V2000
   -3.6042   -3.5728    1.4576 H   0  0  0  0  0  0  0  0  0  0  0  0
   -3.5202   -2.6488    0.8866 C   0  0  0  0  0  0  0  0  0  0  0  0
   -4.2052   -1.9048    1.2896 H   0  0  0  0  0  0  0  0  0  0  0  0
   -3.7552   -2.8428   -0.1584 H   0  0  0  0  0  0  0  0  0  0  0  0
   -2.1052   -2.1358    0.9946 C   0  0  0  0  0  0  0  0  0  0  0  0
   -1.2852   -2.7288    1.6826 O   0  0  0  0  0  0  0  0  0  0  0  0
   -1.8202   -1.0288    0.3146 N   0  0  0  0  0  0  0  0  0  0  0  0
   -2.5542   -0.5788   -0.2104 H   0  0  0  0  0  0  0  0  0  0  0  0
   -0.5102   -0.3728    0.3086 C   0  0  1  0  0  0  0  0  0  0  0  0
    0.2354   -1.0844   -0.0490 H   0  0  0  0  0  0  0  0  0  0  0  0
   -0.5452    0.8158   -0.6698 C   0  0  0  0  0  0  0  0  0  0  0  0
   -0.5340    0.4366   -1.6932 H   0  0  0  0  0  0  0  0  0  0  0  0
   -1.4762    1.3673   -0.5264 H   0  0  0  0  0  0  0  0  0  0  0  0
    0.6073    1.7714   -0.5001 C   0  0  0  0  0  0  0  0  0  0  0  0
    0.9996    2.7435   -1.3952 N   0  0  0  0  0  0  0  0  0  0  0  0
    0.6157    2.8941   -2.3161 H   0  0  0  0  0  0  0  0  0  0  0  0
    1.9890    3.4548   -0.8290 C   0  0  0  0  0  0  0  0  0  0  0  0
    2.5069    4.2857   -1.2922 H   0  0  0  0  0  0  0  0  0  0  0  0
    2.2474    2.9921    0.4029 N   0  0  0  0  0  0  0  0  0  0  0  0
    1.3787    1.9197    0.6216 C   0  0  0  0  0  0  0  0  0  0  0  0
    1.3025    1.3338    1.5284 H   0  0  0  0  0  0  0  0  0  0  0  0
   -0.1073    0.0565    1.7296 C   0  0  0  0  0  0  0  0  0  0  0  0
    1.0285   -0.1699    2.1459 O   0  0  0  0  0  0  0  0  0  0  0  0
   -1.0395    0.6588    2.4785 N   0  0  0  0  0  0  0  0  0  0  0  0
   -1.9636    0.7597    2.0849 H   0  0  0  0  0  0  0  0  0  0  0  0
   -0.8222    1.1334    3.8425 C   0  0  0  0  0  0  0  0  0  0  0  0
   -0.0212    1.8761    3.8521 H   0  0  0  0  0  0  0  0  0  0  0  0
   -1.7349    1.5853    4.2320 H   0  0  0  0  0  0  0  0  0  0  0  0
   -0.5312    0.2997    4.4834 H   0  0  0  0  0  0  0  0  0  0  0  0
  5  6  2  0  0  0  0
  5  7  1  0  0  0  0
  2  3  1  0  0  0  0
  2  4  1  0  0  0  0
  2  5  1  0  0  0  0
  1  2  1  0  0  0  0
 22 23  2  0  0  0  0
 22 24  1  0  0  0  0
 20 21  1  0  0  0  0
 19 20  1  0  0  0  0
 17 18  1  0  0  0  0
 17 19  2  0  0  0  0
 15 16  1  0  0  0  0
 15 17  1  0  0  0  0
 14 15  1  0  0  0  0
 14 20  2  0  0  0  0
 11 12  1  0  0  0  0
 11 13  1  0  0  0  0
 11 14  1  0  0  0  0
  9 10  1  0  0  0  0
  9 11  1  0  0  0  0
  9 22  1  0  0  0  0
  7  8  1  0  0  0  0
  7  9  1  0  0  0  0
 26 27  1  0  0  0  0
 26 28  1  0  0  0  0
 26 29  1  0  0  0  0
 24 25  1  0  0  0  0
 24 26  1  0  0  0  0
M  END
$$$$
