@<TRIPOS>MOLECULE
default_name
   29    29     1     0     0
SMALL
No Charge or Current Charge


@<TRIPOS>ATOM
      1 H1          26.5470    25.1270    24.8960 H          1 ACE       0.112300
      2 CH3         26.3840    26.1110    24.4590 C.3        1 ACE      -0.366200
      3 H2          25.7220    26.6910    25.0990 H          1 ACE       0.112300
      4 H3          25.9440    26.0050    23.4690 H          1 ACE       0.112300
      5 C           27.7110    26.8230    24.3400 C.2        1 ACE       0.597200
      6 O           28.7420    26.2690    24.7000 O.2        1 ACE      -0.567900
      7 N           27.6830    28.0530    23.8320 N.am       2 HIE      -0.415700
      8 H           26.7890    28.4640    23.6000 H          2 HIE       0.271900
      9 CA          28.8550    28.9300    23.7090 C.3        2 HIE      -0.058100
     10 HA          29.4780    28.7920    24.5950 H          2 HIE       0.136000
     11 CB          29.6800    28.5250    22.4720 C.3        2 HIE      -0.007400
     12 HB2         29.5540    27.4590    22.2770 H          2 HIE       0.036700
     13 HB3         29.3190    29.0640    21.5950 H          2 HIE       0.036700
     14 CG          31.1580    28.7780    22.6440 C.2        2 HIE       0.186800
     15 ND1         31.7950    30.0140    22.5260 N.2        2 HIE      -0.543200
     16 CE1         33.0880    29.7910    22.8030 C.2        2 HIE       0.163500
     17 HE1         33.8580    30.5520    22.7870 H          2 HIE       0.143500
     18 NE2         33.2860    28.4980    23.1100 N.pl3      2 HIE      -0.279500
     19 HE2         34.1710    28.0870    23.3740 H          2 HIE       0.333900
     20 CD2         32.0780    27.8430    23.0190 C.2        2 HIE      -0.220700
     21 HD2         31.8750    26.7990    23.2220 H          2 HIE       0.186200
     22 C           28.4270    30.4080    23.6730 C.2        2 HIE       0.597300
     23 O           27.2320    30.7030    23.6540 O.2        2 HIE      -0.567900
     24 N           29.3920    31.3330    23.6730 N.am       3 NME      -0.415700
     25 H           30.3460    31.0020    23.5820 H          3 NME       0.271900
     26 CH3         29.1640    32.7760    23.6550 C.3        3 NME      -0.149000
     27 HH31        28.2750    33.0230    24.2410 H          3 NME       0.097600
     28 HH32        30.0260    33.2930    24.0790 H          3 NME       0.097600
     29 HH33        29.0120    33.1090    22.6270 H          3 NME       0.097600
@<TRIPOS>BOND
     1     5     6 2   
     2     5     7 am  
     3     2     3 1   
     4     2     4 1   
     5     2     5 1   
     6     1     2 1   
     7    22    23 2   
     8    22    24 am  
     9    20    21 1   
    10    18    19 1   
    11    18    20 1   
    12    16    17 1   
    13    16    18 1   
    14    15    16 2   
    15    14    15 1   
    16    14    20 2   
    17    11    12 1   
    18    11    13 1   
    19    11    14 1   
    20     9    10 1   
    21     9    11 1   
    22     9    22 1   
    23     7     8 1   
    24     7     9 1   
    25    26    27 1   
    26    26    28 1   
    27    26    29 1   
    28    24    25 1   
    29    24    26 1   
@<TRIPOS>SUBSTRUCTURE
     1 ACE         1 TEMP              0 ****  ****    0 ROOT
