
  -OEChem-02062319033D

 51 50  0     1  0  0  0  0  0999 V2000
    3.4018   -1.2440   -3.0186 C   0  0  0  0  0  0  0  0  0  0  0  0
    3.2697   -2.0909   -2.1427 O   0  0  0  0  0  0  0  0  0  0  0  0
    4.6845   -1.1645   -3.7779 C   0  0  0  0  0  0  0  0  0  0  0  0
    5.4123   -0.4862   -3.3041 H   0  0  0  0  0  0  0  0  0  0  0  0
    5.1949   -2.1387   -3.8443 H   0  0  0  0  0  0  0  0  0  0  0  0
    4.5953   -0.8128   -4.8182 H   0  0  0  0  0  0  0  0  0  0  0  0
    2.4540   -0.3103   -3.4040 N   0  0  0  0  0  0  0  0  0  0  0  0
    1.1494   -0.2128   -2.8039 C   0  0  2  0  0  0  0  0  0  0  0  0
    1.3350    0.0367   -1.3130 C   0  0  0  0  0  0  0  0  0  0  0  0
    2.3625   -0.2586   -0.7063 O   0  0  0  0  0  0  0  0  0  0  0  0
    0.3331   -1.4728   -3.0467 C   0  0  0  0  0  0  0  0  0  0  0  0
    2.6924    0.3404   -4.1502 H   0  0  0  0  0  0  0  0  0  0  0  0
    0.6550    0.6514   -3.2607 H   0  0  0  0  0  0  0  0  0  0  0  0
    0.8129   -2.3494   -2.5963 H   0  0  0  0  0  0  0  0  0  0  0  0
   -0.6690   -1.3857   -2.6142 H   0  0  0  0  0  0  0  0  0  0  0  0
    0.2259   -1.6670   -4.1194 H   0  0  0  0  0  0  0  0  0  0  0  0
    0.2019    0.5893   -0.7269 N   0  0  0  0  0  0  0  0  0  0  0  0
    0.1284    0.9170    0.6732 C   0  0  2  0  0  0  0  0  0  0  0  0
    0.3519   -0.3770    1.4497 C   0  0  0  0  0  0  0  0  0  0  0  0
    1.0636   -0.4429    2.4498 O   0  0  0  0  0  0  0  0  0  0  0  0
   -1.2218    1.5376    1.0541 C   0  0  0  0  0  0  0  0  0  0  0  0
   -1.4993    2.9186    0.4261 C   0  0  0  0  0  0  0  0  0  0  0  0
   -2.9273    3.3596    0.7591 C   0  0  0  0  0  0  0  0  0  0  0  0
   -1.3003    2.9198   -1.0902 C   0  0  0  0  0  0  0  0  0  0  0  0
   -0.6008    0.8098   -1.3126 H   0  0  0  0  0  0  0  0  0  0  0  0
    0.9557    1.6017    0.8850 H   0  0  0  0  0  0  0  0  0  0  0  0
   -1.2724    1.6323    2.1480 H   0  0  0  0  0  0  0  0  0  0  0  0
   -2.0304    0.8483    0.7766 H   0  0  0  0  0  0  0  0  0  0  0  0
   -0.8155    3.6566    0.8631 H   0  0  0  0  0  0  0  0  0  0  0  0
   -3.6583    2.6564    0.3458 H   0  0  0  0  0  0  0  0  0  0  0  0
   -3.1389    4.3466    0.3344 H   0  0  0  0  0  0  0  0  0  0  0  0
   -3.0847    3.4150    1.8417 H   0  0  0  0  0  0  0  0  0  0  0  0
   -1.9626    2.1966   -1.5781 H   0  0  0  0  0  0  0  0  0  0  0  0
   -1.5142    3.9092   -1.5089 H   0  0  0  0  0  0  0  0  0  0  0  0
   -0.2685    2.6733   -1.3574 H   0  0  0  0  0  0  0  0  0  0  0  0
   -0.3777   -1.4333    0.9220 N   0  0  0  0  0  0  0  0  0  0  0  0
   -0.3661   -2.7642    1.4854 C   0  0  2  0  0  0  0  0  0  0  0  0
   -0.3630   -2.6325    3.0027 C   0  0  0  0  0  0  0  0  0  0  0  0
    0.0245   -1.6231    3.5876 O   0  0  0  0  0  0  0  0  0  0  0  0
    0.8395   -3.5575    1.0062 C   0  0  0  0  0  0  0  0  0  0  0  0
   -0.9607   -1.2757    0.1054 H   0  0  0  0  0  0  0  0  0  0  0  0
   -1.2921   -3.2523    1.1626 H   0  0  0  0  0  0  0  0  0  0  0  0
    1.7767   -3.0837    1.3202 H   0  0  0  0  0  0  0  0  0  0  0  0
    0.8316   -4.5748    1.4112 H   0  0  0  0  0  0  0  0  0  0  0  0
    0.8516   -3.6258   -0.0870 H   0  0  0  0  0  0  0  0  0  0  0  0
   -0.8031   -3.7907    3.6280 N   0  0  0  0  0  0  0  0  0  0  0  0
   -0.8798   -3.9203    5.0644 C   0  0  0  0  0  0  0  0  0  0  0  0
   -1.1230   -4.5725    3.0638 H   0  0  0  0  0  0  0  0  0  0  0  0
    0.0565   -4.3550    5.4444 H   0  0  0  0  0  0  0  0  0  0  0  0
   -1.0324   -2.9282    5.5143 H   0  0  0  0  0  0  0  0  0  0  0  0
   -1.7222   -4.5763    5.3288 H   0  0  0  0  0  0  0  0  0  0  0  0
  1  3  1  0  0  0  0
  1  7  1  0  0  0  0
  1  2  2  0  0  0  0
 37 38  1  0  0  0  0
 38 46  1  0  0  0  0
 38 39  2  0  0  0  0
  8  9  1  0  0  0  0
  9 17  1  0  0  0  0
  9 10  2  0  0  0  0
 18 19  1  0  0  0  0
 19 36  1  0  0  0  0
 19 20  2  0  0  0  0
 37 40  1  0  0  0  0
  8 11  1  0  0  0  0
 22 23  1  0  0  0  0
 22 24  1  0  0  0  0
 46 47  1  0  0  0  0
 18 21  1  0  0  0  0
 21 22  1  0  0  0  0
 36 37  1  0  0  0  0
  7  8  1  0  0  0  0
 17 18  1  0  0  0  0
  3  4  1  0  0  0  0
  3  5  1  0  0  0  0
  3  6  1  0  0  0  0
 40 43  1  0  0  0  0
 40 44  1  0  0  0  0
 40 45  1  0  0  0  0
 11 14  1  0  0  0  0
 11 15  1  0  0  0  0
 11 16  1  0  0  0  0
 23 30  1  0  0  0  0
 23 31  1  0  0  0  0
 23 32  1  0  0  0  0
 24 33  1  0  0  0  0
 24 34  1  0  0  0  0
 24 35  1  0  0  0  0
 47 49  1  0  0  0  0
 47 50  1  0  0  0  0
 47 51  1  0  0  0  0
 21 27  1  0  0  0  0
 21 28  1  0  0  0  0
 37 42  1  0  0  0  0
  8 13  1  0  0  0  0
 18 26  1  0  0  0  0
 22 29  1  0  0  0  0
 46 48  1  0  0  0  0
  7 12  1  0  0  0  0
 36 41  1  0  0  0  0
 17 25  1  0  0  0  0
M  END
$$$$

  -OEChem-02062319033D

 51 50  0     1  0  0  0  0  0999 V2000
    3.4018   -1.2440   -3.0186 C   0  0  0  0  0  0  0  0  0  0  0  0
    3.2697   -2.0909   -2.1427 O   0  0  0  0  0  0  0  0  0  0  0  0
    4.6845   -1.1645   -3.7779 C   0  0  0  0  0  0  0  0  0  0  0  0
    5.4123   -0.4862   -3.3041 H   0  0  0  0  0  0  0  0  0  0  0  0
    5.1949   -2.1387   -3.8443 H   0  0  0  0  0  0  0  0  0  0  0  0
    4.5953   -0.8128   -4.8182 H   0  0  0  0  0  0  0  0  0  0  0  0
    2.4540   -0.3103   -3.4040 N   0  0  0  0  0  0  0  0  0  0  0  0
    1.1494   -0.2128   -2.8039 C   0  0  2  0  0  0  0  0  0  0  0  0
    1.3350    0.0367   -1.3130 C   0  0  0  0  0  0  0  0  0  0  0  0
    2.3625   -0.2586   -0.7063 O   0  0  0  0  0  0  0  0  0  0  0  0
    0.3331   -1.4728   -3.0467 C   0  0  0  0  0  0  0  0  0  0  0  0
    2.6924    0.3404   -4.1502 H   0  0  0  0  0  0  0  0  0  0  0  0
    0.6550    0.6514   -3.2607 H   0  0  0  0  0  0  0  0  0  0  0  0
    0.8129   -2.3494   -2.5963 H   0  0  0  0  0  0  0  0  0  0  0  0
   -0.6690   -1.3857   -2.6142 H   0  0  0  0  0  0  0  0  0  0  0  0
    0.2259   -1.6670   -4.1194 H   0  0  0  0  0  0  0  0  0  0  0  0
    0.2019    0.5893   -0.7269 N   0  0  0  0  0  0  0  0  0  0  0  0
    0.2175    1.2037    0.5752 C   0  0  2  0  0  0  0  0  0  0  0  0
    0.6647    0.1370    1.5698 C   0  0  0  0  0  0  0  0  0  0  0  0
    1.4674    0.3595    2.4739 O   0  0  0  0  0  0  0  0  0  0  0  0
   -1.1571    1.7566    0.9727 C   0  0  0  0  0  0  0  0  0  0  0  0
   -1.6546    2.9348    0.1106 C   0  0  0  0  0  0  0  0  0  0  0  0
   -3.0889    3.2952    0.5075 C   0  0  0  0  0  0  0  0  0  0  0  0
   -1.5962    2.6269   -1.3862 C   0  0  0  0  0  0  0  0  0  0  0  0
   -0.6715    0.5978   -1.2495 H   0  0  0  0  0  0  0  0  0  0  0  0
    0.9724    1.9959    0.5457 H   0  0  0  0  0  0  0  0  0  0  0  0
   -1.1188    2.0807    2.0223 H   0  0  0  0  0  0  0  0  0  0  0  0
   -1.8989    0.9477    0.9371 H   0  0  0  0  0  0  0  0  0  0  0  0
   -1.0275    3.8133    0.3056 H   0  0  0  0  0  0  0  0  0  0  0  0
   -3.7647    2.4509    0.3338 H   0  0  0  0  0  0  0  0  0  0  0  0
   -3.4553    4.1411   -0.0837 H   0  0  0  0  0  0  0  0  0  0  0  0
   -3.1525    3.5681    1.5664 H   0  0  0  0  0  0  0  0  0  0  0  0
   -2.2085    1.7538   -1.6361 H   0  0  0  0  0  0  0  0  0  0  0  0
   -1.9648    3.4762   -1.9717 H   0  0  0  0  0  0  0  0  0  0  0  0
   -0.5710    2.4307   -1.7135 H   0  0  0  0  0  0  0  0  0  0  0  0
    0.0223   -1.0749    1.3573 N   0  0  0  0  0  0  0  0  0  0  0  0
    0.2450   -2.2443    2.1768 C   0  0  2  0  0  0  0  0  0  0  0  0
    0.3706   -1.7874    3.6242 C   0  0  0  0  0  0  0  0  0  0  0  0
    0.6856   -0.6422    3.9411 O   0  0  0  0  0  0  0  0  0  0  0  0
    1.4885   -3.0005    1.7356 C   0  0  0  0  0  0  0  0  0  0  0  0
   -0.6475   -1.1559    0.5981 H   0  0  0  0  0  0  0  0  0  0  0  0
   -0.6412   -2.8793    2.0692 H   0  0  0  0  0  0  0  0  0  0  0  0
    2.3866   -2.3803    1.8362 H   0  0  0  0  0  0  0  0  0  0  0  0
    1.6398   -3.9016    2.3390 H   0  0  0  0  0  0  0  0  0  0  0  0
    1.4090   -3.3025    0.6857 H   0  0  0  0  0  0  0  0  0  0  0  0
    0.1316   -2.8201    4.5201 N   0  0  0  0  0  0  0  0  0  0  0  0
    0.2024   -2.6423    5.9516 C   0  0  0  0  0  0  0  0  0  0  0  0
   -0.1421   -3.7330    4.1688 H   0  0  0  0  0  0  0  0  0  0  0  0
    1.2148   -2.8903    6.3029 H   0  0  0  0  0  0  0  0  0  0  0  0
   -0.0266   -1.5961    6.2028 H   0  0  0  0  0  0  0  0  0  0  0  0
   -0.5275   -3.3048    6.4398 H   0  0  0  0  0  0  0  0  0  0  0  0
  1  3  1  0  0  0  0
  1  7  1  0  0  0  0
  1  2  2  0  0  0  0
 37 38  1  0  0  0  0
 38 46  1  0  0  0  0
 38 39  2  0  0  0  0
  8  9  1  0  0  0  0
  9 17  1  0  0  0  0
  9 10  2  0  0  0  0
 18 19  1  0  0  0  0
 19 36  1  0  0  0  0
 19 20  2  0  0  0  0
 37 40  1  0  0  0  0
  8 11  1  0  0  0  0
 22 23  1  0  0  0  0
 22 24  1  0  0  0  0
 46 47  1  0  0  0  0
 18 21  1  0  0  0  0
 21 22  1  0  0  0  0
 36 37  1  0  0  0  0
  7  8  1  0  0  0  0
 17 18  1  0  0  0  0
  3  4  1  0  0  0  0
  3  5  1  0  0  0  0
  3  6  1  0  0  0  0
 40 43  1  0  0  0  0
 40 44  1  0  0  0  0
 40 45  1  0  0  0  0
 11 14  1  0  0  0  0
 11 15  1  0  0  0  0
 11 16  1  0  0  0  0
 23 30  1  0  0  0  0
 23 31  1  0  0  0  0
 23 32  1  0  0  0  0
 24 33  1  0  0  0  0
 24 34  1  0  0  0  0
 24 35  1  0  0  0  0
 47 49  1  0  0  0  0
 47 50  1  0  0  0  0
 47 51  1  0  0  0  0
 21 27  1  0  0  0  0
 21 28  1  0  0  0  0
 37 42  1  0  0  0  0
  8 13  1  0  0  0  0
 18 26  1  0  0  0  0
 22 29  1  0  0  0  0
 46 48  1  0  0  0  0
  7 12  1  0  0  0  0
 36 41  1  0  0  0  0
 17 25  1  0  0  0  0
M  END
$$$$

  -OEChem-02062319033D

 51 50  0     1  0  0  0  0  0999 V2000
    3.4018   -1.2440   -3.0186 C   0  0  0  0  0  0  0  0  0  0  0  0
    3.2697   -2.0909   -2.1427 O   0  0  0  0  0  0  0  0  0  0  0  0
    4.6845   -1.1645   -3.7779 C   0  0  0  0  0  0  0  0  0  0  0  0
    5.4123   -0.4862   -3.3041 H   0  0  0  0  0  0  0  0  0  0  0  0
    5.1949   -2.1387   -3.8443 H   0  0  0  0  0  0  0  0  0  0  0  0
    4.5953   -0.8128   -4.8182 H   0  0  0  0  0  0  0  0  0  0  0  0
    2.4540   -0.3103   -3.4040 N   0  0  0  0  0  0  0  0  0  0  0  0
    1.1494   -0.2128   -2.8039 C   0  0  2  0  0  0  0  0  0  0  0  0
    1.3350    0.0367   -1.3130 C   0  0  0  0  0  0  0  0  0  0  0  0
    2.3625   -0.2586   -0.7063 O   0  0  0  0  0  0  0  0  0  0  0  0
    0.3331   -1.4728   -3.0467 C   0  0  0  0  0  0  0  0  0  0  0  0
    2.6924    0.3404   -4.1502 H   0  0  0  0  0  0  0  0  0  0  0  0
    0.6550    0.6514   -3.2607 H   0  0  0  0  0  0  0  0  0  0  0  0
    0.8129   -2.3494   -2.5963 H   0  0  0  0  0  0  0  0  0  0  0  0
   -0.6690   -1.3857   -2.6142 H   0  0  0  0  0  0  0  0  0  0  0  0
    0.2259   -1.6670   -4.1194 H   0  0  0  0  0  0  0  0  0  0  0  0
    0.2019    0.5893   -0.7269 N   0  0  0  0  0  0  0  0  0  0  0  0
    0.2622    1.4697    0.4108 C   0  0  2  0  0  0  0  0  0  0  0  0
    0.9231    0.6930    1.5452 C   0  0  0  0  0  0  0  0  0  0  0  0
    1.7723    1.1836    2.2864 O   0  0  0  0  0  0  0  0  0  0  0  0
   -1.1269    1.9581    0.8413 C   0  0  0  0  0  0  0  0  0  0  0  0
   -1.8388    2.8669   -0.1815 C   0  0  0  0  0  0  0  0  0  0  0  0
   -3.2639    3.1622    0.2946 C   0  0  0  0  0  0  0  0  0  0  0  0
   -1.8806    2.2493   -1.5799 C   0  0  0  0  0  0  0  0  0  0  0  0
   -0.7101    0.3987   -1.1365 H   0  0  0  0  0  0  0  0  0  0  0  0
    0.9106    2.3068    0.1330 H   0  0  0  0  0  0  0  0  0  0  0  0
   -1.0322    2.5040    1.7905 H   0  0  0  0  0  0  0  0  0  0  0  0
   -1.7662    1.0919    1.0576 H   0  0  0  0  0  0  0  0  0  0  0  0
   -1.3066    3.8239   -0.2442 H   0  0  0  0  0  0  0  0  0  0  0  0
   -3.8463    2.2383    0.3765 H   0  0  0  0  0  0  0  0  0  0  0  0
   -3.7816    3.8198   -0.4117 H   0  0  0  0  0  0  0  0  0  0  0  0
   -3.2629    3.6505    1.2751 H   0  0  0  0  0  0  0  0  0  0  0  0
   -2.4038    1.2870   -1.5735 H   0  0  0  0  0  0  0  0  0  0  0  0
   -2.4003    2.9112   -2.2811 H   0  0  0  0  0  0  0  0  0  0  0  0
   -0.8734    2.0884   -1.9752 H   0  0  0  0  0  0  0  0  0  0  0  0
    0.4143   -0.5932    1.6611 N   0  0  0  0  0  0  0  0  0  0  0  0
    0.8496   -1.5297    2.6720 C   0  0  2  0  0  0  0  0  0  0  0  0
    1.0509   -0.7600    3.9707 C   0  0  0  0  0  0  0  0  0  0  0  0
    1.2536    0.4519    4.0076 O   0  0  0  0  0  0  0  0  0  0  0  0
    2.1296   -2.2378    2.2560 C   0  0  0  0  0  0  0  0  0  0  0  0
   -0.3073   -0.9020    1.0164 H   0  0  0  0  0  0  0  0  0  0  0  0
    0.0401   -2.2566    2.7994 H   0  0  0  0  0  0  0  0  0  0  0  0
    2.9521   -1.5255    2.1236 H   0  0  0  0  0  0  0  0  0  0  0  0
    2.4424   -2.9675    3.0101 H   0  0  0  0  0  0  0  0  0  0  0  0
    1.9916   -2.7664    1.3066 H   0  0  0  0  0  0  0  0  0  0  0  0
    1.0204   -1.5923    5.0808 N   0  0  0  0  0  0  0  0  0  0  0  0
    1.1995   -1.1025    6.4277 C   0  0  0  0  0  0  0  0  0  0  0  0
    0.8275   -2.5820    4.9581 H   0  0  0  0  0  0  0  0  0  0  0  0
    2.2622   -1.1681    6.7040 H   0  0  0  0  0  0  0  0  0  0  0  0
    0.8703   -0.0544    6.4834 H   0  0  0  0  0  0  0  0  0  0  0  0
    0.6020   -1.7119    7.1218 H   0  0  0  0  0  0  0  0  0  0  0  0
  1  3  1  0  0  0  0
  1  7  1  0  0  0  0
  1  2  2  0  0  0  0
 37 38  1  0  0  0  0
 38 46  1  0  0  0  0
 38 39  2  0  0  0  0
  8  9  1  0  0  0  0
  9 17  1  0  0  0  0
  9 10  2  0  0  0  0
 18 19  1  0  0  0  0
 19 36  1  0  0  0  0
 19 20  2  0  0  0  0
 37 40  1  0  0  0  0
  8 11  1  0  0  0  0
 22 23  1  0  0  0  0
 22 24  1  0  0  0  0
 46 47  1  0  0  0  0
 18 21  1  0  0  0  0
 21 22  1  0  0  0  0
 36 37  1  0  0  0  0
  7  8  1  0  0  0  0
 17 18  1  0  0  0  0
  3  4  1  0  0  0  0
  3  5  1  0  0  0  0
  3  6  1  0  0  0  0
 40 43  1  0  0  0  0
 40 44  1  0  0  0  0
 40 45  1  0  0  0  0
 11 14  1  0  0  0  0
 11 15  1  0  0  0  0
 11 16  1  0  0  0  0
 23 30  1  0  0  0  0
 23 31  1  0  0  0  0
 23 32  1  0  0  0  0
 24 33  1  0  0  0  0
 24 34  1  0  0  0  0
 24 35  1  0  0  0  0
 47 49  1  0  0  0  0
 47 50  1  0  0  0  0
 47 51  1  0  0  0  0
 21 27  1  0  0  0  0
 21 28  1  0  0  0  0
 37 42  1  0  0  0  0
  8 13  1  0  0  0  0
 18 26  1  0  0  0  0
 22 29  1  0  0  0  0
 46 48  1  0  0  0  0
  7 12  1  0  0  0  0
 36 41  1  0  0  0  0
 17 25  1  0  0  0  0
M  END
$$$$

  -OEChem-02062319033D

 51 50  0     1  0  0  0  0  0999 V2000
    3.4018   -1.2440   -3.0186 C   0  0  0  0  0  0  0  0  0  0  0  0
    3.2697   -2.0909   -2.1427 O   0  0  0  0  0  0  0  0  0  0  0  0
    4.6845   -1.1645   -3.7779 C   0  0  0  0  0  0  0  0  0  0  0  0
    5.4123   -0.4862   -3.3041 H   0  0  0  0  0  0  0  0  0  0  0  0
    5.1949   -2.1387   -3.8443 H   0  0  0  0  0  0  0  0  0  0  0  0
    4.5953   -0.8128   -4.8182 H   0  0  0  0  0  0  0  0  0  0  0  0
    2.4540   -0.3103   -3.4040 N   0  0  0  0  0  0  0  0  0  0  0  0
    1.1494   -0.2128   -2.8039 C   0  0  2  0  0  0  0  0  0  0  0  0
    1.3350    0.0367   -1.3130 C   0  0  0  0  0  0  0  0  0  0  0  0
    2.3625   -0.2586   -0.7063 O   0  0  0  0  0  0  0  0  0  0  0  0
    0.3331   -1.4728   -3.0467 C   0  0  0  0  0  0  0  0  0  0  0  0
    2.6924    0.3404   -4.1502 H   0  0  0  0  0  0  0  0  0  0  0  0
    0.6550    0.6514   -3.2607 H   0  0  0  0  0  0  0  0  0  0  0  0
    0.8129   -2.3494   -2.5963 H   0  0  0  0  0  0  0  0  0  0  0  0
   -0.6690   -1.3857   -2.6142 H   0  0  0  0  0  0  0  0  0  0  0  0
    0.2259   -1.6670   -4.1194 H   0  0  0  0  0  0  0  0  0  0  0  0
    0.2019    0.5893   -0.7269 N   0  0  0  0  0  0  0  0  0  0  0  0
    0.2594    1.6969    0.1913 C   0  0  2  0  0  0  0  0  0  0  0  0
    1.1095    1.2530    1.3777 C   0  0  0  0  0  0  0  0  0  0  0  0
    1.9577    1.9735    1.9000 O   0  0  0  0  0  0  0  0  0  0  0  0
   -1.1332    2.1283    0.6686 C   0  0  0  0  0  0  0  0  0  0  0  0
   -2.0394    2.7195   -0.4304 C   0  0  0  0  0  0  0  0  0  0  0  0
   -3.4402    2.9698    0.1350 C   0  0  0  0  0  0  0  0  0  0  0  0
   -2.1340    1.8126   -1.6581 C   0  0  0  0  0  0  0  0  0  0  0  0
   -0.7142    0.2260   -0.9814 H   0  0  0  0  0  0  0  0  0  0  0  0
    0.7745    2.5133   -0.3248 H   0  0  0  0  0  0  0  0  0  0  0  0
   -1.0187    2.8735    1.4684 H   0  0  0  0  0  0  0  0  0  0  0  0
   -1.6414    1.2711    1.1299 H   0  0  0  0  0  0  0  0  0  0  0  0
   -1.6340    3.6878   -0.7487 H   0  0  0  0  0  0  0  0  0  0  0  0
   -3.8975    2.0330    0.4710 H   0  0  0  0  0  0  0  0  0  0  0  0
   -4.0955    3.4048   -0.6271 H   0  0  0  0  0  0  0  0  0  0  0  0
   -3.4086    3.6566    0.9877 H   0  0  0  0  0  0  0  0  0  0  0  0
   -2.5350    0.8280   -1.3944 H   0  0  0  0  0  0  0  0  0  0  0  0
   -2.7912    2.2527   -2.4159 H   0  0  0  0  0  0  0  0  0  0  0  0
   -1.1550    1.6694   -2.1247 H   0  0  0  0  0  0  0  0  0  0  0  0
    0.7717   -0.0211    1.8125 N   0  0  0  0  0  0  0  0  0  0  0  0
    1.4067   -0.6690    2.9375 C   0  0  2  0  0  0  0  0  0  0  0  0
    1.6315    0.3798    4.0187 C   0  0  0  0  0  0  0  0  0  0  0  0
    1.6897    1.5848    3.7827 O   0  0  0  0  0  0  0  0  0  0  0  0
    2.7191   -1.3214    2.5318 C   0  0  0  0  0  0  0  0  0  0  0  0
    0.0367   -0.5315    1.3320 H   0  0  0  0  0  0  0  0  0  0  0  0
    0.7053   -1.4268    3.3032 H   0  0  0  0  0  0  0  0  0  0  0  0
    3.4346   -0.5775    2.1626 H   0  0  0  0  0  0  0  0  0  0  0  0
    3.1848   -1.8361    3.3786 H   0  0  0  0  0  0  0  0  0  0  0  0
    2.5597   -2.0540    1.7332 H   0  0  0  0  0  0  0  0  0  0  0  0
    1.8026   -0.1912    5.2721 N   0  0  0  0  0  0  0  0  0  0  0  0
    2.0436    0.5939    6.4601 C   0  0  0  0  0  0  0  0  0  0  0  0
    1.7196   -1.1980    5.3781 H   0  0  0  0  0  0  0  0  0  0  0  0
    3.1272    0.6943    6.6204 H   0  0  0  0  0  0  0  0  0  0  0  0
    1.5973    1.5917    6.3369 H   0  0  0  0  0  0  0  0  0  0  0  0
    1.5895    0.0939    7.3283 H   0  0  0  0  0  0  0  0  0  0  0  0
  1  3  1  0  0  0  0
  1  7  1  0  0  0  0
  1  2  2  0  0  0  0
 37 38  1  0  0  0  0
 38 46  1  0  0  0  0
 38 39  2  0  0  0  0
  8  9  1  0  0  0  0
  9 17  1  0  0  0  0
  9 10  2  0  0  0  0
 18 19  1  0  0  0  0
 19 36  1  0  0  0  0
 19 20  2  0  0  0  0
 37 40  1  0  0  0  0
  8 11  1  0  0  0  0
 22 23  1  0  0  0  0
 22 24  1  0  0  0  0
 46 47  1  0  0  0  0
 18 21  1  0  0  0  0
 21 22  1  0  0  0  0
 36 37  1  0  0  0  0
  7  8  1  0  0  0  0
 17 18  1  0  0  0  0
  3  4  1  0  0  0  0
  3  5  1  0  0  0  0
  3  6  1  0  0  0  0
 40 43  1  0  0  0  0
 40 44  1  0  0  0  0
 40 45  1  0  0  0  0
 11 14  1  0  0  0  0
 11 15  1  0  0  0  0
 11 16  1  0  0  0  0
 23 30  1  0  0  0  0
 23 31  1  0  0  0  0
 23 32  1  0  0  0  0
 24 33  1  0  0  0  0
 24 34  1  0  0  0  0
 24 35  1  0  0  0  0
 47 49  1  0  0  0  0
 47 50  1  0  0  0  0
 47 51  1  0  0  0  0
 21 27  1  0  0  0  0
 21 28  1  0  0  0  0
 37 42  1  0  0  0  0
  8 13  1  0  0  0  0
 18 26  1  0  0  0  0
 22 29  1  0  0  0  0
 46 48  1  0  0  0  0
  7 12  1  0  0  0  0
 36 41  1  0  0  0  0
 17 25  1  0  0  0  0
M  END
$$$$

  -OEChem-02062319033D

 51 50  0     1  0  0  0  0  0999 V2000
    3.4018   -1.2440   -3.0186 C   0  0  0  0  0  0  0  0  0  0  0  0
    3.2697   -2.0909   -2.1427 O   0  0  0  0  0  0  0  0  0  0  0  0
    4.6845   -1.1645   -3.7779 C   0  0  0  0  0  0  0  0  0  0  0  0
    5.4123   -0.4862   -3.3041 H   0  0  0  0  0  0  0  0  0  0  0  0
    5.1949   -2.1387   -3.8443 H   0  0  0  0  0  0  0  0  0  0  0  0
    4.5953   -0.8128   -4.8182 H   0  0  0  0  0  0  0  0  0  0  0  0
    2.4540   -0.3103   -3.4040 N   0  0  0  0  0  0  0  0  0  0  0  0
    1.1494   -0.2128   -2.8039 C   0  0  2  0  0  0  0  0  0  0  0  0
    1.3350    0.0367   -1.3130 C   0  0  0  0  0  0  0  0  0  0  0  0
    2.3625   -0.2586   -0.7063 O   0  0  0  0  0  0  0  0  0  0  0  0
    0.3331   -1.4728   -3.0467 C   0  0  0  0  0  0  0  0  0  0  0  0
    2.6924    0.3404   -4.1502 H   0  0  0  0  0  0  0  0  0  0  0  0
    0.6550    0.6514   -3.2607 H   0  0  0  0  0  0  0  0  0  0  0  0
    0.8129   -2.3494   -2.5963 H   0  0  0  0  0  0  0  0  0  0  0  0
   -0.6690   -1.3857   -2.6142 H   0  0  0  0  0  0  0  0  0  0  0  0
    0.2259   -1.6670   -4.1194 H   0  0  0  0  0  0  0  0  0  0  0  0
    0.2019    0.5893   -0.7269 N   0  0  0  0  0  0  0  0  0  0  0  0
    0.2094    1.8697   -0.0683 C   0  0  2  0  0  0  0  0  0  0  0  0
    1.2113    1.7790    1.0785 C   0  0  0  0  0  0  0  0  0  0  0  0
    2.0107    2.6751    1.3411 O   0  0  0  0  0  0  0  0  0  0  0  0
   -1.1756    2.2555    0.4666 C   0  0  0  0  0  0  0  0  0  0  0  0
   -2.2427    2.5028   -0.6191 C   0  0  0  0  0  0  0  0  0  0  0  0
   -3.6060    2.7310    0.0396 C   0  0  0  0  0  0  0  0  0  0  0  0
   -2.3391    1.3466   -1.6154 C   0  0  0  0  0  0  0  0  0  0  0  0
   -0.6832    0.0914   -0.7948 H   0  0  0  0  0  0  0  0  0  0  0  0
    0.5735    2.6014   -0.7965 H   0  0  0  0  0  0  0  0  0  0  0  0
   -1.0791    3.1638    1.0779 H   0  0  0  0  0  0  0  0  0  0  0  0
   -1.5330    1.4730    1.1492 H   0  0  0  0  0  0  0  0  0  0  0  0
   -1.9873    3.4141   -1.1737 H   0  0  0  0  0  0  0  0  0  0  0  0
   -3.9149    1.8491    0.6108 H   0  0  0  0  0  0  0  0  0  0  0  0
   -4.3755    2.9242   -0.7154 H   0  0  0  0  0  0  0  0  0  0  0  0
   -3.5795    3.5860    0.7238 H   0  0  0  0  0  0  0  0  0  0  0  0
   -2.5932    0.4082   -1.1111 H   0  0  0  0  0  0  0  0  0  0  0  0
   -3.1108    1.5454   -2.3670 H   0  0  0  0  0  0  0  0  0  0  0  0
   -1.3967    1.2025   -2.1518 H   0  0  0  0  0  0  0  0  0  0  0  0
    1.0700    0.6025    1.8013 N   0  0  0  0  0  0  0  0  0  0  0  0
    1.8781    0.2792    2.9550 C   0  0  2  0  0  0  0  0  0  0  0  0
    2.0730    1.5542    3.7649 C   0  0  0  0  0  0  0  0  0  0  0  0
    1.9642    2.6792    3.2815 O   0  0  0  0  0  0  0  0  0  0  0  0
    3.2170   -0.3137    2.5442 C   0  0  0  0  0  0  0  0  0  0  0  0
    0.3609   -0.0694    1.5233 H   0  0  0  0  0  0  0  0  0  0  0  0
    1.3092   -0.4465    3.5464 H   0  0  0  0  0  0  0  0  0  0  0  0
    3.8012    0.3990    1.9507 H   0  0  0  0  0  0  0  0  0  0  0  0
    3.8164   -0.5844    3.4196 H   0  0  0  0  0  0  0  0  0  0  0  0
    3.0746   -1.2139    1.9367 H   0  0  0  0  0  0  0  0  0  0  0  0
    2.4250    1.2879    5.0808 N   0  0  0  0  0  0  0  0  0  0  0  0
    2.6772    2.3316    6.0468 C   0  0  0  0  0  0  0  0  0  0  0  0
    2.4736    0.3249    5.3999 H   0  0  0  0  0  0  0  0  0  0  0  0
    3.7509    2.5701    6.0578 H   0  0  0  0  0  0  0  0  0  0  0  0
    2.1048    3.2303    5.7733 H   0  0  0  0  0  0  0  0  0  0  0  0
    2.3675    1.9894    7.0453 H   0  0  0  0  0  0  0  0  0  0  0  0
  1  3  1  0  0  0  0
  1  7  1  0  0  0  0
  1  2  2  0  0  0  0
 37 38  1  0  0  0  0
 38 46  1  0  0  0  0
 38 39  2  0  0  0  0
  8  9  1  0  0  0  0
  9 17  1  0  0  0  0
  9 10  2  0  0  0  0
 18 19  1  0  0  0  0
 19 36  1  0  0  0  0
 19 20  2  0  0  0  0
 37 40  1  0  0  0  0
  8 11  1  0  0  0  0
 22 23  1  0  0  0  0
 22 24  1  0  0  0  0
 46 47  1  0  0  0  0
 18 21  1  0  0  0  0
 21 22  1  0  0  0  0
 36 37  1  0  0  0  0
  7  8  1  0  0  0  0
 17 18  1  0  0  0  0
  3  4  1  0  0  0  0
  3  5  1  0  0  0  0
  3  6  1  0  0  0  0
 40 43  1  0  0  0  0
 40 44  1  0  0  0  0
 40 45  1  0  0  0  0
 11 14  1  0  0  0  0
 11 15  1  0  0  0  0
 11 16  1  0  0  0  0
 23 30  1  0  0  0  0
 23 31  1  0  0  0  0
 23 32  1  0  0  0  0
 24 33  1  0  0  0  0
 24 34  1  0  0  0  0
 24 35  1  0  0  0  0
 47 49  1  0  0  0  0
 47 50  1  0  0  0  0
 47 51  1  0  0  0  0
 21 27  1  0  0  0  0
 21 28  1  0  0  0  0
 37 42  1  0  0  0  0
  8 13  1  0  0  0  0
 18 26  1  0  0  0  0
 22 29  1  0  0  0  0
 46 48  1  0  0  0  0
  7 12  1  0  0  0  0
 36 41  1  0  0  0  0
 17 25  1  0  0  0  0
M  END
$$$$

  -OEChem-02062319033D

 51 50  0     1  0  0  0  0  0999 V2000
    3.4018   -1.2440   -3.0186 C   0  0  0  0  0  0  0  0  0  0  0  0
    3.2697   -2.0909   -2.1427 O   0  0  0  0  0  0  0  0  0  0  0  0
    4.6845   -1.1645   -3.7779 C   0  0  0  0  0  0  0  0  0  0  0  0
    5.4123   -0.4862   -3.3041 H   0  0  0  0  0  0  0  0  0  0  0  0
    5.1949   -2.1387   -3.8443 H   0  0  0  0  0  0  0  0  0  0  0  0
    4.5953   -0.8128   -4.8182 H   0  0  0  0  0  0  0  0  0  0  0  0
    2.4540   -0.3103   -3.4040 N   0  0  0  0  0  0  0  0  0  0  0  0
    1.1494   -0.2128   -2.8039 C   0  0  2  0  0  0  0  0  0  0  0  0
    1.3350    0.0367   -1.3130 C   0  0  0  0  0  0  0  0  0  0  0  0
    2.3625   -0.2586   -0.7063 O   0  0  0  0  0  0  0  0  0  0  0  0
    0.3331   -1.4728   -3.0467 C   0  0  0  0  0  0  0  0  0  0  0  0
    2.6924    0.3404   -4.1502 H   0  0  0  0  0  0  0  0  0  0  0  0
    0.6550    0.6514   -3.2607 H   0  0  0  0  0  0  0  0  0  0  0  0
    0.8129   -2.3494   -2.5963 H   0  0  0  0  0  0  0  0  0  0  0  0
   -0.6690   -1.3857   -2.6142 H   0  0  0  0  0  0  0  0  0  0  0  0
    0.2259   -1.6670   -4.1194 H   0  0  0  0  0  0  0  0  0  0  0  0
    0.2019    0.5893   -0.7269 N   0  0  0  0  0  0  0  0  0  0  0  0
    0.1155    1.9764   -0.3504 C   0  0  2  0  0  0  0  0  0  0  0  0
    1.2214    2.2350    0.6681 C   0  0  0  0  0  0  0  0  0  0  0  0
    1.9280    3.2407    0.6478 O   0  0  0  0  0  0  0  0  0  0  0  0
   -1.2512    2.3312    0.2491 C   0  0  0  0  0  0  0  0  0  0  0  0
   -2.4348    2.2315   -0.7348 C   0  0  0  0  0  0  0  0  0  0  0  0
   -3.7499    2.4622    0.0148 C   0  0  0  0  0  0  0  0  0  0  0  0
   -2.4821    0.8832   -1.4548 C   0  0  0  0  0  0  0  0  0  0  0  0
   -0.6195    0.0042   -0.5893 H   0  0  0  0  0  0  0  0  0  0  0  0
    0.3211    2.5651   -1.2501 H   0  0  0  0  0  0  0  0  0  0  0  0
   -1.2092    3.3554    0.6457 H   0  0  0  0  0  0  0  0  0  0  0  0
   -1.4483    1.6840    1.1140 H   0  0  0  0  0  0  0  0  0  0  0  0
   -2.3424    3.0215   -1.4901 H   0  0  0  0  0  0  0  0  0  0  0  0
   -3.8972    1.6990    0.7864 H   0  0  0  0  0  0  0  0  0  0  0  0
   -4.6026    2.4107   -0.6704 H   0  0  0  0  0  0  0  0  0  0  0  0
   -3.7641    3.4435    0.5014 H   0  0  0  0  0  0  0  0  0  0  0  0
   -2.5745    0.0560   -0.7429 H   0  0  0  0  0  0  0  0  0  0  0  0
   -3.3374    0.8378   -2.1378 H   0  0  0  0  0  0  0  0  0  0  0  0
   -1.5820    0.7194   -2.0546 H   0  0  0  0  0  0  0  0  0  0  0  0
    1.2889    1.2350    1.6283 N   0  0  0  0  0  0  0  0  0  0  0  0
    2.2319    1.2502    2.7234 C   0  0  2  0  0  0  0  0  0  0  0  0
    2.3451    2.6832    3.2267 C   0  0  0  0  0  0  0  0  0  0  0  0
    2.0584    3.6605    2.5384 O   0  0  0  0  0  0  0  0  0  0  0  0
    3.5892    0.7167    2.2924 C   0  0  0  0  0  0  0  0  0  0  0  0
    0.6434    0.4526    1.5772 H   0  0  0  0  0  0  0  0  0  0  0  0
    1.8106    0.6177    3.5124 H   0  0  0  0  0  0  0  0  0  0  0  0
    4.0270    1.3376    1.5023 H   0  0  0  0  0  0  0  0  0  0  0  0
    4.2941    0.7021    3.1302 H   0  0  0  0  0  0  0  0  0  0  0  0
    3.5012   -0.3034    1.9030 H   0  0  0  0  0  0  0  0  0  0  0  0
    2.8450    2.7442    4.5199 N   0  0  0  0  0  0  0  0  0  0  0  0
    3.0570    3.9919    5.2158 C   0  0  0  0  0  0  0  0  0  0  0  0
    3.0379    1.8827    5.0222 H   0  0  0  0  0  0  0  0  0  0  0  0
    4.0908    4.3313    5.0545 H   0  0  0  0  0  0  0  0  0  0  0  0
    2.3583    4.7494    4.8311 H   0  0  0  0  0  0  0  0  0  0  0  0
    2.8830    3.8455    6.2920 H   0  0  0  0  0  0  0  0  0  0  0  0
  1  3  1  0  0  0  0
  1  7  1  0  0  0  0
  1  2  2  0  0  0  0
 37 38  1  0  0  0  0
 38 46  1  0  0  0  0
 38 39  2  0  0  0  0
  8  9  1  0  0  0  0
  9 17  1  0  0  0  0
  9 10  2  0  0  0  0
 18 19  1  0  0  0  0
 19 36  1  0  0  0  0
 19 20  2  0  0  0  0
 37 40  1  0  0  0  0
  8 11  1  0  0  0  0
 22 23  1  0  0  0  0
 22 24  1  0  0  0  0
 46 47  1  0  0  0  0
 18 21  1  0  0  0  0
 21 22  1  0  0  0  0
 36 37  1  0  0  0  0
  7  8  1  0  0  0  0
 17 18  1  0  0  0  0
  3  4  1  0  0  0  0
  3  5  1  0  0  0  0
  3  6  1  0  0  0  0
 40 43  1  0  0  0  0
 40 44  1  0  0  0  0
 40 45  1  0  0  0  0
 11 14  1  0  0  0  0
 11 15  1  0  0  0  0
 11 16  1  0  0  0  0
 23 30  1  0  0  0  0
 23 31  1  0  0  0  0
 23 32  1  0  0  0  0
 24 33  1  0  0  0  0
 24 34  1  0  0  0  0
 24 35  1  0  0  0  0
 47 49  1  0  0  0  0
 47 50  1  0  0  0  0
 47 51  1  0  0  0  0
 21 27  1  0  0  0  0
 21 28  1  0  0  0  0
 37 42  1  0  0  0  0
  8 13  1  0  0  0  0
 18 26  1  0  0  0  0
 22 29  1  0  0  0  0
 46 48  1  0  0  0  0
  7 12  1  0  0  0  0
 36 41  1  0  0  0  0
 17 25  1  0  0  0  0
M  END
$$$$

  -OEChem-02062319033D

 51 50  0     1  0  0  0  0  0999 V2000
    3.4018   -1.2440   -3.0186 C   0  0  0  0  0  0  0  0  0  0  0  0
    3.2697   -2.0909   -2.1427 O   0  0  0  0  0  0  0  0  0  0  0  0
    4.6845   -1.1645   -3.7779 C   0  0  0  0  0  0  0  0  0  0  0  0
    5.4123   -0.4862   -3.3041 H   0  0  0  0  0  0  0  0  0  0  0  0
    5.1949   -2.1387   -3.8443 H   0  0  0  0  0  0  0  0  0  0  0  0
    4.5953   -0.8128   -4.8182 H   0  0  0  0  0  0  0  0  0  0  0  0
    2.4540   -0.3103   -3.4040 N   0  0  0  0  0  0  0  0  0  0  0  0
    1.1494   -0.2128   -2.8039 C   0  0  2  0  0  0  0  0  0  0  0  0
    1.3350    0.0367   -1.3130 C   0  0  0  0  0  0  0  0  0  0  0  0
    2.3625   -0.2586   -0.7063 O   0  0  0  0  0  0  0  0  0  0  0  0
    0.3331   -1.4728   -3.0467 C   0  0  0  0  0  0  0  0  0  0  0  0
    2.6924    0.3404   -4.1502 H   0  0  0  0  0  0  0  0  0  0  0  0
    0.6550    0.6514   -3.2607 H   0  0  0  0  0  0  0  0  0  0  0  0
    0.8129   -2.3494   -2.5963 H   0  0  0  0  0  0  0  0  0  0  0  0
   -0.6690   -1.3857   -2.6142 H   0  0  0  0  0  0  0  0  0  0  0  0
    0.2259   -1.6670   -4.1194 H   0  0  0  0  0  0  0  0  0  0  0  0
    0.2019    0.5893   -0.7269 N   0  0  0  0  0  0  0  0  0  0  0  0
   -0.0159    2.0097   -0.6358 C   0  0  2  0  0  0  0  0  0  0  0  0
    1.1391    2.5900    0.1744 C   0  0  0  0  0  0  0  0  0  0  0  0
    1.7150    3.6318   -0.1326 O   0  0  0  0  0  0  0  0  0  0  0  0
   -1.3549    2.3502    0.0307 C   0  0  0  0  0  0  0  0  0  0  0  0
   -2.6027    1.9241   -0.7695 C   0  0  0  0  0  0  0  0  0  0  0  0
   -3.8621    2.1816    0.0625 C   0  0  0  0  0  0  0  0  0  0  0  0
   -2.5530    0.4538   -1.1872 C   0  0  0  0  0  0  0  0  0  0  0  0
   -0.5272   -0.0298   -0.3790 H   0  0  0  0  0  0  0  0  0  0  0  0
    0.0347    2.4067   -1.6547 H   0  0  0  0  0  0  0  0  0  0  0  0
   -1.4003    3.4350    0.2012 H   0  0  0  0  0  0  0  0  0  0  0  0
   -1.3931    1.8896    1.0268 H   0  0  0  0  0  0  0  0  0  0  0  0
   -2.6751    2.5369   -1.6764 H   0  0  0  0  0  0  0  0  0  0  0  0
   -3.8457    1.5931    0.9860 H   0  0  0  0  0  0  0  0  0  0  0  0
   -4.7614    1.8995   -0.4953 H   0  0  0  0  0  0  0  0  0  0  0  0
   -3.9497    3.2387    0.3356 H   0  0  0  0  0  0  0  0  0  0  0  0
   -2.4801   -0.2045   -0.3149 H   0  0  0  0  0  0  0  0  0  0  0  0
   -3.4553    0.1779   -1.7437 H   0  0  0  0  0  0  0  0  0  0  0  0
   -1.6982    0.2531   -1.8397 H   0  0  0  0  0  0  0  0  0  0  0  0
    1.4136    1.8334    1.3052 N   0  0  0  0  0  0  0  0  0  0  0  0
    2.4438    2.1779    2.2585 C   0  0  2  0  0  0  0  0  0  0  0  0
    2.4294    3.6899    2.4406 C   0  0  0  0  0  0  0  0  0  0  0  0
    1.9658    4.4619    1.6038 O   0  0  0  0  0  0  0  0  0  0  0  0
    3.8104    1.6994    1.7935 C   0  0  0  0  0  0  0  0  0  0  0  0
    0.8648    0.9990    1.4901 H   0  0  0  0  0  0  0  0  0  0  0  0
    2.1752    1.6931    3.2034 H   0  0  0  0  0  0  0  0  0  0  0  0
    4.0966    2.1743    0.8480 H   0  0  0  0  0  0  0  0  0  0  0  0
    4.5853    1.9359    2.5301 H   0  0  0  0  0  0  0  0  0  0  0  0
    3.8104    0.6156    1.6345 H   0  0  0  0  0  0  0  0  0  0  0  0
    3.0342    4.0784    3.6278 N   0  0  0  0  0  0  0  0  0  0  0  0
    3.1573    5.4618    4.0238 C   0  0  0  0  0  0  0  0  0  0  0  0
    3.3742    3.3693    4.2707 H   0  0  0  0  0  0  0  0  0  0  0  0
    4.1238    5.8579    3.6789 H   0  0  0  0  0  0  0  0  0  0  0  0
    2.3405    6.0458    3.5745 H   0  0  0  0  0  0  0  0  0  0  0  0
    3.1010    5.5357    5.1199 H   0  0  0  0  0  0  0  0  0  0  0  0
  1  3  1  0  0  0  0
  1  7  1  0  0  0  0
  1  2  2  0  0  0  0
 37 38  1  0  0  0  0
 38 46  1  0  0  0  0
 38 39  2  0  0  0  0
  8  9  1  0  0  0  0
  9 17  1  0  0  0  0
  9 10  2  0  0  0  0
 18 19  1  0  0  0  0
 19 36  1  0  0  0  0
 19 20  2  0  0  0  0
 37 40  1  0  0  0  0
  8 11  1  0  0  0  0
 22 23  1  0  0  0  0
 22 24  1  0  0  0  0
 46 47  1  0  0  0  0
 18 21  1  0  0  0  0
 21 22  1  0  0  0  0
 36 37  1  0  0  0  0
  7  8  1  0  0  0  0
 17 18  1  0  0  0  0
  3  4  1  0  0  0  0
  3  5  1  0  0  0  0
  3  6  1  0  0  0  0
 40 43  1  0  0  0  0
 40 44  1  0  0  0  0
 40 45  1  0  0  0  0
 11 14  1  0  0  0  0
 11 15  1  0  0  0  0
 11 16  1  0  0  0  0
 23 30  1  0  0  0  0
 23 31  1  0  0  0  0
 23 32  1  0  0  0  0
 24 33  1  0  0  0  0
 24 34  1  0  0  0  0
 24 35  1  0  0  0  0
 47 49  1  0  0  0  0
 47 50  1  0  0  0  0
 47 51  1  0  0  0  0
 21 27  1  0  0  0  0
 21 28  1  0  0  0  0
 37 42  1  0  0  0  0
  8 13  1  0  0  0  0
 18 26  1  0  0  0  0
 22 29  1  0  0  0  0
 46 48  1  0  0  0  0
  7 12  1  0  0  0  0
 36 41  1  0  0  0  0
 17 25  1  0  0  0  0
M  END
$$$$

  -OEChem-02062319033D

 51 50  0     1  0  0  0  0  0999 V2000
    3.4018   -1.2440   -3.0186 C   0  0  0  0  0  0  0  0  0  0  0  0
    3.2697   -2.0909   -2.1427 O   0  0  0  0  0  0  0  0  0  0  0  0
    4.6845   -1.1645   -3.7779 C   0  0  0  0  0  0  0  0  0  0  0  0
    5.4123   -0.4862   -3.3041 H   0  0  0  0  0  0  0  0  0  0  0  0
    5.1949   -2.1387   -3.8443 H   0  0  0  0  0  0  0  0  0  0  0  0
    4.5953   -0.8128   -4.8182 H   0  0  0  0  0  0  0  0  0  0  0  0
    2.4540   -0.3103   -3.4040 N   0  0  0  0  0  0  0  0  0  0  0  0
    1.1494   -0.2128   -2.8039 C   0  0  2  0  0  0  0  0  0  0  0  0
    1.3350    0.0367   -1.3130 C   0  0  0  0  0  0  0  0  0  0  0  0
    2.3625   -0.2586   -0.7063 O   0  0  0  0  0  0  0  0  0  0  0  0
    0.3331   -1.4728   -3.0467 C   0  0  0  0  0  0  0  0  0  0  0  0
    2.6924    0.3404   -4.1502 H   0  0  0  0  0  0  0  0  0  0  0  0
    0.6550    0.6514   -3.2607 H   0  0  0  0  0  0  0  0  0  0  0  0
    0.8129   -2.3494   -2.5963 H   0  0  0  0  0  0  0  0  0  0  0  0
   -0.6690   -1.3857   -2.6142 H   0  0  0  0  0  0  0  0  0  0  0  0
    0.2259   -1.6670   -4.1194 H   0  0  0  0  0  0  0  0  0  0  0  0
    0.2019    0.5893   -0.7269 N   0  0  0  0  0  0  0  0  0  0  0  0
   -0.1757    1.9673   -0.9049 C   0  0  2  0  0  0  0  0  0  0  0  0
    0.9702    2.8198   -0.3689 C   0  0  0  0  0  0  0  0  0  0  0  0
    1.3863    3.8216   -0.9471 O   0  0  0  0  0  0  0  0  0  0  0  0
   -1.4796    2.3111   -0.1736 C   0  0  0  0  0  0  0  0  0  0  0  0
   -2.7349    1.6015   -0.7209 C   0  0  0  0  0  0  0  0  0  0  0  0
   -3.9350    1.9084    0.1792 C   0  0  0  0  0  0  0  0  0  0  0  0
   -2.5472    0.0878   -0.8309 C   0  0  0  0  0  0  0  0  0  0  0  0
   -0.4128   -0.0081   -0.1781 H   0  0  0  0  0  0  0  0  0  0  0  0
   -0.2664    2.1372   -1.9825 H   0  0  0  0  0  0  0  0  0  0  0  0
   -1.6393    3.3973   -0.2253 H   0  0  0  0  0  0  0  0  0  0  0  0
   -1.3712    2.0758    0.8936 H   0  0  0  0  0  0  0  0  0  0  0  0
   -2.9628    1.9931   -1.7199 H   0  0  0  0  0  0  0  0  0  0  0  0
   -3.7639    1.5384    1.1957 H   0  0  0  0  0  0  0  0  0  0  0  0
   -4.8409    1.4253   -0.2021 H   0  0  0  0  0  0  0  0  0  0  0  0
   -4.1237    2.9858    0.2378 H   0  0  0  0  0  0  0  0  0  0  0  0
   -2.3165   -0.3555    0.1438 H   0  0  0  0  0  0  0  0  0  0  0  0
   -3.4568   -0.3893   -1.2117 H   0  0  0  0  0  0  0  0  0  0  0  0
   -1.7375   -0.1647   -1.5218 H   0  0  0  0  0  0  0  0  0  0  0  0
    1.4355    2.3568    0.8541 N   0  0  0  0  0  0  0  0  0  0  0  0
    2.4994    2.9990    1.5919 C   0  0  2  0  0  0  0  0  0  0  0  0
    2.3202    4.5057    1.4602 C   0  0  0  0  0  0  0  0  0  0  0  0
    1.6928    5.0288    0.5416 O   0  0  0  0  0  0  0  0  0  0  0  0
    3.8655    2.5675    1.0816 C   0  0  0  0  0  0  0  0  0  0  0  0
    1.0101    1.5326    1.2679 H   0  0  0  0  0  0  0  0  0  0  0  0
    2.3783    2.7065    2.6406 H   0  0  0  0  0  0  0  0  0  0  0  0
    4.0052    2.8520    0.0323 H   0  0  0  0  0  0  0  0  0  0  0  0
    4.6703    3.0328    1.6602 H   0  0  0  0  0  0  0  0  0  0  0  0
    3.9813    1.4804    1.1494 H   0  0  0  0  0  0  0  0  0  0  0  0
    2.9796    5.1995    2.4652 N   0  0  0  0  0  0  0  0  0  0  0  0
    2.9711    6.6412    2.5520 C   0  0  0  0  0  0  0  0  0  0  0  0
    3.4595    4.6834    3.1967 H   0  0  0  0  0  0  0  0  0  0  0  0
    3.8476    7.0460    2.0248 H   0  0  0  0  0  0  0  0  0  0  0  0
    2.0526    7.0309    2.0890 H   0  0  0  0  0  0  0  0  0  0  0  0
    3.0065    6.9449    3.6087 H   0  0  0  0  0  0  0  0  0  0  0  0
  1  3  1  0  0  0  0
  1  7  1  0  0  0  0
  1  2  2  0  0  0  0
 37 38  1  0  0  0  0
 38 46  1  0  0  0  0
 38 39  2  0  0  0  0
  8  9  1  0  0  0  0
  9 17  1  0  0  0  0
  9 10  2  0  0  0  0
 18 19  1  0  0  0  0
 19 36  1  0  0  0  0
 19 20  2  0  0  0  0
 37 40  1  0  0  0  0
  8 11  1  0  0  0  0
 22 23  1  0  0  0  0
 22 24  1  0  0  0  0
 46 47  1  0  0  0  0
 18 21  1  0  0  0  0
 21 22  1  0  0  0  0
 36 37  1  0  0  0  0
  7  8  1  0  0  0  0
 17 18  1  0  0  0  0
  3  4  1  0  0  0  0
  3  5  1  0  0  0  0
  3  6  1  0  0  0  0
 40 43  1  0  0  0  0
 40 44  1  0  0  0  0
 40 45  1  0  0  0  0
 11 14  1  0  0  0  0
 11 15  1  0  0  0  0
 11 16  1  0  0  0  0
 23 30  1  0  0  0  0
 23 31  1  0  0  0  0
 23 32  1  0  0  0  0
 24 33  1  0  0  0  0
 24 34  1  0  0  0  0
 24 35  1  0  0  0  0
 47 49  1  0  0  0  0
 47 50  1  0  0  0  0
 47 51  1  0  0  0  0
 21 27  1  0  0  0  0
 21 28  1  0  0  0  0
 37 42  1  0  0  0  0
  8 13  1  0  0  0  0
 18 26  1  0  0  0  0
 22 29  1  0  0  0  0
 46 48  1  0  0  0  0
  7 12  1  0  0  0  0
 36 41  1  0  0  0  0
 17 25  1  0  0  0  0
M  END
$$$$

  -OEChem-02062319033D

 51 50  0     1  0  0  0  0  0999 V2000
    3.4018   -1.2440   -3.0186 C   0  0  0  0  0  0  0  0  0  0  0  0
    3.2697   -2.0909   -2.1427 O   0  0  0  0  0  0  0  0  0  0  0  0
    4.6845   -1.1645   -3.7779 C   0  0  0  0  0  0  0  0  0  0  0  0
    5.4123   -0.4862   -3.3041 H   0  0  0  0  0  0  0  0  0  0  0  0
    5.1949   -2.1387   -3.8443 H   0  0  0  0  0  0  0  0  0  0  0  0
    4.5953   -0.8128   -4.8182 H   0  0  0  0  0  0  0  0  0  0  0  0
    2.4540   -0.3103   -3.4040 N   0  0  0  0  0  0  0  0  0  0  0  0
    1.1494   -0.2128   -2.8039 C   0  0  2  0  0  0  0  0  0  0  0  0
    1.3350    0.0367   -1.3130 C   0  0  0  0  0  0  0  0  0  0  0  0
    2.3625   -0.2586   -0.7063 O   0  0  0  0  0  0  0  0  0  0  0  0
    0.3331   -1.4728   -3.0467 C   0  0  0  0  0  0  0  0  0  0  0  0
    2.6924    0.3404   -4.1502 H   0  0  0  0  0  0  0  0  0  0  0  0
    0.6550    0.6514   -3.2607 H   0  0  0  0  0  0  0  0  0  0  0  0
    0.8129   -2.3494   -2.5963 H   0  0  0  0  0  0  0  0  0  0  0  0
   -0.6690   -1.3857   -2.6142 H   0  0  0  0  0  0  0  0  0  0  0  0
    0.2259   -1.6670   -4.1194 H   0  0  0  0  0  0  0  0  0  0  0  0
    0.2019    0.5893   -0.7269 N   0  0  0  0  0  0  0  0  0  0  0  0
   -0.3532    1.8522   -1.1395 C   0  0  2  0  0  0  0  0  0  0  0  0
    0.7261    2.9087   -0.9247 C   0  0  0  0  0  0  0  0  0  0  0  0
    0.9643    3.7974   -1.7400 O   0  0  0  0  0  0  0  0  0  0  0  0
   -1.6168    2.2167   -0.3498 C   0  0  0  0  0  0  0  0  0  0  0  0
   -2.8224    1.2858   -0.5924 C   0  0  0  0  0  0  0  0  0  0  0  0
   -3.9636    1.6611    0.3571 C   0  0  0  0  0  0  0  0  0  0  0  0
   -2.4650   -0.1900   -0.4101 C   0  0  0  0  0  0  0  0  0  0  0  0
   -0.2839    0.0676   -0.0005 H   0  0  0  0  0  0  0  0  0  0  0  0
   -0.5615    1.7748   -2.2114 H   0  0  0  0  0  0  0  0  0  0  0  0
   -1.9099    3.2449   -0.6047 H   0  0  0  0  0  0  0  0  0  0  0  0
   -1.3841    2.2300    0.7233 H   0  0  0  0  0  0  0  0  0  0  0  0
   -3.1858    1.4273   -1.6176 H   0  0  0  0  0  0  0  0  0  0  0  0
   -3.6573    1.5388    1.4015 H   0  0  0  0  0  0  0  0  0  0  0  0
   -4.8358    1.0205    0.1895 H   0  0  0  0  0  0  0  0  0  0  0  0
   -4.2742    2.7018    0.2145 H   0  0  0  0  0  0  0  0  0  0  0  0
   -2.0948   -0.3867    0.6018 H   0  0  0  0  0  0  0  0  0  0  0  0
   -3.3415   -0.8251   -0.5781 H   0  0  0  0  0  0  0  0  0  0  0  0
   -1.6972   -0.5055   -1.1226 H   0  0  0  0  0  0  0  0  0  0  0  0
    1.3532    2.7696    0.3057 N   0  0  0  0  0  0  0  0  0  0  0  0
    2.3950    3.6576    0.7691 C   0  0  2  0  0  0  0  0  0  0  0  0
    2.0248    5.0749    0.3524 C   0  0  0  0  0  0  0  0  0  0  0  0
    1.2580    5.3225   -0.5759 O   0  0  0  0  0  0  0  0  0  0  0  0
    3.7507    3.2619    0.2052 C   0  0  0  0  0  0  0  0  0  0  0  0
    1.0694    2.0170    0.9258 H   0  0  0  0  0  0  0  0  0  0  0  0
    2.4060    3.5888    1.8624 H   0  0  0  0  0  0  0  0  0  0  0  0
    3.7590    3.3246   -0.8891 H   0  0  0  0  0  0  0  0  0  0  0  0
    4.5432    3.9181    0.5798 H   0  0  0  0  0  0  0  0  0  0  0  0
    4.0020    2.2320    0.4809 H   0  0  0  0  0  0  0  0  0  0  0  0
    2.6849    6.0313    1.1113 N   0  0  0  0  0  0  0  0  0  0  0  0
    2.5112    7.4495    0.9008 C   0  0  0  0  0  0  0  0  0  0  0  0
    3.2880    5.7355    1.8732 H   0  0  0  0  0  0  0  0  0  0  0  0
    3.2809    7.8144    0.2048 H   0  0  0  0  0  0  0  0  0  0  0  0
    1.5141    7.6377    0.4760 H   0  0  0  0  0  0  0  0  0  0  0  0
    2.6060    7.9770    1.8614 H   0  0  0  0  0  0  0  0  0  0  0  0
  1  3  1  0  0  0  0
  1  7  1  0  0  0  0
  1  2  2  0  0  0  0
 37 38  1  0  0  0  0
 38 46  1  0  0  0  0
 38 39  2  0  0  0  0
  8  9  1  0  0  0  0
  9 17  1  0  0  0  0
  9 10  2  0  0  0  0
 18 19  1  0  0  0  0
 19 36  1  0  0  0  0
 19 20  2  0  0  0  0
 37 40  1  0  0  0  0
  8 11  1  0  0  0  0
 22 23  1  0  0  0  0
 22 24  1  0  0  0  0
 46 47  1  0  0  0  0
 18 21  1  0  0  0  0
 21 22  1  0  0  0  0
 36 37  1  0  0  0  0
  7  8  1  0  0  0  0
 17 18  1  0  0  0  0
  3  4  1  0  0  0  0
  3  5  1  0  0  0  0
  3  6  1  0  0  0  0
 40 43  1  0  0  0  0
 40 44  1  0  0  0  0
 40 45  1  0  0  0  0
 11 14  1  0  0  0  0
 11 15  1  0  0  0  0
 11 16  1  0  0  0  0
 23 30  1  0  0  0  0
 23 31  1  0  0  0  0
 23 32  1  0  0  0  0
 24 33  1  0  0  0  0
 24 34  1  0  0  0  0
 24 35  1  0  0  0  0
 47 49  1  0  0  0  0
 47 50  1  0  0  0  0
 47 51  1  0  0  0  0
 21 27  1  0  0  0  0
 21 28  1  0  0  0  0
 37 42  1  0  0  0  0
  8 13  1  0  0  0  0
 18 26  1  0  0  0  0
 22 29  1  0  0  0  0
 46 48  1  0  0  0  0
  7 12  1  0  0  0  0
 36 41  1  0  0  0  0
 17 25  1  0  0  0  0
M  END
$$$$

  -OEChem-02062319033D

 51 50  0     1  0  0  0  0  0999 V2000
    3.4018   -1.2440   -3.0186 C   0  0  0  0  0  0  0  0  0  0  0  0
    3.2697   -2.0909   -2.1427 O   0  0  0  0  0  0  0  0  0  0  0  0
    4.6845   -1.1645   -3.7779 C   0  0  0  0  0  0  0  0  0  0  0  0
    5.4123   -0.4862   -3.3041 H   0  0  0  0  0  0  0  0  0  0  0  0
    5.1949   -2.1387   -3.8443 H   0  0  0  0  0  0  0  0  0  0  0  0
    4.5953   -0.8128   -4.8182 H   0  0  0  0  0  0  0  0  0  0  0  0
    2.4540   -0.3103   -3.4040 N   0  0  0  0  0  0  0  0  0  0  0  0
    1.1494   -0.2128   -2.8039 C   0  0  2  0  0  0  0  0  0  0  0  0
    1.3350    0.0367   -1.3130 C   0  0  0  0  0  0  0  0  0  0  0  0
    2.3625   -0.2586   -0.7063 O   0  0  0  0  0  0  0  0  0  0  0  0
    0.3331   -1.4728   -3.0467 C   0  0  0  0  0  0  0  0  0  0  0  0
    2.6924    0.3404   -4.1502 H   0  0  0  0  0  0  0  0  0  0  0  0
    0.6550    0.6514   -3.2607 H   0  0  0  0  0  0  0  0  0  0  0  0
    0.8129   -2.3494   -2.5963 H   0  0  0  0  0  0  0  0  0  0  0  0
   -0.6690   -1.3857   -2.6142 H   0  0  0  0  0  0  0  0  0  0  0  0
    0.2259   -1.6670   -4.1194 H   0  0  0  0  0  0  0  0  0  0  0  0
    0.2019    0.5893   -0.7269 N   0  0  0  0  0  0  0  0  0  0  0  0
   -0.5362    1.6721   -1.3235 C   0  0  2  0  0  0  0  0  0  0  0  0
    0.4233    2.8507   -1.4553 C   0  0  0  0  0  0  0  0  0  0  0  0
    0.4778    3.5606   -2.4574 O   0  0  0  0  0  0  0  0  0  0  0  0
   -1.7572    2.0733   -0.4860 C   0  0  0  0  0  0  0  0  0  0  0  0
   -2.8592    0.9983   -0.3926 C   0  0  0  0  0  0  0  0  0  0  0  0
   -3.9459    1.4567    0.5840 C   0  0  0  0  0  0  0  0  0  0  0  0
   -2.3120   -0.3605    0.0466 C   0  0  0  0  0  0  0  0  0  0  0  0
   -0.1495    0.1923    0.1419 H   0  0  0  0  0  0  0  0  0  0  0  0
   -0.8305    1.3443   -2.3256 H   0  0  0  0  0  0  0  0  0  0  0  0
   -2.1936    2.9881   -0.9112 H   0  0  0  0  0  0  0  0  0  0  0  0
   -1.4309    2.3416    0.5277 H   0  0  0  0  0  0  0  0  0  0  0  0
   -3.3289    0.8781   -1.3765 H   0  0  0  0  0  0  0  0  0  0  0  0
   -3.5332    1.5942    1.5891 H   0  0  0  0  0  0  0  0  0  0  0  0
   -4.7465    0.7126    0.6525 H   0  0  0  0  0  0  0  0  0  0  0  0
   -4.3910    2.4062    0.2674 H   0  0  0  0  0  0  0  0  0  0  0  0
   -1.8301   -0.2961    1.0281 H   0  0  0  0  0  0  0  0  0  0  0  0
   -3.1175   -1.0998    0.1140 H   0  0  0  0  0  0  0  0  0  0  0  0
   -1.5800   -0.7461   -0.6692 H   0  0  0  0  0  0  0  0  0  0  0  0
    1.1722    3.0437   -0.3027 N   0  0  0  0  0  0  0  0  0  0  0  0
    2.1376    4.1088   -0.1538 C   0  0  2  0  0  0  0  0  0  0  0  0
    1.5634    5.3588   -0.8073 C   0  0  0  0  0  0  0  0  0  0  0  0
    0.6909    5.3230   -1.6726 O   0  0  0  0  0  0  0  0  0  0  0  0
    3.4740    3.7352   -0.7761 C   0  0  0  0  0  0  0  0  0  0  0  0
    1.0386    2.4192    0.4871 H   0  0  0  0  0  0  0  0  0  0  0  0
    2.2564    4.2799    0.9216 H   0  0  0  0  0  0  0  0  0  0  0  0
    3.3749    3.5598   -1.8535 H   0  0  0  0  0  0  0  0  0  0  0  0
    4.2127    4.5315   -0.6375 H   0  0  0  0  0  0  0  0  0  0  0  0
    3.8713    2.8193   -0.3255 H   0  0  0  0  0  0  0  0  0  0  0  0
    2.1702    6.5169   -0.3417 N   0  0  0  0  0  0  0  0  0  0  0  0
    1.8089    7.8319   -0.8174 C   0  0  0  0  0  0  0  0  0  0  0  0
    2.8714    6.4539    0.3906 H   0  0  0  0  0  0  0  0  0  0  0  0
    2.4625    8.1110   -1.6570 H   0  0  0  0  0  0  0  0  0  0  0  0
    0.7619    7.8248   -1.1546 H   0  0  0  0  0  0  0  0  0  0  0  0
    1.9268    8.5616   -0.0028 H   0  0  0  0  0  0  0  0  0  0  0  0
  1  3  1  0  0  0  0
  1  7  1  0  0  0  0
  1  2  2  0  0  0  0
 37 38  1  0  0  0  0
 38 46  1  0  0  0  0
 38 39  2  0  0  0  0
  8  9  1  0  0  0  0
  9 17  1  0  0  0  0
  9 10  2  0  0  0  0
 18 19  1  0  0  0  0
 19 36  1  0  0  0  0
 19 20  2  0  0  0  0
 37 40  1  0  0  0  0
  8 11  1  0  0  0  0
 22 23  1  0  0  0  0
 22 24  1  0  0  0  0
 46 47  1  0  0  0  0
 18 21  1  0  0  0  0
 21 22  1  0  0  0  0
 36 37  1  0  0  0  0
  7  8  1  0  0  0  0
 17 18  1  0  0  0  0
  3  4  1  0  0  0  0
  3  5  1  0  0  0  0
  3  6  1  0  0  0  0
 40 43  1  0  0  0  0
 40 44  1  0  0  0  0
 40 45  1  0  0  0  0
 11 14  1  0  0  0  0
 11 15  1  0  0  0  0
 11 16  1  0  0  0  0
 23 30  1  0  0  0  0
 23 31  1  0  0  0  0
 23 32  1  0  0  0  0
 24 33  1  0  0  0  0
 24 34  1  0  0  0  0
 24 35  1  0  0  0  0
 47 49  1  0  0  0  0
 47 50  1  0  0  0  0
 47 51  1  0  0  0  0
 21 27  1  0  0  0  0
 21 28  1  0  0  0  0
 37 42  1  0  0  0  0
  8 13  1  0  0  0  0
 18 26  1  0  0  0  0
 22 29  1  0  0  0  0
 46 48  1  0  0  0  0
  7 12  1  0  0  0  0
 36 41  1  0  0  0  0
 17 25  1  0  0  0  0
M  END
$$$$

  -OEChem-02062319033D

 51 50  0     1  0  0  0  0  0999 V2000
    3.4018   -1.2440   -3.0186 C   0  0  0  0  0  0  0  0  0  0  0  0
    3.2697   -2.0909   -2.1427 O   0  0  0  0  0  0  0  0  0  0  0  0
    4.6845   -1.1645   -3.7779 C   0  0  0  0  0  0  0  0  0  0  0  0
    5.4123   -0.4862   -3.3041 H   0  0  0  0  0  0  0  0  0  0  0  0
    5.1949   -2.1387   -3.8443 H   0  0  0  0  0  0  0  0  0  0  0  0
    4.5953   -0.8128   -4.8182 H   0  0  0  0  0  0  0  0  0  0  0  0
    2.4540   -0.3103   -3.4040 N   0  0  0  0  0  0  0  0  0  0  0  0
    1.1494   -0.2128   -2.8039 C   0  0  2  0  0  0  0  0  0  0  0  0
    1.3350    0.0367   -1.3130 C   0  0  0  0  0  0  0  0  0  0  0  0
    2.3625   -0.2586   -0.7063 O   0  0  0  0  0  0  0  0  0  0  0  0
    0.3331   -1.4728   -3.0467 C   0  0  0  0  0  0  0  0  0  0  0  0
    2.6924    0.3404   -4.1502 H   0  0  0  0  0  0  0  0  0  0  0  0
    0.6550    0.6514   -3.2607 H   0  0  0  0  0  0  0  0  0  0  0  0
    0.8129   -2.3494   -2.5963 H   0  0  0  0  0  0  0  0  0  0  0  0
   -0.6690   -1.3857   -2.6142 H   0  0  0  0  0  0  0  0  0  0  0  0
    0.2259   -1.6670   -4.1194 H   0  0  0  0  0  0  0  0  0  0  0  0
    0.2019    0.5893   -0.7269 N   0  0  0  0  0  0  0  0  0  0  0  0
   -0.7123    1.4394   -1.4445 C   0  0  2  0  0  0  0  0  0  0  0  0
    0.0827    2.6497   -1.9244 C   0  0  0  0  0  0  0  0  0  0  0  0
   -0.0402    3.1275   -3.0504 O   0  0  0  0  0  0  0  0  0  0  0  0
   -1.8911    1.8908   -0.5728 C   0  0  0  0  0  0  0  0  0  0  0  0
   -2.8428    0.7588   -0.1352 C   0  0  0  0  0  0  0  0  0  0  0  0
   -3.8831    1.3090    0.8445 C   0  0  0  0  0  0  0  0  0  0  0  0
   -2.0986   -0.4122    0.5079 C   0  0  0  0  0  0  0  0  0  0  0  0
   -0.0186    0.3575    0.2393 H   0  0  0  0  0  0  0  0  0  0  0  0
   -1.0552    0.8750   -2.3175 H   0  0  0  0  0  0  0  0  0  0  0  0
   -2.4712    2.6444   -1.1239 H   0  0  0  0  0  0  0  0  0  0  0  0
   -1.5084    2.4030    0.3199 H   0  0  0  0  0  0  0  0  0  0  0  0
   -3.3824    0.3828   -1.0130 H   0  0  0  0  0  0  0  0  0  0  0  0
   -3.4001    1.7008    1.7459 H   0  0  0  0  0  0  0  0  0  0  0  0
   -4.5789    0.5226    1.1555 H   0  0  0  0  0  0  0  0  0  0  0  0
   -4.4661    2.1190    0.3929 H   0  0  0  0  0  0  0  0  0  0  0  0
   -1.5405   -0.0897    1.3934 H   0  0  0  0  0  0  0  0  0  0  0  0
   -2.7999   -1.1947    0.8174 H   0  0  0  0  0  0  0  0  0  0  0  0
   -1.3940   -0.8700   -0.1926 H   0  0  0  0  0  0  0  0  0  0  0  0
    0.9048    3.1604   -0.9295 N   0  0  0  0  0  0  0  0  0  0  0  0
    1.7449    4.3218   -1.1140 C   0  0  2  0  0  0  0  0  0  0  0  0
    0.9674    5.3381   -1.9400 C   0  0  0  0  0  0  0  0  0  0  0  0
    0.0304    5.0302   -2.6736 O   0  0  0  0  0  0  0  0  0  0  0  0
    3.0541    3.9552   -1.7953 C   0  0  0  0  0  0  0  0  0  0  0  0
    0.9198    2.7118   -0.0183 H   0  0  0  0  0  0  0  0  0  0  0  0
    1.9398    4.7327   -0.1174 H   0  0  0  0  0  0  0  0  0  0  0  0
    2.8790    3.5417   -2.7952 H   0  0  0  0  0  0  0  0  0  0  0  0
    3.7013    4.8311   -1.9086 H   0  0  0  0  0  0  0  0  0  0  0  0
    3.5980    3.2021   -1.2148 H   0  0  0  0  0  0  0  0  0  0  0  0
    1.4706    6.6233   -1.7946 N   0  0  0  0  0  0  0  0  0  0  0  0
    0.9121    7.7621   -2.4855 C   0  0  0  0  0  0  0  0  0  0  0  0
    2.2381    6.7895   -1.1503 H   0  0  0  0  0  0  0  0  0  0  0  0
    1.4481    7.9154   -3.4337 H   0  0  0  0  0  0  0  0  0  0  0  0
   -0.1528    7.5794   -2.6918 H   0  0  0  0  0  0  0  0  0  0  0  0
    1.0152    8.6589   -1.8569 H   0  0  0  0  0  0  0  0  0  0  0  0
  1  3  1  0  0  0  0
  1  7  1  0  0  0  0
  1  2  2  0  0  0  0
 37 38  1  0  0  0  0
 38 46  1  0  0  0  0
 38 39  2  0  0  0  0
  8  9  1  0  0  0  0
  9 17  1  0  0  0  0
  9 10  2  0  0  0  0
 18 19  1  0  0  0  0
 19 36  1  0  0  0  0
 19 20  2  0  0  0  0
 37 40  1  0  0  0  0
  8 11  1  0  0  0  0
 22 23  1  0  0  0  0
 22 24  1  0  0  0  0
 46 47  1  0  0  0  0
 18 21  1  0  0  0  0
 21 22  1  0  0  0  0
 36 37  1  0  0  0  0
  7  8  1  0  0  0  0
 17 18  1  0  0  0  0
  3  4  1  0  0  0  0
  3  5  1  0  0  0  0
  3  6  1  0  0  0  0
 40 43  1  0  0  0  0
 40 44  1  0  0  0  0
 40 45  1  0  0  0  0
 11 14  1  0  0  0  0
 11 15  1  0  0  0  0
 11 16  1  0  0  0  0
 23 30  1  0  0  0  0
 23 31  1  0  0  0  0
 23 32  1  0  0  0  0
 24 33  1  0  0  0  0
 24 34  1  0  0  0  0
 24 35  1  0  0  0  0
 47 49  1  0  0  0  0
 47 50  1  0  0  0  0
 47 51  1  0  0  0  0
 21 27  1  0  0  0  0
 21 28  1  0  0  0  0
 37 42  1  0  0  0  0
  8 13  1  0  0  0  0
 18 26  1  0  0  0  0
 22 29  1  0  0  0  0
 46 48  1  0  0  0  0
  7 12  1  0  0  0  0
 36 41  1  0  0  0  0
 17 25  1  0  0  0  0
M  END
$$$$

  -OEChem-02062319033D

 51 50  0     1  0  0  0  0  0999 V2000
    3.4018   -1.2440   -3.0186 C   0  0  0  0  0  0  0  0  0  0  0  0
    3.2697   -2.0909   -2.1427 O   0  0  0  0  0  0  0  0  0  0  0  0
    4.6845   -1.1645   -3.7779 C   0  0  0  0  0  0  0  0  0  0  0  0
    5.4123   -0.4862   -3.3041 H   0  0  0  0  0  0  0  0  0  0  0  0
    5.1949   -2.1387   -3.8443 H   0  0  0  0  0  0  0  0  0  0  0  0
    4.5953   -0.8128   -4.8182 H   0  0  0  0  0  0  0  0  0  0  0  0
    2.4540   -0.3103   -3.4040 N   0  0  0  0  0  0  0  0  0  0  0  0
    1.1494   -0.2128   -2.8039 C   0  0  2  0  0  0  0  0  0  0  0  0
    1.3350    0.0367   -1.3130 C   0  0  0  0  0  0  0  0  0  0  0  0
    2.3625   -0.2586   -0.7063 O   0  0  0  0  0  0  0  0  0  0  0  0
    0.3331   -1.4728   -3.0467 C   0  0  0  0  0  0  0  0  0  0  0  0
    2.6924    0.3404   -4.1502 H   0  0  0  0  0  0  0  0  0  0  0  0
    0.6550    0.6514   -3.2607 H   0  0  0  0  0  0  0  0  0  0  0  0
    0.8129   -2.3494   -2.5963 H   0  0  0  0  0  0  0  0  0  0  0  0
   -0.6690   -1.3857   -2.6142 H   0  0  0  0  0  0  0  0  0  0  0  0
    0.2259   -1.6670   -4.1194 H   0  0  0  0  0  0  0  0  0  0  0  0
    0.2019    0.5893   -0.7269 N   0  0  0  0  0  0  0  0  0  0  0  0
   -0.8694    1.1699   -1.4941 C   0  0  2  0  0  0  0  0  0  0  0  0
   -0.2727    2.3195   -2.3001 C   0  0  0  0  0  0  0  0  0  0  0  0
   -0.5542    2.5275   -3.4785 O   0  0  0  0  0  0  0  0  0  0  0  0
   -2.0095    1.6816   -0.6045 C   0  0  0  0  0  0  0  0  0  0  0  0
   -2.7744    0.5835    0.1623 C   0  0  0  0  0  0  0  0  0  0  0  0
   -3.7796    1.2282    1.1208 C   0  0  0  0  0  0  0  0  0  0  0  0
   -1.8394   -0.3416    0.9424 C   0  0  0  0  0  0  0  0  0  0  0  0
    0.0999    0.5519    0.2851 H   0  0  0  0  0  0  0  0  0  0  0  0
   -1.2201    0.3989   -2.1876 H   0  0  0  0  0  0  0  0  0  0  0  0
   -2.7238    2.2373   -1.2282 H   0  0  0  0  0  0  0  0  0  0  0  0
   -1.6113    2.4100    0.1143 H   0  0  0  0  0  0  0  0  0  0  0  0
   -3.3427   -0.0248   -0.5519 H   0  0  0  0  0  0  0  0  0  0  0  0
   -3.2670    1.8514    1.8612 H   0  0  0  0  0  0  0  0  0  0  0  0
   -4.3446    0.4635    1.6643 H   0  0  0  0  0  0  0  0  0  0  0  0
   -4.4944    1.8599    0.5824 H   0  0  0  0  0  0  0  0  0  0  0  0
   -1.2457    0.2182    1.6730 H   0  0  0  0  0  0  0  0  0  0  0  0
   -2.4104   -1.1033    1.4843 H   0  0  0  0  0  0  0  0  0  0  0  0
   -1.1517   -0.8689    0.2748 H   0  0  0  0  0  0  0  0  0  0  0  0
    0.5694    3.1117   -1.5320 N   0  0  0  0  0  0  0  0  0  0  0  0
    1.2435    4.2822   -2.0460 C   0  0  2  0  0  0  0  0  0  0  0  0
    0.2775    5.0141   -2.9683 C   0  0  0  0  0  0  0  0  0  0  0  0
   -0.6787    4.4642   -3.5109 O   0  0  0  0  0  0  0  0  0  0  0  0
    2.5197    3.9069   -2.7830 C   0  0  0  0  0  0  0  0  0  0  0  0
    0.7212    2.8748   -0.5561 H   0  0  0  0  0  0  0  0  0  0  0  0
    1.4776    4.9163   -1.1840 H   0  0  0  0  0  0  0  0  0  0  0  0
    2.3050    3.2714   -3.6500 H   0  0  0  0  0  0  0  0  0  0  0  0
    3.0439    4.7966   -3.1471 H   0  0  0  0  0  0  0  0  0  0  0  0
    3.2007    3.3545   -2.1266 H   0  0  0  0  0  0  0  0  0  0  0  0
    0.6337    6.3433   -3.1484 N   0  0  0  0  0  0  0  0  0  0  0  0
   -0.1182    7.2449   -3.9897 C   0  0  0  0  0  0  0  0  0  0  0  0
    1.4312    6.7196   -2.6442 H   0  0  0  0  0  0  0  0  0  0  0  0
    0.3069    7.2410   -5.0042 H   0  0  0  0  0  0  0  0  0  0  0  0
   -1.1678    6.9184   -4.0308 H   0  0  0  0  0  0  0  0  0  0  0  0
   -0.0667    8.2623   -3.5747 H   0  0  0  0  0  0  0  0  0  0  0  0
  1  3  1  0  0  0  0
  1  7  1  0  0  0  0
  1  2  2  0  0  0  0
 37 38  1  0  0  0  0
 38 46  1  0  0  0  0
 38 39  2  0  0  0  0
  8  9  1  0  0  0  0
  9 17  1  0  0  0  0
  9 10  2  0  0  0  0
 18 19  1  0  0  0  0
 19 36  1  0  0  0  0
 19 20  2  0  0  0  0
 37 40  1  0  0  0  0
  8 11  1  0  0  0  0
 22 23  1  0  0  0  0
 22 24  1  0  0  0  0
 46 47  1  0  0  0  0
 18 21  1  0  0  0  0
 21 22  1  0  0  0  0
 36 37  1  0  0  0  0
  7  8  1  0  0  0  0
 17 18  1  0  0  0  0
  3  4  1  0  0  0  0
  3  5  1  0  0  0  0
  3  6  1  0  0  0  0
 40 43  1  0  0  0  0
 40 44  1  0  0  0  0
 40 45  1  0  0  0  0
 11 14  1  0  0  0  0
 11 15  1  0  0  0  0
 11 16  1  0  0  0  0
 23 30  1  0  0  0  0
 23 31  1  0  0  0  0
 23 32  1  0  0  0  0
 24 33  1  0  0  0  0
 24 34  1  0  0  0  0
 24 35  1  0  0  0  0
 47 49  1  0  0  0  0
 47 50  1  0  0  0  0
 47 51  1  0  0  0  0
 21 27  1  0  0  0  0
 21 28  1  0  0  0  0
 37 42  1  0  0  0  0
  8 13  1  0  0  0  0
 18 26  1  0  0  0  0
 22 29  1  0  0  0  0
 46 48  1  0  0  0  0
  7 12  1  0  0  0  0
 36 41  1  0  0  0  0
 17 25  1  0  0  0  0
M  END
$$$$

  -OEChem-02062319033D

 51 50  0     1  0  0  0  0  0999 V2000
    3.4018   -1.2440   -3.0186 C   0  0  0  0  0  0  0  0  0  0  0  0
    3.2697   -2.0909   -2.1427 O   0  0  0  0  0  0  0  0  0  0  0  0
    4.6845   -1.1645   -3.7779 C   0  0  0  0  0  0  0  0  0  0  0  0
    5.4123   -0.4862   -3.3041 H   0  0  0  0  0  0  0  0  0  0  0  0
    5.1949   -2.1387   -3.8443 H   0  0  0  0  0  0  0  0  0  0  0  0
    4.5953   -0.8128   -4.8182 H   0  0  0  0  0  0  0  0  0  0  0  0
    2.4540   -0.3103   -3.4040 N   0  0  0  0  0  0  0  0  0  0  0  0
    1.1494   -0.2128   -2.8039 C   0  0  2  0  0  0  0  0  0  0  0  0
    1.3350    0.0367   -1.3130 C   0  0  0  0  0  0  0  0  0  0  0  0
    2.3625   -0.2586   -0.7063 O   0  0  0  0  0  0  0  0  0  0  0  0
    0.3331   -1.4728   -3.0467 C   0  0  0  0  0  0  0  0  0  0  0  0
    2.6924    0.3404   -4.1502 H   0  0  0  0  0  0  0  0  0  0  0  0
    0.6550    0.6514   -3.2607 H   0  0  0  0  0  0  0  0  0  0  0  0
    0.8129   -2.3494   -2.5963 H   0  0  0  0  0  0  0  0  0  0  0  0
   -0.6690   -1.3857   -2.6142 H   0  0  0  0  0  0  0  0  0  0  0  0
    0.2259   -1.6670   -4.1194 H   0  0  0  0  0  0  0  0  0  0  0  0
    0.2019    0.5893   -0.7269 N   0  0  0  0  0  0  0  0  0  0  0  0
   -0.9968    0.8820   -1.4690 C   0  0  2  0  0  0  0  0  0  0  0  0
   -0.6185    1.8825   -2.5567 C   0  0  0  0  0  0  0  0  0  0  0  0
   -1.0293    1.8016   -3.7126 O   0  0  0  0  0  0  0  0  0  0  0  0
   -2.1043    1.4599   -0.5787 C   0  0  0  0  0  0  0  0  0  0  0  0
   -2.6586    0.4845    0.4796 C   0  0  0  0  0  0  0  0  0  0  0  0
   -3.6424    1.2197    1.3941 C   0  0  0  0  0  0  0  0  0  0  0  0
   -1.5520   -0.1534    1.3206 C   0  0  0  0  0  0  0  0  0  0  0  0
    0.1978    0.7622    0.2761 H   0  0  0  0  0  0  0  0  0  0  0  0
   -1.3141   -0.0515   -1.9446 H   0  0  0  0  0  0  0  0  0  0  0  0
   -2.9340    1.7944   -1.2172 H   0  0  0  0  0  0  0  0  0  0  0  0
   -1.7326    2.3622   -0.0752 H   0  0  0  0  0  0  0  0  0  0  0  0
   -3.2124   -0.3169   -0.0246 H   0  0  0  0  0  0  0  0  0  0  0  0
   -3.1430    2.0358    1.9271 H   0  0  0  0  0  0  0  0  0  0  0  0
   -4.0595    0.5392    2.1440 H   0  0  0  0  0  0  0  0  0  0  0  0
   -4.4740    1.6466    0.8231 H   0  0  0  0  0  0  0  0  0  0  0  0
   -0.9658    0.6069    1.8478 H   0  0  0  0  0  0  0  0  0  0  0  0
   -1.9756   -0.8319    2.0690 H   0  0  0  0  0  0  0  0  0  0  0  0
   -0.8696   -0.7428    0.7011 H   0  0  0  0  0  0  0  0  0  0  0  0
    0.1887    2.9009   -2.0693 N   0  0  0  0  0  0  0  0  0  0  0  0
    0.6676    3.9926   -2.8863 C   0  0  2  0  0  0  0  0  0  0  0  0
   -0.4594    4.4090   -3.8223 C   0  0  0  0  0  0  0  0  0  0  0  0
   -1.3880    3.6635   -4.1273 O   0  0  0  0  0  0  0  0  0  0  0  0
    1.9071    3.5935   -3.6718 C   0  0  0  0  0  0  0  0  0  0  0  0
    0.4562    2.8972   -1.0894 H   0  0  0  0  0  0  0  0  0  0  0  0
    0.9015    4.8183   -2.2055 H   0  0  0  0  0  0  0  0  0  0  0  0
    1.6922    2.7674   -4.3595 H   0  0  0  0  0  0  0  0  0  0  0  0
    2.2852    4.4303   -4.2684 H   0  0  0  0  0  0  0  0  0  0  0  0
    2.7065    3.2660   -2.9985 H   0  0  0  0  0  0  0  0  0  0  0  0
   -0.2833    5.6960   -4.3110 N   0  0  0  0  0  0  0  0  0  0  0  0
   -1.2117    6.3157   -5.2276 C   0  0  0  0  0  0  0  0  0  0  0  0
    0.5058    6.2489   -3.9896 H   0  0  0  0  0  0  0  0  0  0  0  0
   -0.8835    6.1337   -6.2616 H   0  0  0  0  0  0  0  0  0  0  0  0
   -2.2138    5.8867   -5.0802 H   0  0  0  0  0  0  0  0  0  0  0  0
   -1.2451    7.3988   -5.0389 H   0  0  0  0  0  0  0  0  0  0  0  0
  1  3  1  0  0  0  0
  1  7  1  0  0  0  0
  1  2  2  0  0  0  0
 37 38  1  0  0  0  0
 38 46  1  0  0  0  0
 38 39  2  0  0  0  0
  8  9  1  0  0  0  0
  9 17  1  0  0  0  0
  9 10  2  0  0  0  0
 18 19  1  0  0  0  0
 19 36  1  0  0  0  0
 19 20  2  0  0  0  0
 37 40  1  0  0  0  0
  8 11  1  0  0  0  0
 22 23  1  0  0  0  0
 22 24  1  0  0  0  0
 46 47  1  0  0  0  0
 18 21  1  0  0  0  0
 21 22  1  0  0  0  0
 36 37  1  0  0  0  0
  7  8  1  0  0  0  0
 17 18  1  0  0  0  0
  3  4  1  0  0  0  0
  3  5  1  0  0  0  0
  3  6  1  0  0  0  0
 40 43  1  0  0  0  0
 40 44  1  0  0  0  0
 40 45  1  0  0  0  0
 11 14  1  0  0  0  0
 11 15  1  0  0  0  0
 11 16  1  0  0  0  0
 23 30  1  0  0  0  0
 23 31  1  0  0  0  0
 23 32  1  0  0  0  0
 24 33  1  0  0  0  0
 24 34  1  0  0  0  0
 24 35  1  0  0  0  0
 47 49  1  0  0  0  0
 47 50  1  0  0  0  0
 47 51  1  0  0  0  0
 21 27  1  0  0  0  0
 21 28  1  0  0  0  0
 37 42  1  0  0  0  0
  8 13  1  0  0  0  0
 18 26  1  0  0  0  0
 22 29  1  0  0  0  0
 46 48  1  0  0  0  0
  7 12  1  0  0  0  0
 36 41  1  0  0  0  0
 17 25  1  0  0  0  0
M  END
$$$$

  -OEChem-02062319033D

 51 50  0     1  0  0  0  0  0999 V2000
    3.4018   -1.2440   -3.0186 C   0  0  0  0  0  0  0  0  0  0  0  0
    3.2697   -2.0909   -2.1427 O   0  0  0  0  0  0  0  0  0  0  0  0
    4.6845   -1.1645   -3.7779 C   0  0  0  0  0  0  0  0  0  0  0  0
    5.4123   -0.4862   -3.3041 H   0  0  0  0  0  0  0  0  0  0  0  0
    5.1949   -2.1387   -3.8443 H   0  0  0  0  0  0  0  0  0  0  0  0
    4.5953   -0.8128   -4.8182 H   0  0  0  0  0  0  0  0  0  0  0  0
    2.4540   -0.3103   -3.4040 N   0  0  0  0  0  0  0  0  0  0  0  0
    1.1494   -0.2128   -2.8039 C   0  0  2  0  0  0  0  0  0  0  0  0
    1.3350    0.0367   -1.3130 C   0  0  0  0  0  0  0  0  0  0  0  0
    2.3625   -0.2586   -0.7063 O   0  0  0  0  0  0  0  0  0  0  0  0
    0.3331   -1.4728   -3.0467 C   0  0  0  0  0  0  0  0  0  0  0  0
    2.6924    0.3404   -4.1502 H   0  0  0  0  0  0  0  0  0  0  0  0
    0.6550    0.6514   -3.2607 H   0  0  0  0  0  0  0  0  0  0  0  0
    0.8129   -2.3494   -2.5963 H   0  0  0  0  0  0  0  0  0  0  0  0
   -0.6690   -1.3857   -2.6142 H   0  0  0  0  0  0  0  0  0  0  0  0
    0.2259   -1.6670   -4.1194 H   0  0  0  0  0  0  0  0  0  0  0  0
    0.2019    0.5893   -0.7269 N   0  0  0  0  0  0  0  0  0  0  0  0
   -1.0859    0.5952   -1.3710 C   0  0  2  0  0  0  0  0  0  0  0  0
   -0.9314    1.3685   -2.6769 C   0  0  0  0  0  0  0  0  0  0  0  0
   -1.4330    0.9992   -3.7367 O   0  0  0  0  0  0  0  0  0  0  0  0
   -2.1690    1.2409   -0.4973 C   0  0  0  0  0  0  0  0  0  0  0  0
   -2.5033    0.4683    0.7951 C   0  0  0  0  0  0  0  0  0  0  0  0
   -3.4808    1.2841    1.6458 C   0  0  0  0  0  0  0  0  0  0  0  0
   -1.2561    0.1395    1.6166 C   0  0  0  0  0  0  0  0  0  0  0  0
    0.2685    0.9741    0.2129 H   0  0  0  0  0  0  0  0  0  0  0  0
   -1.3308   -0.4457   -1.6053 H   0  0  0  0  0  0  0  0  0  0  0  0
   -3.0876    1.3461   -1.0915 H   0  0  0  0  0  0  0  0  0  0  0  0
   -1.8641    2.2628   -0.2356 H   0  0  0  0  0  0  0  0  0  0  0  0
   -3.0004   -0.4736    0.5329 H   0  0  0  0  0  0  0  0  0  0  0  0
   -3.0366    2.2412    1.9392 H   0  0  0  0  0  0  0  0  0  0  0  0
   -3.7430    0.7447    2.5621 H   0  0  0  0  0  0  0  0  0  0  0  0
   -4.4062    1.4935    1.0984 H   0  0  0  0  0  0  0  0  0  0  0  0
   -0.7198    1.0497    1.9058 H   0  0  0  0  0  0  0  0  0  0  0  0
   -1.5251   -0.3989    2.5318 H   0  0  0  0  0  0  0  0  0  0  0  0
   -0.5672   -0.5003    1.0572 H   0  0  0  0  0  0  0  0  0  0  0  0
   -0.2112    2.5425   -2.5046 N   0  0  0  0  0  0  0  0  0  0  0  0
    0.0565    3.4728   -3.5777 C   0  0  2  0  0  0  0  0  0  0  0  0
   -1.1930    3.5639   -4.4438 C   0  0  0  0  0  0  0  0  0  0  0  0
   -2.0492    2.6826   -4.4808 O   0  0  0  0  0  0  0  0  0  0  0  0
    1.2582    3.0365   -4.4013 C   0  0  0  0  0  0  0  0  0  0  0  0
    0.1429    2.7774   -1.5821 H   0  0  0  0  0  0  0  0  0  0  0  0
    0.2505    4.4452   -3.1122 H   0  0  0  0  0  0  0  0  0  0  0  0
    1.0823    2.0641   -4.8755 H   0  0  0  0  0  0  0  0  0  0  0  0
    1.4770    3.7571   -5.1962 H   0  0  0  0  0  0  0  0  0  0  0  0
    2.1492    2.9427   -3.7712 H   0  0  0  0  0  0  0  0  0  0  0  0
   -1.2181    4.7253   -5.2031 N   0  0  0  0  0  0  0  0  0  0  0  0
   -2.2938    5.0376   -6.1148 C   0  0  0  0  0  0  0  0  0  0  0  0
   -0.4751    5.4094   -5.0945 H   0  0  0  0  0  0  0  0  0  0  0  0
   -2.0418    4.6691   -7.1201 H   0  0  0  0  0  0  0  0  0  0  0  0
   -3.2195    4.5546   -5.7687 H   0  0  0  0  0  0  0  0  0  0  0  0
   -2.4399    6.1273   -6.1499 H   0  0  0  0  0  0  0  0  0  0  0  0
  1  3  1  0  0  0  0
  1  7  1  0  0  0  0
  1  2  2  0  0  0  0
 37 38  1  0  0  0  0
 38 46  1  0  0  0  0
 38 39  2  0  0  0  0
  8  9  1  0  0  0  0
  9 17  1  0  0  0  0
  9 10  2  0  0  0  0
 18 19  1  0  0  0  0
 19 36  1  0  0  0  0
 19 20  2  0  0  0  0
 37 40  1  0  0  0  0
  8 11  1  0  0  0  0
 22 23  1  0  0  0  0
 22 24  1  0  0  0  0
 46 47  1  0  0  0  0
 18 21  1  0  0  0  0
 21 22  1  0  0  0  0
 36 37  1  0  0  0  0
  7  8  1  0  0  0  0
 17 18  1  0  0  0  0
  3  4  1  0  0  0  0
  3  5  1  0  0  0  0
  3  6  1  0  0  0  0
 40 43  1  0  0  0  0
 40 44  1  0  0  0  0
 40 45  1  0  0  0  0
 11 14  1  0  0  0  0
 11 15  1  0  0  0  0
 11 16  1  0  0  0  0
 23 30  1  0  0  0  0
 23 31  1  0  0  0  0
 23 32  1  0  0  0  0
 24 33  1  0  0  0  0
 24 34  1  0  0  0  0
 24 35  1  0  0  0  0
 47 49  1  0  0  0  0
 47 50  1  0  0  0  0
 47 51  1  0  0  0  0
 21 27  1  0  0  0  0
 21 28  1  0  0  0  0
 37 42  1  0  0  0  0
  8 13  1  0  0  0  0
 18 26  1  0  0  0  0
 22 29  1  0  0  0  0
 46 48  1  0  0  0  0
  7 12  1  0  0  0  0
 36 41  1  0  0  0  0
 17 25  1  0  0  0  0
M  END
$$$$

  -OEChem-02062319033D

 51 50  0     1  0  0  0  0  0999 V2000
    3.4018   -1.2440   -3.0186 C   0  0  0  0  0  0  0  0  0  0  0  0
    3.2697   -2.0909   -2.1427 O   0  0  0  0  0  0  0  0  0  0  0  0
    4.6845   -1.1645   -3.7779 C   0  0  0  0  0  0  0  0  0  0  0  0
    5.4123   -0.4862   -3.3041 H   0  0  0  0  0  0  0  0  0  0  0  0
    5.1949   -2.1387   -3.8443 H   0  0  0  0  0  0  0  0  0  0  0  0
    4.5953   -0.8128   -4.8182 H   0  0  0  0  0  0  0  0  0  0  0  0
    2.4540   -0.3103   -3.4040 N   0  0  0  0  0  0  0  0  0  0  0  0
    1.1494   -0.2128   -2.8039 C   0  0  2  0  0  0  0  0  0  0  0  0
    1.3350    0.0367   -1.3130 C   0  0  0  0  0  0  0  0  0  0  0  0
    2.3625   -0.2586   -0.7063 O   0  0  0  0  0  0  0  0  0  0  0  0
    0.3331   -1.4728   -3.0467 C   0  0  0  0  0  0  0  0  0  0  0  0
    2.6924    0.3404   -4.1502 H   0  0  0  0  0  0  0  0  0  0  0  0
    0.6550    0.6514   -3.2607 H   0  0  0  0  0  0  0  0  0  0  0  0
    0.8129   -2.3494   -2.5963 H   0  0  0  0  0  0  0  0  0  0  0  0
   -0.6690   -1.3857   -2.6142 H   0  0  0  0  0  0  0  0  0  0  0  0
    0.2259   -1.6670   -4.1194 H   0  0  0  0  0  0  0  0  0  0  0  0
    0.2019    0.5893   -0.7269 N   0  0  0  0  0  0  0  0  0  0  0  0
   -1.1306    0.3292   -1.2066 C   0  0  2  0  0  0  0  0  0  0  0  0
   -1.1898    0.8125   -2.6523 C   0  0  0  0  0  0  0  0  0  0  0  0
   -1.7380    0.1750   -3.5491 O   0  0  0  0  0  0  0  0  0  0  0  0
   -2.1992    1.0394   -0.3658 C   0  0  0  0  0  0  0  0  0  0  0  0
   -2.3191    0.5362    1.0872 C   0  0  0  0  0  0  0  0  0  0  0  0
   -3.3059    1.4171    1.8586 C   0  0  0  0  0  0  0  0  0  0  0  0
   -0.9717    0.5172    1.8103 C   0  0  0  0  0  0  0  0  0  0  0  0
    0.3072    1.1733    0.1000 H   0  0  0  0  0  0  0  0  0  0  0  0
   -1.2690   -0.7566   -1.1927 H   0  0  0  0  0  0  0  0  0  0  0  0
   -3.1742    0.9227   -0.8597 H   0  0  0  0  0  0  0  0  0  0  0  0
   -1.9968    2.1186   -0.3562 H   0  0  0  0  0  0  0  0  0  0  0  0
   -2.7213   -0.4842    1.0826 H   0  0  0  0  0  0  0  0  0  0  0  0
   -2.9550    2.4538    1.8965 H   0  0  0  0  0  0  0  0  0  0  0  0
   -3.4168    1.0660    2.8901 H   0  0  0  0  0  0  0  0  0  0  0  0
   -4.2958    1.4111    1.3897 H   0  0  0  0  0  0  0  0  0  0  0  0
   -0.5246    1.5165    1.8432 H   0  0  0  0  0  0  0  0  0  0  0  0
   -1.0895    0.1661    2.8412 H   0  0  0  0  0  0  0  0  0  0  0  0
   -0.2648   -0.1579    1.3190 H   0  0  0  0  0  0  0  0  0  0  0  0
   -0.6032    2.0608   -2.8083 N   0  0  0  0  0  0  0  0  0  0  0  0
   -0.5482    2.7581   -4.0730 C   0  0  2  0  0  0  0  0  0  0  0  0
   -1.8732    2.5364   -4.7903 C   0  0  0  0  0  0  0  0  0  0  0  0
   -2.6172    1.5885   -4.5473 O   0  0  0  0  0  0  0  0  0  0  0  0
    0.6171    2.2738   -4.9217 C   0  0  0  0  0  0  0  0  0  0  0  0
   -0.1973    2.5235   -2.0005 H   0  0  0  0  0  0  0  0  0  0  0  0
   -0.4308    3.8226   -3.8423 H   0  0  0  0  0  0  0  0  0  0  0  0
    0.5168    1.2093   -5.1629 H   0  0  0  0  0  0  0  0  0  0  0  0
    0.6744    2.8230   -5.8673 H   0  0  0  0  0  0  0  0  0  0  0  0
    1.5666    2.4066   -4.3920 H   0  0  0  0  0  0  0  0  0  0  0  0
   -2.1069    3.4976   -5.7639 N   0  0  0  0  0  0  0  0  0  0  0  0
   -3.2909    3.4979   -6.5909 C   0  0  0  0  0  0  0  0  0  0  0  0
   -1.4447    4.2585   -5.8839 H   0  0  0  0  0  0  0  0  0  0  0  0
   -3.0891    2.9468   -7.5212 H   0  0  0  0  0  0  0  0  0  0  0  0
   -4.1164    3.0129   -6.0493 H   0  0  0  0  0  0  0  0  0  0  0  0
   -3.5694    4.5344   -6.8319 H   0  0  0  0  0  0  0  0  0  0  0  0
  1  3  1  0  0  0  0
  1  7  1  0  0  0  0
  1  2  2  0  0  0  0
 37 38  1  0  0  0  0
 38 46  1  0  0  0  0
 38 39  2  0  0  0  0
  8  9  1  0  0  0  0
  9 17  1  0  0  0  0
  9 10  2  0  0  0  0
 18 19  1  0  0  0  0
 19 36  1  0  0  0  0
 19 20  2  0  0  0  0
 37 40  1  0  0  0  0
  8 11  1  0  0  0  0
 22 23  1  0  0  0  0
 22 24  1  0  0  0  0
 46 47  1  0  0  0  0
 18 21  1  0  0  0  0
 21 22  1  0  0  0  0
 36 37  1  0  0  0  0
  7  8  1  0  0  0  0
 17 18  1  0  0  0  0
  3  4  1  0  0  0  0
  3  5  1  0  0  0  0
  3  6  1  0  0  0  0
 40 43  1  0  0  0  0
 40 44  1  0  0  0  0
 40 45  1  0  0  0  0
 11 14  1  0  0  0  0
 11 15  1  0  0  0  0
 11 16  1  0  0  0  0
 23 30  1  0  0  0  0
 23 31  1  0  0  0  0
 23 32  1  0  0  0  0
 24 33  1  0  0  0  0
 24 34  1  0  0  0  0
 24 35  1  0  0  0  0
 47 49  1  0  0  0  0
 47 50  1  0  0  0  0
 47 51  1  0  0  0  0
 21 27  1  0  0  0  0
 21 28  1  0  0  0  0
 37 42  1  0  0  0  0
  8 13  1  0  0  0  0
 18 26  1  0  0  0  0
 22 29  1  0  0  0  0
 46 48  1  0  0  0  0
  7 12  1  0  0  0  0
 36 41  1  0  0  0  0
 17 25  1  0  0  0  0
M  END
$$$$

  -OEChem-02062319033D

 51 50  0     1  0  0  0  0  0999 V2000
    3.4018   -1.2440   -3.0186 C   0  0  0  0  0  0  0  0  0  0  0  0
    3.2697   -2.0909   -2.1427 O   0  0  0  0  0  0  0  0  0  0  0  0
    4.6845   -1.1645   -3.7779 C   0  0  0  0  0  0  0  0  0  0  0  0
    5.4123   -0.4862   -3.3041 H   0  0  0  0  0  0  0  0  0  0  0  0
    5.1949   -2.1387   -3.8443 H   0  0  0  0  0  0  0  0  0  0  0  0
    4.5953   -0.8128   -4.8182 H   0  0  0  0  0  0  0  0  0  0  0  0
    2.4540   -0.3103   -3.4040 N   0  0  0  0  0  0  0  0  0  0  0  0
    1.1494   -0.2128   -2.8039 C   0  0  2  0  0  0  0  0  0  0  0  0
    1.3350    0.0367   -1.3130 C   0  0  0  0  0  0  0  0  0  0  0  0
    2.3625   -0.2586   -0.7063 O   0  0  0  0  0  0  0  0  0  0  0  0
    0.3331   -1.4728   -3.0467 C   0  0  0  0  0  0  0  0  0  0  0  0
    2.6924    0.3404   -4.1502 H   0  0  0  0  0  0  0  0  0  0  0  0
    0.6550    0.6514   -3.2607 H   0  0  0  0  0  0  0  0  0  0  0  0
    0.8129   -2.3494   -2.5963 H   0  0  0  0  0  0  0  0  0  0  0  0
   -0.6690   -1.3857   -2.6142 H   0  0  0  0  0  0  0  0  0  0  0  0
    0.2259   -1.6670   -4.1194 H   0  0  0  0  0  0  0  0  0  0  0  0
    0.2019    0.5893   -0.7269 N   0  0  0  0  0  0  0  0  0  0  0  0
   -1.1278    0.1021   -0.9871 C   0  0  2  0  0  0  0  0  0  0  0  0
   -1.3762    0.2525   -2.4847 C   0  0  0  0  0  0  0  0  0  0  0  0
   -1.9233   -0.6148   -3.1628 O   0  0  0  0  0  0  0  0  0  0  0  0
   -2.1929    0.8692   -0.1932 C   0  0  0  0  0  0  0  0  0  0  0  0
   -2.1185    0.6836    1.3361 C   0  0  0  0  0  0  0  0  0  0  0  0
   -3.1295    1.6095    2.0182 C   0  0  0  0  0  0  0  0  0  0  0  0
   -0.7183    0.9538    1.8885 C   0  0  0  0  0  0  0  0  0  0  0  0
    0.3112    1.3460   -0.0551 H   0  0  0  0  0  0  0  0  0  0  0  0
   -1.1329   -0.9631   -0.7349 H   0  0  0  0  0  0  0  0  0  0  0  0
   -3.1877    0.5533   -0.5376 H   0  0  0  0  0  0  0  0  0  0  0  0
   -2.1216    1.9394   -0.4285 H   0  0  0  0  0  0  0  0  0  0  0  0
   -2.3939   -0.3480    1.5872 H   0  0  0  0  0  0  0  0  0  0  0  0
   -2.9037    2.6591    1.8020 H   0  0  0  0  0  0  0  0  0  0  0  0
   -3.1029    1.4811    3.1055 H   0  0  0  0  0  0  0  0  0  0  0  0
   -4.1501    1.4050    1.6771 H   0  0  0  0  0  0  0  0  0  0  0  0
   -0.3934    1.9755    1.6641 H   0  0  0  0  0  0  0  0  0  0  0  0
   -0.6986    0.8247    2.9761 H   0  0  0  0  0  0  0  0  0  0  0  0
    0.0168    0.2611    1.4685 H   0  0  0  0  0  0  0  0  0  0  0  0
   -0.9606    1.4886   -2.9598 N   0  0  0  0  0  0  0  0  0  0  0  0
   -1.1053    1.8974   -4.3384 C   0  0  2  0  0  0  0  0  0  0  0  0
   -2.4539    1.3967   -4.8383 C   0  0  0  0  0  0  0  0  0  0  0  0
   -3.0533    0.4556   -4.3224 O   0  0  0  0  0  0  0  0  0  0  0  0
    0.0275    1.3574   -5.1974 C   0  0  0  0  0  0  0  0  0  0  0  0
   -0.5412    2.1530   -2.3160 H   0  0  0  0  0  0  0  0  0  0  0  0
   -1.0960    2.9928   -4.3461 H   0  0  0  0  0  0  0  0  0  0  0  0
    0.0344    0.2613   -5.2019 H   0  0  0  0  0  0  0  0  0  0  0  0
   -0.0680    1.6916   -6.2358 H   0  0  0  0  0  0  0  0  0  0  0  0
    0.9985    1.6943   -4.8187 H   0  0  0  0  0  0  0  0  0  0  0  0
   -2.8891    2.0964   -5.9551 N   0  0  0  0  0  0  0  0  0  0  0  0
   -4.1350    1.8014   -6.6233 C   0  0  0  0  0  0  0  0  0  0  0  0
   -2.3369    2.8744   -6.3038 H   0  0  0  0  0  0  0  0  0  0  0  0
   -3.9541    1.0844   -7.4376 H   0  0  0  0  0  0  0  0  0  0  0  0
   -4.8434    1.3667   -5.9028 H   0  0  0  0  0  0  0  0  0  0  0  0
   -4.5569    2.7287   -7.0384 H   0  0  0  0  0  0  0  0  0  0  0  0
  1  3  1  0  0  0  0
  1  7  1  0  0  0  0
  1  2  2  0  0  0  0
 37 38  1  0  0  0  0
 38 46  1  0  0  0  0
 38 39  2  0  0  0  0
  8  9  1  0  0  0  0
  9 17  1  0  0  0  0
  9 10  2  0  0  0  0
 18 19  1  0  0  0  0
 19 36  1  0  0  0  0
 19 20  2  0  0  0  0
 37 40  1  0  0  0  0
  8 11  1  0  0  0  0
 22 23  1  0  0  0  0
 22 24  1  0  0  0  0
 46 47  1  0  0  0  0
 18 21  1  0  0  0  0
 21 22  1  0  0  0  0
 36 37  1  0  0  0  0
  7  8  1  0  0  0  0
 17 18  1  0  0  0  0
  3  4  1  0  0  0  0
  3  5  1  0  0  0  0
  3  6  1  0  0  0  0
 40 43  1  0  0  0  0
 40 44  1  0  0  0  0
 40 45  1  0  0  0  0
 11 14  1  0  0  0  0
 11 15  1  0  0  0  0
 11 16  1  0  0  0  0
 23 30  1  0  0  0  0
 23 31  1  0  0  0  0
 23 32  1  0  0  0  0
 24 33  1  0  0  0  0
 24 34  1  0  0  0  0
 24 35  1  0  0  0  0
 47 49  1  0  0  0  0
 47 50  1  0  0  0  0
 47 51  1  0  0  0  0
 21 27  1  0  0  0  0
 21 28  1  0  0  0  0
 37 42  1  0  0  0  0
  8 13  1  0  0  0  0
 18 26  1  0  0  0  0
 22 29  1  0  0  0  0
 46 48  1  0  0  0  0
  7 12  1  0  0  0  0
 36 41  1  0  0  0  0
 17 25  1  0  0  0  0
M  END
$$$$

  -OEChem-02062319033D

 51 50  0     1  0  0  0  0  0999 V2000
    3.4018   -1.2440   -3.0186 C   0  0  0  0  0  0  0  0  0  0  0  0
    3.2697   -2.0909   -2.1427 O   0  0  0  0  0  0  0  0  0  0  0  0
    4.6845   -1.1645   -3.7779 C   0  0  0  0  0  0  0  0  0  0  0  0
    5.4123   -0.4862   -3.3041 H   0  0  0  0  0  0  0  0  0  0  0  0
    5.1949   -2.1387   -3.8443 H   0  0  0  0  0  0  0  0  0  0  0  0
    4.5953   -0.8128   -4.8182 H   0  0  0  0  0  0  0  0  0  0  0  0
    2.4540   -0.3103   -3.4040 N   0  0  0  0  0  0  0  0  0  0  0  0
    1.1494   -0.2128   -2.8039 C   0  0  2  0  0  0  0  0  0  0  0  0
    1.3350    0.0367   -1.3130 C   0  0  0  0  0  0  0  0  0  0  0  0
    2.3625   -0.2586   -0.7063 O   0  0  0  0  0  0  0  0  0  0  0  0
    0.3331   -1.4728   -3.0467 C   0  0  0  0  0  0  0  0  0  0  0  0
    2.6924    0.3404   -4.1502 H   0  0  0  0  0  0  0  0  0  0  0  0
    0.6550    0.6514   -3.2607 H   0  0  0  0  0  0  0  0  0  0  0  0
    0.8129   -2.3494   -2.5963 H   0  0  0  0  0  0  0  0  0  0  0  0
   -0.6690   -1.3857   -2.6142 H   0  0  0  0  0  0  0  0  0  0  0  0
    0.2259   -1.6670   -4.1194 H   0  0  0  0  0  0  0  0  0  0  0  0
    0.2019    0.5893   -0.7269 N   0  0  0  0  0  0  0  0  0  0  0  0
   -1.0778   -0.0707   -0.7275 C   0  0  2  0  0  0  0  0  0  0  0  0
   -1.4779   -0.2735   -2.1855 C   0  0  0  0  0  0  0  0  0  0  0  0
   -1.9764   -1.3164   -2.6039 O   0  0  0  0  0  0  0  0  0  0  0  0
   -2.1505    0.7420    0.0088 C   0  0  0  0  0  0  0  0  0  0  0  0
   -1.9152    0.9003    1.5248 C   0  0  0  0  0  0  0  0  0  0  0  0
   -2.9637    1.8482    2.1136 C   0  0  0  0  0  0  0  0  0  0  0  0
   -0.5132    1.4198    1.8458 C   0  0  0  0  0  0  0  0  0  0  0  0
    0.2803    1.4806   -0.2418 H   0  0  0  0  0  0  0  0  0  0  0  0
   -0.9319   -1.0512   -0.2631 H   0  0  0  0  0  0  0  0  0  0  0  0
   -3.1274    0.2629   -0.1471 H   0  0  0  0  0  0  0  0  0  0  0  0
   -2.2300    1.7375   -0.4478 H   0  0  0  0  0  0  0  0  0  0  0  0
   -2.0406   -0.0744    2.0121 H   0  0  0  0  0  0  0  0  0  0  0  0
   -2.8864    2.8431    1.6622 H   0  0  0  0  0  0  0  0  0  0  0  0
   -2.8229    1.9617    3.1938 H   0  0  0  0  0  0  0  0  0  0  0  0
   -3.9792    1.4756    1.9409 H   0  0  0  0  0  0  0  0  0  0  0  0
   -0.3352    2.3953    1.3808 H   0  0  0  0  0  0  0  0  0  0  0  0
   -0.3790    1.5319    2.9272 H   0  0  0  0  0  0  0  0  0  0  0  0
    0.2585    0.7280    1.4955 H   0  0  0  0  0  0  0  0  0  0  0  0
   -1.2589    0.8651   -2.9486 N   0  0  0  0  0  0  0  0  0  0  0  0
   -1.5767    0.9492   -4.3559 C   0  0  2  0  0  0  0  0  0  0  0  0
   -2.8953    0.2223   -4.5846 C   0  0  0  0  0  0  0  0  0  0  0  0
   -3.3278   -0.6388   -3.8212 O   0  0  0  0  0  0  0  0  0  0  0  0
   -0.4703    0.3497   -5.2099 C   0  0  0  0  0  0  0  0  0  0  0  0
   -0.8654    1.6909   -2.5073 H   0  0  0  0  0  0  0  0  0  0  0  0
   -1.6999    2.0124   -4.5893 H   0  0  0  0  0  0  0  0  0  0  0  0
   -0.3323   -0.7153   -4.9900 H   0  0  0  0  0  0  0  0  0  0  0  0
   -0.6996    0.4399   -6.2768 H   0  0  0  0  0  0  0  0  0  0  0  0
    0.4836    0.8542   -5.0221 H   0  0  0  0  0  0  0  0  0  0  0  0
   -3.5114    0.6173   -5.7638 N   0  0  0  0  0  0  0  0  0  0  0  0
   -4.7686    0.0638   -6.2100 C   0  0  0  0  0  0  0  0  0  0  0  0
   -3.0908    1.3516   -6.3256 H   0  0  0  0  0  0  0  0  0  0  0  0
   -4.5779   -0.7914   -6.8750 H   0  0  0  0  0  0  0  0  0  0  0  0
   -5.3510   -0.2718   -5.3392 H   0  0  0  0  0  0  0  0  0  0  0  0
   -5.3348    0.8331   -6.7554 H   0  0  0  0  0  0  0  0  0  0  0  0
  1  3  1  0  0  0  0
  1  7  1  0  0  0  0
  1  2  2  0  0  0  0
 37 38  1  0  0  0  0
 38 46  1  0  0  0  0
 38 39  2  0  0  0  0
  8  9  1  0  0  0  0
  9 17  1  0  0  0  0
  9 10  2  0  0  0  0
 18 19  1  0  0  0  0
 19 36  1  0  0  0  0
 19 20  2  0  0  0  0
 37 40  1  0  0  0  0
  8 11  1  0  0  0  0
 22 23  1  0  0  0  0
 22 24  1  0  0  0  0
 46 47  1  0  0  0  0
 18 21  1  0  0  0  0
 21 22  1  0  0  0  0
 36 37  1  0  0  0  0
  7  8  1  0  0  0  0
 17 18  1  0  0  0  0
  3  4  1  0  0  0  0
  3  5  1  0  0  0  0
  3  6  1  0  0  0  0
 40 43  1  0  0  0  0
 40 44  1  0  0  0  0
 40 45  1  0  0  0  0
 11 14  1  0  0  0  0
 11 15  1  0  0  0  0
 11 16  1  0  0  0  0
 23 30  1  0  0  0  0
 23 31  1  0  0  0  0
 23 32  1  0  0  0  0
 24 33  1  0  0  0  0
 24 34  1  0  0  0  0
 24 35  1  0  0  0  0
 47 49  1  0  0  0  0
 47 50  1  0  0  0  0
 47 51  1  0  0  0  0
 21 27  1  0  0  0  0
 21 28  1  0  0  0  0
 37 42  1  0  0  0  0
  8 13  1  0  0  0  0
 18 26  1  0  0  0  0
 22 29  1  0  0  0  0
 46 48  1  0  0  0  0
  7 12  1  0  0  0  0
 36 41  1  0  0  0  0
 17 25  1  0  0  0  0
M  END
$$$$

  -OEChem-02062319033D

 51 50  0     1  0  0  0  0  0999 V2000
    3.4018   -1.2440   -3.0186 C   0  0  0  0  0  0  0  0  0  0  0  0
    3.2697   -2.0909   -2.1427 O   0  0  0  0  0  0  0  0  0  0  0  0
    4.6845   -1.1645   -3.7779 C   0  0  0  0  0  0  0  0  0  0  0  0
    5.4123   -0.4862   -3.3041 H   0  0  0  0  0  0  0  0  0  0  0  0
    5.1949   -2.1387   -3.8443 H   0  0  0  0  0  0  0  0  0  0  0  0
    4.5953   -0.8128   -4.8182 H   0  0  0  0  0  0  0  0  0  0  0  0
    2.4540   -0.3103   -3.4040 N   0  0  0  0  0  0  0  0  0  0  0  0
    1.1494   -0.2128   -2.8039 C   0  0  2  0  0  0  0  0  0  0  0  0
    1.3350    0.0367   -1.3130 C   0  0  0  0  0  0  0  0  0  0  0  0
    2.3625   -0.2586   -0.7063 O   0  0  0  0  0  0  0  0  0  0  0  0
    0.3331   -1.4728   -3.0467 C   0  0  0  0  0  0  0  0  0  0  0  0
    2.6924    0.3404   -4.1502 H   0  0  0  0  0  0  0  0  0  0  0  0
    0.6550    0.6514   -3.2607 H   0  0  0  0  0  0  0  0  0  0  0  0
    0.8129   -2.3494   -2.5963 H   0  0  0  0  0  0  0  0  0  0  0  0
   -0.6690   -1.3857   -2.6142 H   0  0  0  0  0  0  0  0  0  0  0  0
    0.2259   -1.6670   -4.1194 H   0  0  0  0  0  0  0  0  0  0  0  0
    0.2019    0.5893   -0.7269 N   0  0  0  0  0  0  0  0  0  0  0  0
   -0.9839   -0.1774   -0.4454 C   0  0  2  0  0  0  0  0  0  0  0  0
   -1.4880   -0.7295   -1.7751 C   0  0  0  0  0  0  0  0  0  0  0  0
   -1.8936   -1.8820   -1.9106 O   0  0  0  0  0  0  0  0  0  0  0  0
   -2.0749    0.6663    0.2264 C   0  0  0  0  0  0  0  0  0  0  0  0
   -1.7231    1.1716    1.6405 C   0  0  0  0  0  0  0  0  0  0  0  0
   -2.8198    2.1171    2.1384 C   0  0  0  0  0  0  0  0  0  0  0  0
   -0.3702    1.8832    1.6852 C   0  0  0  0  0  0  0  0  0  0  0  0
    0.2165    1.5678   -0.4473 H   0  0  0  0  0  0  0  0  0  0  0  0
   -0.6795   -1.0149    0.1905 H   0  0  0  0  0  0  0  0  0  0  0  0
   -2.9972    0.0714    0.2851 H   0  0  0  0  0  0  0  0  0  0  0  0
   -2.3147    1.5265   -0.4126 H   0  0  0  0  0  0  0  0  0  0  0  0
   -1.6855    0.3182    2.3286 H   0  0  0  0  0  0  0  0  0  0  0  0
   -2.9040    2.9931    1.4865 H   0  0  0  0  0  0  0  0  0  0  0  0
   -2.5957    2.4751    3.1488 H   0  0  0  0  0  0  0  0  0  0  0  0
   -3.7946    1.6181    2.1633 H   0  0  0  0  0  0  0  0  0  0  0  0
   -0.3539    2.7475    1.0126 H   0  0  0  0  0  0  0  0  0  0  0  0
   -0.1525    2.2395    2.6979 H   0  0  0  0  0  0  0  0  0  0  0  0
    0.4438    1.2111    1.3983 H   0  0  0  0  0  0  0  0  0  0  0  0
   -1.4779    0.2325   -2.7756 N   0  0  0  0  0  0  0  0  0  0  0  0
   -1.9305   -0.0218   -4.1243 C   0  0  2  0  0  0  0  0  0  0  0  0
   -3.1675   -0.9067   -4.0463 C   0  0  0  0  0  0  0  0  0  0  0  0
   -3.4219   -1.6201   -3.0781 O   0  0  0  0  0  0  0  0  0  0  0  0
   -0.8425   -0.6806   -4.9581 C   0  0  0  0  0  0  0  0  0  0  0  0
   -1.1479    1.1689   -2.5612 H   0  0  0  0  0  0  0  0  0  0  0  0
   -2.2012    0.9483   -4.5553 H   0  0  0  0  0  0  0  0  0  0  0  0
   -0.5581   -1.6539   -4.5417 H   0  0  0  0  0  0  0  0  0  0  0  0
   -1.1772   -0.8466   -5.9873 H   0  0  0  0  0  0  0  0  0  0  0  0
    0.0570   -0.0564   -4.9884 H   0  0  0  0  0  0  0  0  0  0  0  0
   -3.9315   -0.8389   -5.2029 N   0  0  0  0  0  0  0  0  0  0  0  0
   -5.1485   -1.5965   -5.3790 C   0  0  0  0  0  0  0  0  0  0  0  0
   -3.6551   -0.2062   -5.9480 H   0  0  0  0  0  0  0  0  0  0  0  0
   -4.9178   -2.5526   -5.8718 H   0  0  0  0  0  0  0  0  0  0  0  0
   -5.6045   -1.7910   -4.3970 H   0  0  0  0  0  0  0  0  0  0  0  0
   -5.8504   -1.0230   -6.0021 H   0  0  0  0  0  0  0  0  0  0  0  0
  1  3  1  0  0  0  0
  1  7  1  0  0  0  0
  1  2  2  0  0  0  0
 37 38  1  0  0  0  0
 38 46  1  0  0  0  0
 38 39  2  0  0  0  0
  8  9  1  0  0  0  0
  9 17  1  0  0  0  0
  9 10  2  0  0  0  0
 18 19  1  0  0  0  0
 19 36  1  0  0  0  0
 19 20  2  0  0  0  0
 37 40  1  0  0  0  0
  8 11  1  0  0  0  0
 22 23  1  0  0  0  0
 22 24  1  0  0  0  0
 46 47  1  0  0  0  0
 18 21  1  0  0  0  0
 21 22  1  0  0  0  0
 36 37  1  0  0  0  0
  7  8  1  0  0  0  0
 17 18  1  0  0  0  0
  3  4  1  0  0  0  0
  3  5  1  0  0  0  0
  3  6  1  0  0  0  0
 40 43  1  0  0  0  0
 40 44  1  0  0  0  0
 40 45  1  0  0  0  0
 11 14  1  0  0  0  0
 11 15  1  0  0  0  0
 11 16  1  0  0  0  0
 23 30  1  0  0  0  0
 23 31  1  0  0  0  0
 23 32  1  0  0  0  0
 24 33  1  0  0  0  0
 24 34  1  0  0  0  0
 24 35  1  0  0  0  0
 47 49  1  0  0  0  0
 47 50  1  0  0  0  0
 47 51  1  0  0  0  0
 21 27  1  0  0  0  0
 21 28  1  0  0  0  0
 37 42  1  0  0  0  0
  8 13  1  0  0  0  0
 18 26  1  0  0  0  0
 22 29  1  0  0  0  0
 46 48  1  0  0  0  0
  7 12  1  0  0  0  0
 36 41  1  0  0  0  0
 17 25  1  0  0  0  0
M  END
$$$$

  -OEChem-02062319033D

 51 50  0     1  0  0  0  0  0999 V2000
    3.4018   -1.2440   -3.0186 C   0  0  0  0  0  0  0  0  0  0  0  0
    3.2697   -2.0909   -2.1427 O   0  0  0  0  0  0  0  0  0  0  0  0
    4.6845   -1.1645   -3.7779 C   0  0  0  0  0  0  0  0  0  0  0  0
    5.4123   -0.4862   -3.3041 H   0  0  0  0  0  0  0  0  0  0  0  0
    5.1949   -2.1387   -3.8443 H   0  0  0  0  0  0  0  0  0  0  0  0
    4.5953   -0.8128   -4.8182 H   0  0  0  0  0  0  0  0  0  0  0  0
    2.4540   -0.3103   -3.4040 N   0  0  0  0  0  0  0  0  0  0  0  0
    1.1494   -0.2128   -2.8039 C   0  0  2  0  0  0  0  0  0  0  0  0
    1.3350    0.0367   -1.3130 C   0  0  0  0  0  0  0  0  0  0  0  0
    2.3625   -0.2586   -0.7063 O   0  0  0  0  0  0  0  0  0  0  0  0
    0.3331   -1.4728   -3.0467 C   0  0  0  0  0  0  0  0  0  0  0  0
    2.6924    0.3404   -4.1502 H   0  0  0  0  0  0  0  0  0  0  0  0
    0.6550    0.6514   -3.2607 H   0  0  0  0  0  0  0  0  0  0  0  0
    0.8129   -2.3494   -2.5963 H   0  0  0  0  0  0  0  0  0  0  0  0
   -0.6690   -1.3857   -2.6142 H   0  0  0  0  0  0  0  0  0  0  0  0
    0.2259   -1.6670   -4.1194 H   0  0  0  0  0  0  0  0  0  0  0  0
    0.2019    0.5893   -0.7269 N   0  0  0  0  0  0  0  0  0  0  0  0
   -0.8526   -0.2107   -0.1600 C   0  0  2  0  0  0  0  0  0  0  0  0
   -1.4058   -1.0845   -1.2815 C   0  0  0  0  0  0  0  0  0  0  0  0
   -1.6806   -2.2731   -1.1302 O   0  0  0  0  0  0  0  0  0  0  0  0
   -1.9712    0.6473    0.4448 C   0  0  0  0  0  0  0  0  0  0  0  0
   -1.5552    1.4790    1.6752 C   0  0  0  0  0  0  0  0  0  0  0  0
   -2.7076    2.3977    2.0908 C   0  0  0  0  0  0  0  0  0  0  0  0
   -0.2992    2.3126    1.4176 C   0  0  0  0  0  0  0  0  0  0  0  0
    0.1243    1.6017   -0.6576 H   0  0  0  0  0  0  0  0  0  0  0  0
   -0.3930   -0.8565    0.5950 H   0  0  0  0  0  0  0  0  0  0  0  0
   -2.8061   -0.0082    0.7296 H   0  0  0  0  0  0  0  0  0  0  0  0
   -2.3699    1.3209   -0.3254 H   0  0  0  0  0  0  0  0  0  0  0  0
   -1.3528    0.8028    2.5148 H   0  0  0  0  0  0  0  0  0  0  0  0
   -2.9555    3.0991    1.2870 H   0  0  0  0  0  0  0  0  0  0  0  0
   -2.4370    2.9863    2.9737 H   0  0  0  0  0  0  0  0  0  0  0  0
   -3.6090    1.8228    2.3291 H   0  0  0  0  0  0  0  0  0  0  0  0
   -0.4482    3.0080    0.5846 H   0  0  0  0  0  0  0  0  0  0  0  0
   -0.0345    2.8995    2.3039 H   0  0  0  0  0  0  0  0  0  0  0  0
    0.5601    1.6774    1.1834 H   0  0  0  0  0  0  0  0  0  0  0  0
   -1.6025   -0.3658   -2.4525 N   0  0  0  0  0  0  0  0  0  0  0  0
   -2.1424   -0.9495   -3.6594 C   0  0  2  0  0  0  0  0  0  0  0  0
   -3.2518   -1.9134   -3.2602 C   0  0  0  0  0  0  0  0  0  0  0  0
   -3.3293   -2.4215   -2.1435 O   0  0  0  0  0  0  0  0  0  0  0  0
   -1.0637   -1.6633   -4.4592 C   0  0  0  0  0  0  0  0  0  0  0  0
   -1.3693    0.6225   -2.4741 H   0  0  0  0  0  0  0  0  0  0  0  0
   -2.5659   -0.1272   -4.2463 H   0  0  0  0  0  0  0  0  0  0  0  0
   -0.6276   -2.4905   -3.8873 H   0  0  0  0  0  0  0  0  0  0  0  0
   -1.4685   -2.0804   -5.3872 H   0  0  0  0  0  0  0  0  0  0  0  0
   -0.2523   -0.9754   -4.7199 H   0  0  0  0  0  0  0  0  0  0  0  0
   -4.1207   -2.1731   -4.3108 N   0  0  0  0  0  0  0  0  0  0  0  0
   -5.2487   -3.0665   -4.1870 C   0  0  0  0  0  0  0  0  0  0  0  0
   -3.9914   -1.6928   -5.1965 H   0  0  0  0  0  0  0  0  0  0  0  0
   -4.9507   -4.0792   -4.4962 H   0  0  0  0  0  0  0  0  0  0  0  0
   -5.5866   -3.0873   -3.1404 H   0  0  0  0  0  0  0  0  0  0  0  0
   -6.0683   -2.7132   -4.8300 H   0  0  0  0  0  0  0  0  0  0  0  0
  1  3  1  0  0  0  0
  1  7  1  0  0  0  0
  1  2  2  0  0  0  0
 37 38  1  0  0  0  0
 38 46  1  0  0  0  0
 38 39  2  0  0  0  0
  8  9  1  0  0  0  0
  9 17  1  0  0  0  0
  9 10  2  0  0  0  0
 18 19  1  0  0  0  0
 19 36  1  0  0  0  0
 19 20  2  0  0  0  0
 37 40  1  0  0  0  0
  8 11  1  0  0  0  0
 22 23  1  0  0  0  0
 22 24  1  0  0  0  0
 46 47  1  0  0  0  0
 18 21  1  0  0  0  0
 21 22  1  0  0  0  0
 36 37  1  0  0  0  0
  7  8  1  0  0  0  0
 17 18  1  0  0  0  0
  3  4  1  0  0  0  0
  3  5  1  0  0  0  0
  3  6  1  0  0  0  0
 40 43  1  0  0  0  0
 40 44  1  0  0  0  0
 40 45  1  0  0  0  0
 11 14  1  0  0  0  0
 11 15  1  0  0  0  0
 11 16  1  0  0  0  0
 23 30  1  0  0  0  0
 23 31  1  0  0  0  0
 23 32  1  0  0  0  0
 24 33  1  0  0  0  0
 24 34  1  0  0  0  0
 24 35  1  0  0  0  0
 47 49  1  0  0  0  0
 47 50  1  0  0  0  0
 47 51  1  0  0  0  0
 21 27  1  0  0  0  0
 21 28  1  0  0  0  0
 37 42  1  0  0  0  0
  8 13  1  0  0  0  0
 18 26  1  0  0  0  0
 22 29  1  0  0  0  0
 46 48  1  0  0  0  0
  7 12  1  0  0  0  0
 36 41  1  0  0  0  0
 17 25  1  0  0  0  0
M  END
$$$$

  -OEChem-02062319033D

 51 50  0     1  0  0  0  0  0999 V2000
    3.4018   -1.2440   -3.0186 C   0  0  0  0  0  0  0  0  0  0  0  0
    3.2697   -2.0909   -2.1427 O   0  0  0  0  0  0  0  0  0  0  0  0
    4.6845   -1.1645   -3.7779 C   0  0  0  0  0  0  0  0  0  0  0  0
    5.4123   -0.4862   -3.3041 H   0  0  0  0  0  0  0  0  0  0  0  0
    5.1949   -2.1387   -3.8443 H   0  0  0  0  0  0  0  0  0  0  0  0
    4.5953   -0.8128   -4.8182 H   0  0  0  0  0  0  0  0  0  0  0  0
    2.4540   -0.3103   -3.4040 N   0  0  0  0  0  0  0  0  0  0  0  0
    1.1494   -0.2128   -2.8039 C   0  0  2  0  0  0  0  0  0  0  0  0
    1.3350    0.0367   -1.3130 C   0  0  0  0  0  0  0  0  0  0  0  0
    2.3625   -0.2586   -0.7063 O   0  0  0  0  0  0  0  0  0  0  0  0
    0.3331   -1.4728   -3.0467 C   0  0  0  0  0  0  0  0  0  0  0  0
    2.6924    0.3404   -4.1502 H   0  0  0  0  0  0  0  0  0  0  0  0
    0.6550    0.6514   -3.2607 H   0  0  0  0  0  0  0  0  0  0  0  0
    0.8129   -2.3494   -2.5963 H   0  0  0  0  0  0  0  0  0  0  0  0
   -0.6690   -1.3857   -2.6142 H   0  0  0  0  0  0  0  0  0  0  0  0
    0.2259   -1.6670   -4.1194 H   0  0  0  0  0  0  0  0  0  0  0  0
    0.2019    0.5893   -0.7269 N   0  0  0  0  0  0  0  0  0  0  0  0
   -0.6927   -0.1684    0.1091 C   0  0  2  0  0  0  0  0  0  0  0  0
   -1.2369   -1.3143   -0.7382 C   0  0  0  0  0  0  0  0  0  0  0  0
   -1.3519   -2.4630   -0.3157 O   0  0  0  0  0  0  0  0  0  0  0  0
   -1.8465    0.6864    0.6490 C   0  0  0  0  0  0  0  0  0  0  0  0
   -1.4230    1.8016    1.6266 C   0  0  0  0  0  0  0  0  0  0  0  0
   -2.6347    2.6709    1.9740 C   0  0  0  0  0  0  0  0  0  0  0  0
   -0.3051    2.6786    1.0612 C   0  0  0  0  0  0  0  0  0  0  0  0
    0.0098    1.5801   -0.8584 H   0  0  0  0  0  0  0  0  0  0  0  0
   -0.0920   -0.5870    0.9229 H   0  0  0  0  0  0  0  0  0  0  0  0
   -2.5672    0.0294    1.1560 H   0  0  0  0  0  0  0  0  0  0  0  0
   -2.3918    1.1347   -0.1921 H   0  0  0  0  0  0  0  0  0  0  0  0
   -1.0652    1.3466    2.5583 H   0  0  0  0  0  0  0  0  0  0  0  0
   -3.0374    3.1538    1.0773 H   0  0  0  0  0  0  0  0  0  0  0  0
   -2.3575    3.4605    2.6804 H   0  0  0  0  0  0  0  0  0  0  0  0
   -3.4351    2.0758    2.4270 H   0  0  0  0  0  0  0  0  0  0  0  0
   -0.6119    3.1590    0.1260 H   0  0  0  0  0  0  0  0  0  0  0  0
   -0.0331    3.4666    1.7719 H   0  0  0  0  0  0  0  0  0  0  0  0
    0.5994    2.0952    0.8655 H   0  0  0  0  0  0  0  0  0  0  0  0
   -1.6245   -0.8892   -2.0014 N   0  0  0  0  0  0  0  0  0  0  0  0
   -2.1980   -1.7706   -2.9928 C   0  0  2  0  0  0  0  0  0  0  0  0
   -3.1425   -2.7292   -2.2798 C   0  0  0  0  0  0  0  0  0  0  0  0
   -3.0563   -2.9884   -1.0813 O   0  0  0  0  0  0  0  0  0  0  0  0
   -1.1189   -2.5315   -3.7473 C   0  0  0  0  0  0  0  0  0  0  0  0
   -1.5146    0.0889   -2.2520 H   0  0  0  0  0  0  0  0  0  0  0  0
   -2.7690   -1.1406   -3.6836 H   0  0  0  0  0  0  0  0  0  0  0  0
   -0.5362   -3.1682   -3.0716 H   0  0  0  0  0  0  0  0  0  0  0  0
   -1.5535   -3.1773   -4.5174 H   0  0  0  0  0  0  0  0  0  0  0  0
   -0.4231   -1.8401   -4.2349 H   0  0  0  0  0  0  0  0  0  0  0  0
   -4.0660   -3.2943   -3.1482 N   0  0  0  0  0  0  0  0  0  0  0  0
   -5.0626   -4.2458   -2.7152 C   0  0  0  0  0  0  0  0  0  0  0  0
   -4.0767   -3.0070   -4.1224 H   0  0  0  0  0  0  0  0  0  0  0  0
   -4.6745   -5.2672   -2.8420 H   0  0  0  0  0  0  0  0  0  0  0  0
   -5.2987   -4.0724   -1.6550 H   0  0  0  0  0  0  0  0  0  0  0  0
   -5.9739   -4.1224   -3.3188 H   0  0  0  0  0  0  0  0  0  0  0  0
  1  3  1  0  0  0  0
  1  7  1  0  0  0  0
  1  2  2  0  0  0  0
 37 38  1  0  0  0  0
 38 46  1  0  0  0  0
 38 39  2  0  0  0  0
  8  9  1  0  0  0  0
  9 17  1  0  0  0  0
  9 10  2  0  0  0  0
 18 19  1  0  0  0  0
 19 36  1  0  0  0  0
 19 20  2  0  0  0  0
 37 40  1  0  0  0  0
  8 11  1  0  0  0  0
 22 23  1  0  0  0  0
 22 24  1  0  0  0  0
 46 47  1  0  0  0  0
 18 21  1  0  0  0  0
 21 22  1  0  0  0  0
 36 37  1  0  0  0  0
  7  8  1  0  0  0  0
 17 18  1  0  0  0  0
  3  4  1  0  0  0  0
  3  5  1  0  0  0  0
  3  6  1  0  0  0  0
 40 43  1  0  0  0  0
 40 44  1  0  0  0  0
 40 45  1  0  0  0  0
 11 14  1  0  0  0  0
 11 15  1  0  0  0  0
 11 16  1  0  0  0  0
 23 30  1  0  0  0  0
 23 31  1  0  0  0  0
 23 32  1  0  0  0  0
 24 33  1  0  0  0  0
 24 34  1  0  0  0  0
 24 35  1  0  0  0  0
 47 49  1  0  0  0  0
 47 50  1  0  0  0  0
 47 51  1  0  0  0  0
 21 27  1  0  0  0  0
 21 28  1  0  0  0  0
 37 42  1  0  0  0  0
  8 13  1  0  0  0  0
 18 26  1  0  0  0  0
 22 29  1  0  0  0  0
 46 48  1  0  0  0  0
  7 12  1  0  0  0  0
 36 41  1  0  0  0  0
 17 25  1  0  0  0  0
M  END
$$$$

  -OEChem-02062319033D

 51 50  0     1  0  0  0  0  0999 V2000
    3.4018   -1.2440   -3.0186 C   0  0  0  0  0  0  0  0  0  0  0  0
    3.2697   -2.0909   -2.1427 O   0  0  0  0  0  0  0  0  0  0  0  0
    4.6845   -1.1645   -3.7779 C   0  0  0  0  0  0  0  0  0  0  0  0
    5.4123   -0.4862   -3.3041 H   0  0  0  0  0  0  0  0  0  0  0  0
    5.1949   -2.1387   -3.8443 H   0  0  0  0  0  0  0  0  0  0  0  0
    4.5953   -0.8128   -4.8182 H   0  0  0  0  0  0  0  0  0  0  0  0
    2.4540   -0.3103   -3.4040 N   0  0  0  0  0  0  0  0  0  0  0  0
    1.1494   -0.2128   -2.8039 C   0  0  2  0  0  0  0  0  0  0  0  0
    1.3350    0.0367   -1.3130 C   0  0  0  0  0  0  0  0  0  0  0  0
    2.3625   -0.2586   -0.7063 O   0  0  0  0  0  0  0  0  0  0  0  0
    0.3331   -1.4728   -3.0467 C   0  0  0  0  0  0  0  0  0  0  0  0
    2.6924    0.3404   -4.1502 H   0  0  0  0  0  0  0  0  0  0  0  0
    0.6550    0.6514   -3.2607 H   0  0  0  0  0  0  0  0  0  0  0  0
    0.8129   -2.3494   -2.5963 H   0  0  0  0  0  0  0  0  0  0  0  0
   -0.6690   -1.3857   -2.6142 H   0  0  0  0  0  0  0  0  0  0  0  0
    0.2259   -1.6670   -4.1194 H   0  0  0  0  0  0  0  0  0  0  0  0
    0.2019    0.5893   -0.7269 N   0  0  0  0  0  0  0  0  0  0  0  0
   -0.5152   -0.0532    0.3437 C   0  0  2  0  0  0  0  0  0  0  0  0
   -0.9927   -1.4032   -0.1823 C   0  0  0  0  0  0  0  0  0  0  0  0
   -0.9299   -2.4387    0.4773 O   0  0  0  0  0  0  0  0  0  0  0  0
   -1.7093    0.7808    0.8252 C   0  0  0  0  0  0  0  0  0  0  0  0
   -1.3355    2.1173    1.4981 C   0  0  0  0  0  0  0  0  0  0  0  0
   -2.6062    2.9182    1.7962 C   0  0  0  0  0  0  0  0  0  0  0  0
   -0.3873    2.9564    0.6404 C   0  0  0  0  0  0  0  0  0  0  0  0
   -0.1190    1.5043   -1.0361 H   0  0  0  0  0  0  0  0  0  0  0  0
    0.2031   -0.2246    1.1517 H   0  0  0  0  0  0  0  0  0  0  0  0
   -2.2966    0.1819    1.5355 H   0  0  0  0  0  0  0  0  0  0  0  0
   -2.3789    0.9805   -0.0219 H   0  0  0  0  0  0  0  0  0  0  0  0
   -0.8422    1.9124    2.4560 H   0  0  0  0  0  0  0  0  0  0  0  0
   -3.1440    3.1534    0.8715 H   0  0  0  0  0  0  0  0  0  0  0  0
   -2.3625    3.8654    2.2889 H   0  0  0  0  0  0  0  0  0  0  0  0
   -3.2845    2.3598    2.4503 H   0  0  0  0  0  0  0  0  0  0  0  0
   -0.8335    3.1902   -0.3321 H   0  0  0  0  0  0  0  0  0  0  0  0
   -0.1483    3.9024    1.1382 H   0  0  0  0  0  0  0  0  0  0  0  0
    0.5591    2.4360    0.4663 H   0  0  0  0  0  0  0  0  0  0  0  0
   -1.5421   -1.3021   -1.4530 N   0  0  0  0  0  0  0  0  0  0  0  0
   -2.0936   -2.4292   -2.1700 C   0  0  2  0  0  0  0  0  0  0  0  0
   -2.8471   -3.2984   -1.1720 C   0  0  0  0  0  0  0  0  0  0  0  0
   -2.6215   -3.2821    0.0362 O   0  0  0  0  0  0  0  0  0  0  0  0
   -1.0041   -3.2258   -2.8708 C   0  0  0  0  0  0  0  0  0  0  0  0
   -1.5739   -0.3955   -1.9099 H   0  0  0  0  0  0  0  0  0  0  0  0
   -2.7967   -2.0229   -2.9053 H   0  0  0  0  0  0  0  0  0  0  0  0
   -0.2900   -3.6408   -2.1502 H   0  0  0  0  0  0  0  0  0  0  0  0
   -1.4264   -4.0626   -3.4370 H   0  0  0  0  0  0  0  0  0  0  0  0
   -0.4438   -2.5917   -3.5664 H   0  0  0  0  0  0  0  0  0  0  0  0
   -3.7713   -4.1260   -1.7943 N   0  0  0  0  0  0  0  0  0  0  0  0
   -4.6027   -5.0542   -1.0640 C   0  0  0  0  0  0  0  0  0  0  0  0
   -3.9052   -4.0591   -2.7989 H   0  0  0  0  0  0  0  0  0  0  0  0
   -4.1079   -6.0357   -1.0221 H   0  0  0  0  0  0  0  0  0  0  0  0
   -4.7603   -4.6792   -0.0419 H   0  0  0  0  0  0  0  0  0  0  0  0
   -5.5734   -5.1544   -1.5715 H   0  0  0  0  0  0  0  0  0  0  0  0
  1  3  1  0  0  0  0
  1  7  1  0  0  0  0
  1  2  2  0  0  0  0
 37 38  1  0  0  0  0
 38 46  1  0  0  0  0
 38 39  2  0  0  0  0
  8  9  1  0  0  0  0
  9 17  1  0  0  0  0
  9 10  2  0  0  0  0
 18 19  1  0  0  0  0
 19 36  1  0  0  0  0
 19 20  2  0  0  0  0
 37 40  1  0  0  0  0
  8 11  1  0  0  0  0
 22 23  1  0  0  0  0
 22 24  1  0  0  0  0
 46 47  1  0  0  0  0
 18 21  1  0  0  0  0
 21 22  1  0  0  0  0
 36 37  1  0  0  0  0
  7  8  1  0  0  0  0
 17 18  1  0  0  0  0
  3  4  1  0  0  0  0
  3  5  1  0  0  0  0
  3  6  1  0  0  0  0
 40 43  1  0  0  0  0
 40 44  1  0  0  0  0
 40 45  1  0  0  0  0
 11 14  1  0  0  0  0
 11 15  1  0  0  0  0
 11 16  1  0  0  0  0
 23 30  1  0  0  0  0
 23 31  1  0  0  0  0
 23 32  1  0  0  0  0
 24 33  1  0  0  0  0
 24 34  1  0  0  0  0
 24 35  1  0  0  0  0
 47 49  1  0  0  0  0
 47 50  1  0  0  0  0
 47 51  1  0  0  0  0
 21 27  1  0  0  0  0
 21 28  1  0  0  0  0
 37 42  1  0  0  0  0
  8 13  1  0  0  0  0
 18 26  1  0  0  0  0
 22 29  1  0  0  0  0
 46 48  1  0  0  0  0
  7 12  1  0  0  0  0
 36 41  1  0  0  0  0
 17 25  1  0  0  0  0
M  END
$$$$

  -OEChem-02062319033D

 51 50  0     1  0  0  0  0  0999 V2000
    3.4018   -1.2440   -3.0186 C   0  0  0  0  0  0  0  0  0  0  0  0
    3.2697   -2.0909   -2.1427 O   0  0  0  0  0  0  0  0  0  0  0  0
    4.6845   -1.1645   -3.7779 C   0  0  0  0  0  0  0  0  0  0  0  0
    5.4123   -0.4862   -3.3041 H   0  0  0  0  0  0  0  0  0  0  0  0
    5.1949   -2.1387   -3.8443 H   0  0  0  0  0  0  0  0  0  0  0  0
    4.5953   -0.8128   -4.8182 H   0  0  0  0  0  0  0  0  0  0  0  0
    2.4540   -0.3103   -3.4040 N   0  0  0  0  0  0  0  0  0  0  0  0
    1.1494   -0.2128   -2.8039 C   0  0  2  0  0  0  0  0  0  0  0  0
    1.3350    0.0367   -1.3130 C   0  0  0  0  0  0  0  0  0  0  0  0
    2.3625   -0.2586   -0.7063 O   0  0  0  0  0  0  0  0  0  0  0  0
    0.3331   -1.4728   -3.0467 C   0  0  0  0  0  0  0  0  0  0  0  0
    2.6924    0.3404   -4.1502 H   0  0  0  0  0  0  0  0  0  0  0  0
    0.6550    0.6514   -3.2607 H   0  0  0  0  0  0  0  0  0  0  0  0
    0.8129   -2.3494   -2.5963 H   0  0  0  0  0  0  0  0  0  0  0  0
   -0.6690   -1.3857   -2.6142 H   0  0  0  0  0  0  0  0  0  0  0  0
    0.2259   -1.6670   -4.1194 H   0  0  0  0  0  0  0  0  0  0  0  0
    0.2019    0.5893   -0.7269 N   0  0  0  0  0  0  0  0  0  0  0  0
   -0.3322    0.1268    0.5277 C   0  0  2  0  0  0  0  0  0  0  0  0
   -0.6900   -1.3452    0.3482 C   0  0  0  0  0  0  0  0  0  0  0  0
   -0.4434   -2.2019    1.1946 O   0  0  0  0  0  0  0  0  0  0  0  0
   -1.5689    0.9241    0.9614 C   0  0  0  0  0  0  0  0  0  0  0  0
   -1.2987    2.4048    1.2983 C   0  0  0  0  0  0  0  0  0  0  0  0
   -2.6239    3.1226    1.5692 C   0  0  0  0  0  0  0  0  0  0  0  0
   -0.5403    3.1269    0.1838 C   0  0  0  0  0  0  0  0  0  0  0  0
   -0.2535    1.3796   -1.1785 H   0  0  0  0  0  0  0  0  0  0  0  0
    0.4721    0.2059    1.2660 H   0  0  0  0  0  0  0  0  0  0  0  0
   -2.0128    0.4387    1.8420 H   0  0  0  0  0  0  0  0  0  0  0  0
   -2.3321    0.8689    0.1738 H   0  0  0  0  0  0  0  0  0  0  0  0
   -0.6990    2.4616    2.2149 H   0  0  0  0  0  0  0  0  0  0  0  0
   -3.2681    3.0980    0.6839 H   0  0  0  0  0  0  0  0  0  0  0  0
   -2.4519    4.1733    1.8259 H   0  0  0  0  0  0  0  0  0  0  0  0
   -3.1677    2.6554    2.3973 H   0  0  0  0  0  0  0  0  0  0  0  0
   -1.0982    3.0996   -0.7583 H   0  0  0  0  0  0  0  0  0  0  0  0
   -0.3723    4.1771    0.4461 H   0  0  0  0  0  0  0  0  0  0  0  0
    0.4419    2.6765    0.0129 H   0  0  0  0  0  0  0  0  0  0  0  0
   -1.3611   -1.5761   -0.8446 N   0  0  0  0  0  0  0  0  0  0  0  0
   -1.8362   -2.8803   -1.2471 C   0  0  2  0  0  0  0  0  0  0  0  0
   -2.3857   -3.5824   -0.0123 C   0  0  0  0  0  0  0  0  0  0  0  0
   -2.0545   -3.2825    1.1329 O   0  0  0  0  0  0  0  0  0  0  0  0
   -0.7274   -3.6992   -1.8896 C   0  0  0  0  0  0  0  0  0  0  0  0
   -1.5431   -0.7977   -1.4711 H   0  0  0  0  0  0  0  0  0  0  0  0
   -2.6471   -2.7140   -1.9646 H   0  0  0  0  0  0  0  0  0  0  0  0
    0.0941   -3.8761   -1.1858 H   0  0  0  0  0  0  0  0  0  0  0  0
   -1.0959   -4.6760   -2.2197 H   0  0  0  0  0  0  0  0  0  0  0  0
   -0.3131   -3.1790   -2.7600 H   0  0  0  0  0  0  0  0  0  0  0  0
   -3.2566   -4.6116   -0.3414 N   0  0  0  0  0  0  0  0  0  0  0  0
   -3.9004   -5.4365    0.6542 C   0  0  0  0  0  0  0  0  0  0  0  0
   -3.4886   -4.7774   -1.3163 H   0  0  0  0  0  0  0  0  0  0  0  0
   -3.2895   -6.3323    0.8397 H   0  0  0  0  0  0  0  0  0  0  0  0
   -4.0081   -4.8663    1.5887 H   0  0  0  0  0  0  0  0  0  0  0  0
   -4.8942   -5.7390    0.2927 H   0  0  0  0  0  0  0  0  0  0  0  0
  1  3  1  0  0  0  0
  1  7  1  0  0  0  0
  1  2  2  0  0  0  0
 37 38  1  0  0  0  0
 38 46  1  0  0  0  0
 38 39  2  0  0  0  0
  8  9  1  0  0  0  0
  9 17  1  0  0  0  0
  9 10  2  0  0  0  0
 18 19  1  0  0  0  0
 19 36  1  0  0  0  0
 19 20  2  0  0  0  0
 37 40  1  0  0  0  0
  8 11  1  0  0  0  0
 22 23  1  0  0  0  0
 22 24  1  0  0  0  0
 46 47  1  0  0  0  0
 18 21  1  0  0  0  0
 21 22  1  0  0  0  0
 36 37  1  0  0  0  0
  7  8  1  0  0  0  0
 17 18  1  0  0  0  0
  3  4  1  0  0  0  0
  3  5  1  0  0  0  0
  3  6  1  0  0  0  0
 40 43  1  0  0  0  0
 40 44  1  0  0  0  0
 40 45  1  0  0  0  0
 11 14  1  0  0  0  0
 11 15  1  0  0  0  0
 11 16  1  0  0  0  0
 23 30  1  0  0  0  0
 23 31  1  0  0  0  0
 23 32  1  0  0  0  0
 24 33  1  0  0  0  0
 24 34  1  0  0  0  0
 24 35  1  0  0  0  0
 47 49  1  0  0  0  0
 47 50  1  0  0  0  0
 47 51  1  0  0  0  0
 21 27  1  0  0  0  0
 21 28  1  0  0  0  0
 37 42  1  0  0  0  0
  8 13  1  0  0  0  0
 18 26  1  0  0  0  0
 22 29  1  0  0  0  0
 46 48  1  0  0  0  0
  7 12  1  0  0  0  0
 36 41  1  0  0  0  0
 17 25  1  0  0  0  0
M  END
$$$$

  -OEChem-02062319033D

 51 50  0     1  0  0  0  0  0999 V2000
    3.4018   -1.2440   -3.0186 C   0  0  0  0  0  0  0  0  0  0  0  0
    3.2697   -2.0909   -2.1427 O   0  0  0  0  0  0  0  0  0  0  0  0
    4.6845   -1.1645   -3.7779 C   0  0  0  0  0  0  0  0  0  0  0  0
    5.4123   -0.4862   -3.3041 H   0  0  0  0  0  0  0  0  0  0  0  0
    5.1949   -2.1387   -3.8443 H   0  0  0  0  0  0  0  0  0  0  0  0
    4.5953   -0.8128   -4.8182 H   0  0  0  0  0  0  0  0  0  0  0  0
    2.4540   -0.3103   -3.4040 N   0  0  0  0  0  0  0  0  0  0  0  0
    1.1494   -0.2128   -2.8039 C   0  0  2  0  0  0  0  0  0  0  0  0
    1.3350    0.0367   -1.3130 C   0  0  0  0  0  0  0  0  0  0  0  0
    2.3625   -0.2586   -0.7063 O   0  0  0  0  0  0  0  0  0  0  0  0
    0.3331   -1.4728   -3.0467 C   0  0  0  0  0  0  0  0  0  0  0  0
    2.6924    0.3404   -4.1502 H   0  0  0  0  0  0  0  0  0  0  0  0
    0.6550    0.6514   -3.2607 H   0  0  0  0  0  0  0  0  0  0  0  0
    0.8129   -2.3494   -2.5963 H   0  0  0  0  0  0  0  0  0  0  0  0
   -0.6690   -1.3857   -2.6142 H   0  0  0  0  0  0  0  0  0  0  0  0
    0.2259   -1.6670   -4.1194 H   0  0  0  0  0  0  0  0  0  0  0  0
    0.2019    0.5893   -0.7269 N   0  0  0  0  0  0  0  0  0  0  0  0
   -0.1562    0.3595    0.6487 C   0  0  2  0  0  0  0  0  0  0  0  0
   -0.3494   -1.1443    0.8173 C   0  0  0  0  0  0  0  0  0  0  0  0
    0.0746   -1.7688    1.7876 O   0  0  0  0  0  0  0  0  0  0  0  0
   -1.4350    1.1067    1.0483 C   0  0  0  0  0  0  0  0  0  0  0  0
   -1.3151    2.6443    1.0409 C   0  0  0  0  0  0  0  0  0  0  0  0
   -2.6866    3.2702    1.3087 C   0  0  0  0  0  0  0  0  0  0  0  0
   -0.7537    3.1786   -0.2775 C   0  0  0  0  0  0  0  0  0  0  0  0
   -0.3844    1.2144   -1.2759 H   0  0  0  0  0  0  0  0  0  0  0  0
    0.6968    0.6752    1.2579 H   0  0  0  0  0  0  0  0  0  0  0  0
   -1.7352    0.7824    2.0546 H   0  0  0  0  0  0  0  0  0  0  0  0
   -2.2546    0.8075    0.3815 H   0  0  0  0  0  0  0  0  0  0  0  0
   -0.6455    2.9569    1.8514 H   0  0  0  0  0  0  0  0  0  0  0  0
   -3.4012    2.9914    0.5270 H   0  0  0  0  0  0  0  0  0  0  0  0
   -2.6194    4.3633    1.3229 H   0  0  0  0  0  0  0  0  0  0  0  0
   -3.0926    2.9425    2.2718 H   0  0  0  0  0  0  0  0  0  0  0  0
   -1.3878    2.8932   -1.1237 H   0  0  0  0  0  0  0  0  0  0  0  0
   -0.6899    4.2720   -0.2573 H   0  0  0  0  0  0  0  0  0  0  0  0
    0.2558    2.8005   -0.4637 H   0  0  0  0  0  0  0  0  0  0  0  0
   -1.0938   -1.6928   -0.2178 N   0  0  0  0  0  0  0  0  0  0  0  0
   -1.4434   -3.0934   -0.2869 C   0  0  2  0  0  0  0  0  0  0  0  0
   -1.7897   -3.5616    1.1203 C   0  0  0  0  0  0  0  0  0  0  0  0
   -1.3939   -2.9898    2.1340 O   0  0  0  0  0  0  0  0  0  0  0  0
   -0.3075   -3.9192   -0.8704 C   0  0  0  0  0  0  0  0  0  0  0  0
   -1.4243   -1.0903   -0.9657 H   0  0  0  0  0  0  0  0  0  0  0  0
   -2.3305   -3.1668   -0.9255 H   0  0  0  0  0  0  0  0  0  0  0  0
    0.5900   -3.8579   -0.2441 H   0  0  0  0  0  0  0  0  0  0  0  0
   -0.5845   -4.9757   -0.9486 H   0  0  0  0  0  0  0  0  0  0  0  0
   -0.0398   -3.5619   -1.8706 H   0  0  0  0  0  0  0  0  0  0  0  0
   -2.5570   -4.7181    1.1115 N   0  0  0  0  0  0  0  0  0  0  0  0
   -3.0035   -5.3667    2.3223 C   0  0  0  0  0  0  0  0  0  0  0  0
   -2.8553   -5.1131    0.2245 H   0  0  0  0  0  0  0  0  0  0  0  0
   -2.2751   -6.1367    2.6164 H   0  0  0  0  0  0  0  0  0  0  0  0
   -3.0933   -4.6210    3.1259 H   0  0  0  0  0  0  0  0  0  0  0  0
   -3.9826   -5.8364    2.1468 H   0  0  0  0  0  0  0  0  0  0  0  0
  1  3  1  0  0  0  0
  1  7  1  0  0  0  0
  1  2  2  0  0  0  0
 37 38  1  0  0  0  0
 38 46  1  0  0  0  0
 38 39  2  0  0  0  0
  8  9  1  0  0  0  0
  9 17  1  0  0  0  0
  9 10  2  0  0  0  0
 18 19  1  0  0  0  0
 19 36  1  0  0  0  0
 19 20  2  0  0  0  0
 37 40  1  0  0  0  0
  8 11  1  0  0  0  0
 22 23  1  0  0  0  0
 22 24  1  0  0  0  0
 46 47  1  0  0  0  0
 18 21  1  0  0  0  0
 21 22  1  0  0  0  0
 36 37  1  0  0  0  0
  7  8  1  0  0  0  0
 17 18  1  0  0  0  0
  3  4  1  0  0  0  0
  3  5  1  0  0  0  0
  3  6  1  0  0  0  0
 40 43  1  0  0  0  0
 40 44  1  0  0  0  0
 40 45  1  0  0  0  0
 11 14  1  0  0  0  0
 11 15  1  0  0  0  0
 11 16  1  0  0  0  0
 23 30  1  0  0  0  0
 23 31  1  0  0  0  0
 23 32  1  0  0  0  0
 24 33  1  0  0  0  0
 24 34  1  0  0  0  0
 24 35  1  0  0  0  0
 47 49  1  0  0  0  0
 47 50  1  0  0  0  0
 47 51  1  0  0  0  0
 21 27  1  0  0  0  0
 21 28  1  0  0  0  0
 37 42  1  0  0  0  0
  8 13  1  0  0  0  0
 18 26  1  0  0  0  0
 22 29  1  0  0  0  0
 46 48  1  0  0  0  0
  7 12  1  0  0  0  0
 36 41  1  0  0  0  0
 17 25  1  0  0  0  0
M  END
$$$$

  -OEChem-02062319033D

 51 50  0     1  0  0  0  0  0999 V2000
    3.4018   -1.2440   -3.0186 C   0  0  0  0  0  0  0  0  0  0  0  0
    3.2697   -2.0909   -2.1427 O   0  0  0  0  0  0  0  0  0  0  0  0
    4.6845   -1.1645   -3.7779 C   0  0  0  0  0  0  0  0  0  0  0  0
    5.4123   -0.4862   -3.3041 H   0  0  0  0  0  0  0  0  0  0  0  0
    5.1949   -2.1387   -3.8443 H   0  0  0  0  0  0  0  0  0  0  0  0
    4.5953   -0.8128   -4.8182 H   0  0  0  0  0  0  0  0  0  0  0  0
    2.4540   -0.3103   -3.4040 N   0  0  0  0  0  0  0  0  0  0  0  0
    1.1494   -0.2128   -2.8039 C   0  0  2  0  0  0  0  0  0  0  0  0
    1.3350    0.0367   -1.3130 C   0  0  0  0  0  0  0  0  0  0  0  0
    2.3625   -0.2586   -0.7063 O   0  0  0  0  0  0  0  0  0  0  0  0
    0.3331   -1.4728   -3.0467 C   0  0  0  0  0  0  0  0  0  0  0  0
    2.6924    0.3404   -4.1502 H   0  0  0  0  0  0  0  0  0  0  0  0
    0.6550    0.6514   -3.2607 H   0  0  0  0  0  0  0  0  0  0  0  0
    0.8129   -2.3494   -2.5963 H   0  0  0  0  0  0  0  0  0  0  0  0
   -0.6690   -1.3857   -2.6142 H   0  0  0  0  0  0  0  0  0  0  0  0
    0.2259   -1.6670   -4.1194 H   0  0  0  0  0  0  0  0  0  0  0  0
    0.2019    0.5893   -0.7269 N   0  0  0  0  0  0  0  0  0  0  0  0
    0.0009    0.6290    0.6983 C   0  0  2  0  0  0  0  0  0  0  0  0
    0.0060   -0.8140    1.1930 C   0  0  0  0  0  0  0  0  0  0  0  0
    0.5886   -1.1688    2.2157 O   0  0  0  0  0  0  0  0  0  0  0  0
   -1.3166    1.3159    1.0799 C   0  0  0  0  0  0  0  0  0  0  0  0
   -1.3835    2.8196    0.7434 C   0  0  0  0  0  0  0  0  0  0  0  0
   -2.7901    3.3511    1.0324 C   0  0  0  0  0  0  0  0  0  0  0  0
   -1.0129    3.1080   -0.7120 C   0  0  0  0  0  0  0  0  0  0  0  0
   -0.5029    1.0201   -1.3216 H   0  0  0  0  0  0  0  0  0  0  0  0
    0.8617    1.1513    1.1279 H   0  0  0  0  0  0  0  0  0  0  0  0
   -1.4827    1.1895    2.1590 H   0  0  0  0  0  0  0  0  0  0  0  0
   -2.1517    0.8005    0.5871 H   0  0  0  0  0  0  0  0  0  0  0  0
   -0.6852    3.3645    1.3904 H   0  0  0  0  0  0  0  0  0  0  0  0
   -3.5343    2.8407    0.4117 H   0  0  0  0  0  0  0  0  0  0  0  0
   -2.8538    4.4224    0.8141 H   0  0  0  0  0  0  0  0  0  0  0  0
   -3.0643    3.2016    2.0823 H   0  0  0  0  0  0  0  0  0  0  0  0
   -1.6826    2.5853   -1.4033 H   0  0  0  0  0  0  0  0  0  0  0  0
   -1.0794    4.1806   -0.9241 H   0  0  0  0  0  0  0  0  0  0  0  0
    0.0135    2.7994   -0.9311 H   0  0  0  0  0  0  0  0  0  0  0  0
   -0.7583   -1.6441    0.3848 N   0  0  0  0  0  0  0  0  0  0  0  0
   -0.9420   -3.0538    0.6451 C   0  0  2  0  0  0  0  0  0  0  0  0
   -1.0998   -3.2376    2.1487 C   0  0  0  0  0  0  0  0  0  0  0  0
   -0.6848   -2.4238    2.9712 O   0  0  0  0  0  0  0  0  0  0  0  0
    0.2269   -3.8708    0.1173 C   0  0  0  0  0  0  0  0  0  0  0  0
   -1.2257   -1.2533   -0.4280 H   0  0  0  0  0  0  0  0  0  0  0  0
   -1.8683   -3.3504    0.1411 H   0  0  0  0  0  0  0  0  0  0  0  0
    1.1639   -3.5877    0.6106 H   0  0  0  0  0  0  0  0  0  0  0  0
    0.0729   -4.9411    0.2899 H   0  0  0  0  0  0  0  0  0  0  0  0
    0.3575   -3.7143   -0.9589 H   0  0  0  0  0  0  0  0  0  0  0  0
   -1.7202   -4.4381    2.4654 N   0  0  0  0  0  0  0  0  0  0  0  0
   -1.9733   -4.8496    3.8265 C   0  0  0  0  0  0  0  0  0  0  0  0
   -2.0484   -5.0432    1.7185 H   0  0  0  0  0  0  0  0  0  0  0  0
   -1.1338   -5.4623    4.1870 H   0  0  0  0  0  0  0  0  0  0  0  0
   -2.0783   -3.9599    4.4649 H   0  0  0  0  0  0  0  0  0  0  0  0
   -2.9007   -5.4398    3.8646 H   0  0  0  0  0  0  0  0  0  0  0  0
  1  3  1  0  0  0  0
  1  7  1  0  0  0  0
  1  2  2  0  0  0  0
 37 38  1  0  0  0  0
 38 46  1  0  0  0  0
 38 39  2  0  0  0  0
  8  9  1  0  0  0  0
  9 17  1  0  0  0  0
  9 10  2  0  0  0  0
 18 19  1  0  0  0  0
 19 36  1  0  0  0  0
 19 20  2  0  0  0  0
 37 40  1  0  0  0  0
  8 11  1  0  0  0  0
 22 23  1  0  0  0  0
 22 24  1  0  0  0  0
 46 47  1  0  0  0  0
 18 21  1  0  0  0  0
 21 22  1  0  0  0  0
 36 37  1  0  0  0  0
  7  8  1  0  0  0  0
 17 18  1  0  0  0  0
  3  4  1  0  0  0  0
  3  5  1  0  0  0  0
  3  6  1  0  0  0  0
 40 43  1  0  0  0  0
 40 44  1  0  0  0  0
 40 45  1  0  0  0  0
 11 14  1  0  0  0  0
 11 15  1  0  0  0  0
 11 16  1  0  0  0  0
 23 30  1  0  0  0  0
 23 31  1  0  0  0  0
 23 32  1  0  0  0  0
 24 33  1  0  0  0  0
 24 34  1  0  0  0  0
 24 35  1  0  0  0  0
 47 49  1  0  0  0  0
 47 50  1  0  0  0  0
 47 51  1  0  0  0  0
 21 27  1  0  0  0  0
 21 28  1  0  0  0  0
 37 42  1  0  0  0  0
  8 13  1  0  0  0  0
 18 26  1  0  0  0  0
 22 29  1  0  0  0  0
 46 48  1  0  0  0  0
  7 12  1  0  0  0  0
 36 41  1  0  0  0  0
 17 25  1  0  0  0  0
M  END
$$$$
