
  -OEChem-02062319103D

 51 50  0     1  0  0  0  0  0999 V2000
    1.2746   -1.3308   -2.9405 C   0  0  0  0  0  0  0  0  0  0  0  0
    0.2280   -1.1467   -2.3319 O   0  0  0  0  0  0  0  0  0  0  0  0
    1.6360   -2.7303   -3.4005 C   0  0  0  0  0  0  0  0  0  0  0  0
    2.5569   -3.0586   -2.9117 H   0  0  0  0  0  0  0  0  0  0  0  0
    0.8349   -3.4308   -3.1468 H   0  0  0  0  0  0  0  0  0  0  0  0
    1.7822   -2.7422   -4.4834 H   0  0  0  0  0  0  0  0  0  0  0  0
    2.1535   -0.2881   -3.1796 N   0  0  0  0  0  0  0  0  0  0  0  0
    1.9802    1.1064   -2.7279 C   0  0  2  0  0  0  0  0  0  0  0  0
    1.6655    1.1982   -1.2182 C   0  0  0  0  0  0  0  0  0  0  0  0
    2.5795    1.2978   -0.4139 O   0  0  0  0  0  0  0  0  0  0  0  0
    0.9214    1.7962   -3.6012 C   0  0  0  0  0  0  0  0  0  0  0  0
    3.0387   -0.5378   -3.6125 H   0  0  0  0  0  0  0  0  0  0  0  0
    2.9271    1.6368   -2.8738 H   0  0  0  0  0  0  0  0  0  0  0  0
   -0.0472    1.2934   -3.5233 H   0  0  0  0  0  0  0  0  0  0  0  0
    0.7969    2.8393   -3.2934 H   0  0  0  0  0  0  0  0  0  0  0  0
    1.2318    1.7808   -4.6502 H   0  0  0  0  0  0  0  0  0  0  0  0
    0.3548    1.2533   -0.7844 N   0  0  0  0  0  0  0  0  0  0  0  0
   -0.0585    1.3353    0.6225 C   0  0  2  0  0  0  0  0  0  0  0  0
    0.4491    0.1060    1.4050 C   0  0  0  0  0  0  0  0  0  0  0  0
    0.7349    0.2141    2.5911 O   0  0  0  0  0  0  0  0  0  0  0  0
   -1.5943    1.4288    0.7241 C   0  0  0  0  0  0  0  0  0  0  0  0
   -2.1611    2.8439    0.4732 C   0  0  0  0  0  0  0  0  0  0  0  0
   -3.6686    2.8326    0.7546 C   0  0  0  0  0  0  0  0  0  0  0  0
   -1.9250    3.3462   -0.9584 C   0  0  0  0  0  0  0  0  0  0  0  0
   -0.3316    0.9340   -1.4662 H   0  0  0  0  0  0  0  0  0  0  0  0
    0.3905    2.2209    1.0859 H   0  0  0  0  0  0  0  0  0  0  0  0
   -1.8863    1.1288    1.7370 H   0  0  0  0  0  0  0  0  0  0  0  0
   -2.0524    0.7140    0.0322 H   0  0  0  0  0  0  0  0  0  0  0  0
   -1.6865    3.5440    1.1696 H   0  0  0  0  0  0  0  0  0  0  0  0
   -4.1834    2.1453    0.0755 H   0  0  0  0  0  0  0  0  0  0  0  0
   -4.0903    3.8338    0.6216 H   0  0  0  0  0  0  0  0  0  0  0  0
   -3.8635    2.5154    1.7839 H   0  0  0  0  0  0  0  0  0  0  0  0
   -2.2650    2.6056   -1.6892 H   0  0  0  0  0  0  0  0  0  0  0  0
   -2.4718    4.2788   -1.1301 H   0  0  0  0  0  0  0  0  0  0  0  0
   -0.8639    3.5500   -1.1264 H   0  0  0  0  0  0  0  0  0  0  0  0
    0.3058   -1.1485    0.8285 N   0  0  0  0  0  0  0  0  0  0  0  0
    0.7478   -2.4414    1.3875 C   0  0  2  0  0  0  0  0  0  0  0  0
   -0.0753   -2.9622    2.5883 C   0  0  0  0  0  0  0  0  0  0  0  0
   -0.3604   -4.1519    2.6485 O   0  0  0  0  0  0  0  0  0  0  0  0
    2.2440   -2.4033    1.7268 C   0  0  0  0  0  0  0  0  0  0  0  0
    0.0818   -1.1311   -0.1685 H   0  0  0  0  0  0  0  0  0  0  0  0
    0.6175   -3.1845    0.5944 H   0  0  0  0  0  0  0  0  0  0  0  0
    2.4381   -1.7522    2.5842 H   0  0  0  0  0  0  0  0  0  0  0  0
    2.5979   -3.4087    1.9751 H   0  0  0  0  0  0  0  0  0  0  0  0
    2.8190   -2.0332    0.8726 H   0  0  0  0  0  0  0  0  0  0  0  0
   -0.4742   -2.1230    3.6089 N   0  0  0  0  0  0  0  0  0  0  0  0
   -1.1665   -2.5676    4.8096 C   0  0  0  0  0  0  0  0  0  0  0  0
   -0.1183   -1.1642    3.5592 H   0  0  0  0  0  0  0  0  0  0  0  0
   -1.4142   -1.7087    5.4404 H   0  0  0  0  0  0  0  0  0  0  0  0
   -2.0964   -3.0826    4.5470 H   0  0  0  0  0  0  0  0  0  0  0  0
   -0.5336   -3.2511    5.3848 H   0  0  0  0  0  0  0  0  0  0  0  0
  1  2  2  0  0  0  0
  1  3  1  0  0  0  0
  1  7  1  0  0  0  0
  3  4  1  0  0  0  0
  3  5  1  0  0  0  0
  3  6  1  0  0  0  0
  7  8  1  0  0  0  0
  7 12  1  0  0  0  0
  8  9  1  0  0  0  0
  8 11  1  0  0  0  0
  8 13  1  0  0  0  0
  9 10  2  0  0  0  0
  9 17  1  0  0  0  0
 11 14  1  0  0  0  0
 11 15  1  0  0  0  0
 11 16  1  0  0  0  0
 17 18  1  0  0  0  0
 17 25  1  0  0  0  0
 18 19  1  0  0  0  0
 18 21  1  0  0  0  0
 18 26  1  0  0  0  0
 19 20  2  0  0  0  0
 19 36  1  0  0  0  0
 21 22  1  0  0  0  0
 21 27  1  0  0  0  0
 21 28  1  0  0  0  0
 22 23  1  0  0  0  0
 22 24  1  0  0  0  0
 22 29  1  0  0  0  0
 23 30  1  0  0  0  0
 23 31  1  0  0  0  0
 23 32  1  0  0  0  0
 24 33  1  0  0  0  0
 24 34  1  0  0  0  0
 24 35  1  0  0  0  0
 36 37  1  0  0  0  0
 36 41  1  0  0  0  0
 37 38  1  0  0  0  0
 37 40  1  0  0  0  0
 37 42  1  0  0  0  0
 38 39  2  0  0  0  0
 38 46  1  0  0  0  0
 40 43  1  0  0  0  0
 40 44  1  0  0  0  0
 40 45  1  0  0  0  0
 46 47  1  0  0  0  0
 46 48  1  0  0  0  0
 47 49  1  0  0  0  0
 47 50  1  0  0  0  0
 47 51  1  0  0  0  0
M  END
$$$$

  -OEChem-02062319103D

 51 50  0     1  0  0  0  0  0999 V2000
    0.7103   -0.7822   -3.5487 C   0  0  0  0  0  0  0  0  0  0  0  0
   -0.2786   -0.1776   -3.1648 O   0  0  0  0  0  0  0  0  0  0  0  0
    0.5452   -2.0902   -4.2996 C   0  0  0  0  0  0  0  0  0  0  0  0
    1.0039   -2.9069   -3.7366 H   0  0  0  0  0  0  0  0  0  0  0  0
   -0.5165   -2.3133   -4.4394 H   0  0  0  0  0  0  0  0  0  0  0  0
    1.0205   -2.0215   -5.2813 H   0  0  0  0  0  0  0  0  0  0  0  0
    1.9804   -0.3115   -3.2703 N   0  0  0  0  0  0  0  0  0  0  0  0
    2.3304    0.9649   -2.6115 C   0  0  2  0  0  0  0  0  0  0  0  0
    1.9108    1.0705   -1.1269 C   0  0  0  0  0  0  0  0  0  0  0  0
    2.7515    1.3535   -0.2876 O   0  0  0  0  0  0  0  0  0  0  0  0
    1.8028    2.1602   -3.4178 C   0  0  0  0  0  0  0  0  0  0  0  0
    2.7483   -0.8861   -3.6077 H   0  0  0  0  0  0  0  0  0  0  0  0
    3.4232    1.0365   -2.6176 H   0  0  0  0  0  0  0  0  0  0  0  0
    0.7101    2.2031   -3.4000 H   0  0  0  0  0  0  0  0  0  0  0  0
    2.1873    3.0946   -2.9967 H   0  0  0  0  0  0  0  0  0  0  0  0
    2.1308    2.0905   -4.4593 H   0  0  0  0  0  0  0  0  0  0  0  0
    0.5910    0.9304   -0.7421 N   0  0  0  0  0  0  0  0  0  0  0  0
    0.0416    1.3138    0.5708 C   0  0  2  0  0  0  0  0  0  0  0  0
    0.7026    0.5641    1.7470 C   0  0  0  0  0  0  0  0  0  0  0  0
    0.8355    1.1264    2.8272 O   0  0  0  0  0  0  0  0  0  0  0  0
   -1.4816    1.0658    0.5787 C   0  0  0  0  0  0  0  0  0  0  0  0
   -2.3075    2.2332   -0.0047 C   0  0  0  0  0  0  0  0  0  0  0  0
   -3.7998    1.9211    0.1570 C   0  0  0  0  0  0  0  0  0  0  0  0
   -2.0113    2.5025   -1.4862 C   0  0  0  0  0  0  0  0  0  0  0  0
   -0.0645    0.7390   -1.5063 H   0  0  0  0  0  0  0  0  0  0  0  0
    0.2322    2.3794    0.7397 H   0  0  0  0  0  0  0  0  0  0  0  0
   -1.8042    0.9184    1.6156 H   0  0  0  0  0  0  0  0  0  0  0  0
   -1.7072    0.1406    0.0374 H   0  0  0  0  0  0  0  0  0  0  0  0
   -2.0828    3.1420    0.5638 H   0  0  0  0  0  0  0  0  0  0  0  0
   -4.0692    1.0214   -0.4055 H   0  0  0  0  0  0  0  0  0  0  0  0
   -4.4070    2.7548   -0.2096 H   0  0  0  0  0  0  0  0  0  0  0  0
   -4.0451    1.7596    1.2115 H   0  0  0  0  0  0  0  0  0  0  0  0
   -2.1308    1.5885   -2.0758 H   0  0  0  0  0  0  0  0  0  0  0  0
   -2.6969    3.2593   -1.8800 H   0  0  0  0  0  0  0  0  0  0  0  0
   -0.9926    2.8778   -1.6161 H   0  0  0  0  0  0  0  0  0  0  0  0
    0.9088   -0.8016    1.6408 N   0  0  0  0  0  0  0  0  0  0  0  0
    1.5962   -1.6743    2.6142 C   0  0  2  0  0  0  0  0  0  0  0  0
    0.8173   -1.9590    3.9194 C   0  0  0  0  0  0  0  0  0  0  0  0
    0.7740   -3.1037    4.3530 O   0  0  0  0  0  0  0  0  0  0  0  0
    3.0007   -1.1387    2.9250 C   0  0  0  0  0  0  0  0  0  0  0  0
    0.7777   -1.1653    0.7019 H   0  0  0  0  0  0  0  0  0  0  0  0
    1.7258   -2.6462    2.1280 H   0  0  0  0  0  0  0  0  0  0  0  0
    2.9508   -0.2190    3.5156 H   0  0  0  0  0  0  0  0  0  0  0  0
    3.5673   -1.8806    3.4964 H   0  0  0  0  0  0  0  0  0  0  0  0
    3.5419   -0.9267    1.9976 H   0  0  0  0  0  0  0  0  0  0  0  0
    0.1949   -0.9486    4.6241 N   0  0  0  0  0  0  0  0  0  0  0  0
   -0.4500   -1.1302    5.9168 C   0  0  0  0  0  0  0  0  0  0  0  0
    0.3285   -0.0021    4.2561 H   0  0  0  0  0  0  0  0  0  0  0  0
    0.2862   -1.4206    6.6732 H   0  0  0  0  0  0  0  0  0  0  0  0
   -0.9256   -0.1976    6.2349 H   0  0  0  0  0  0  0  0  0  0  0  0
   -1.2195   -1.9067    5.8563 H   0  0  0  0  0  0  0  0  0  0  0  0
  1  2  2  0  0  0  0
  1  3  1  0  0  0  0
  1  7  1  0  0  0  0
  3  4  1  0  0  0  0
  3  5  1  0  0  0  0
  3  6  1  0  0  0  0
  7  8  1  0  0  0  0
  7 12  1  0  0  0  0
  8  9  1  0  0  0  0
  8 11  1  0  0  0  0
  8 13  1  0  0  0  0
  9 10  2  0  0  0  0
  9 17  1  0  0  0  0
 11 14  1  0  0  0  0
 11 15  1  0  0  0  0
 11 16  1  0  0  0  0
 17 18  1  0  0  0  0
 17 25  1  0  0  0  0
 18 19  1  0  0  0  0
 18 21  1  0  0  0  0
 18 26  1  0  0  0  0
 19 20  2  0  0  0  0
 19 36  1  0  0  0  0
 21 22  1  0  0  0  0
 21 27  1  0  0  0  0
 21 28  1  0  0  0  0
 22 23  1  0  0  0  0
 22 24  1  0  0  0  0
 22 29  1  0  0  0  0
 23 30  1  0  0  0  0
 23 31  1  0  0  0  0
 23 32  1  0  0  0  0
 24 33  1  0  0  0  0
 24 34  1  0  0  0  0
 24 35  1  0  0  0  0
 36 37  1  0  0  0  0
 36 41  1  0  0  0  0
 37 38  1  0  0  0  0
 37 40  1  0  0  0  0
 37 42  1  0  0  0  0
 38 39  2  0  0  0  0
 38 46  1  0  0  0  0
 40 43  1  0  0  0  0
 40 44  1  0  0  0  0
 40 45  1  0  0  0  0
 46 47  1  0  0  0  0
 46 48  1  0  0  0  0
 47 49  1  0  0  0  0
 47 50  1  0  0  0  0
 47 51  1  0  0  0  0
M  END
$$$$

  -OEChem-02062319103D

 51 50  0     1  0  0  0  0  0999 V2000
    0.8339   -0.9045   -3.5587 C   0  0  0  0  0  0  0  0  0  0  0  0
   -0.1749   -0.3832   -3.1104 O   0  0  0  0  0  0  0  0  0  0  0  0
    0.7328   -2.2185   -4.3099 C   0  0  0  0  0  0  0  0  0  0  0  0
    1.2947   -2.9948   -3.7846 H   0  0  0  0  0  0  0  0  0  0  0  0
   -0.3127   -2.5312   -4.3851 H   0  0  0  0  0  0  0  0  0  0  0  0
    1.1379   -2.1048   -5.3186 H   0  0  0  0  0  0  0  0  0  0  0  0
    2.0752   -0.3291   -3.3612 N   0  0  0  0  0  0  0  0  0  0  0  0
    2.3582    0.9721   -2.7205 C   0  0  2  0  0  0  0  0  0  0  0  0
    2.0199    1.0452   -1.2127 C   0  0  0  0  0  0  0  0  0  0  0  0
    2.8775    1.4428   -0.4395 O   0  0  0  0  0  0  0  0  0  0  0  0
    1.6966    2.1204   -3.4960 C   0  0  0  0  0  0  0  0  0  0  0  0
    2.8648   -0.8385   -3.7494 H   0  0  0  0  0  0  0  0  0  0  0  0
    3.4401    1.1296   -2.7882 H   0  0  0  0  0  0  0  0  0  0  0  0
    0.6062    2.0576   -3.4512 H   0  0  0  0  0  0  0  0  0  0  0  0
    2.0013    3.0830   -3.0730 H   0  0  0  0  0  0  0  0  0  0  0  0
    2.0012    2.0935   -4.5465 H   0  0  0  0  0  0  0  0  0  0  0  0
    0.7314    0.8473   -0.7498 N   0  0  0  0  0  0  0  0  0  0  0  0
    0.1811    1.4748    0.4679 C   0  0  2  0  0  0  0  0  0  0  0  0
    0.9496    1.1113    1.7570 C   0  0  0  0  0  0  0  0  0  0  0  0
    1.0338    1.9349    2.6602 O   0  0  0  0  0  0  0  0  0  0  0  0
   -1.3044    1.0792    0.6176 C   0  0  0  0  0  0  0  0  0  0  0  0
   -2.2776    2.0605   -0.0700 C   0  0  0  0  0  0  0  0  0  0  0  0
   -3.7191    1.6240    0.2161 C   0  0  0  0  0  0  0  0  0  0  0  0
   -2.0708    2.1444   -1.5871 C   0  0  0  0  0  0  0  0  0  0  0  0
    0.0657    0.5754   -1.4804 H   0  0  0  0  0  0  0  0  0  0  0  0
    0.2554    2.5631    0.3692 H   0  0  0  0  0  0  0  0  0  0  0  0
   -1.5572    1.0572    1.6839 H   0  0  0  0  0  0  0  0  0  0  0  0
   -1.4583    0.0656    0.2313 H   0  0  0  0  0  0  0  0  0  0  0  0
   -2.1296    3.0592    0.3553 H   0  0  0  0  0  0  0  0  0  0  0  0
   -3.9110    0.6294   -0.1990 H   0  0  0  0  0  0  0  0  0  0  0  0
   -4.4276    2.3292   -0.2299 H   0  0  0  0  0  0  0  0  0  0  0  0
   -3.9026    1.5924    1.2947 H   0  0  0  0  0  0  0  0  0  0  0  0
   -2.1446    1.1521   -2.0418 H   0  0  0  0  0  0  0  0  0  0  0  0
   -2.8314    2.7883   -2.0396 H   0  0  0  0  0  0  0  0  0  0  0  0
   -1.0918    2.5703   -1.8208 H   0  0  0  0  0  0  0  0  0  0  0  0
    1.3095   -0.2083    1.9754 N   0  0  0  0  0  0  0  0  0  0  0  0
    2.0989   -0.7389    3.1053 C   0  0  2  0  0  0  0  0  0  0  0  0
    1.3685   -0.7740    4.4676 C   0  0  0  0  0  0  0  0  0  0  0  0
    1.4530   -1.7753    5.1678 O   0  0  0  0  0  0  0  0  0  0  0  0
    3.4389   -0.0001    3.2251 C   0  0  0  0  0  0  0  0  0  0  0  0
    1.2262   -0.7963    1.1515 H   0  0  0  0  0  0  0  0  0  0  0  0
    2.3296   -1.7816    2.8651 H   0  0  0  0  0  0  0  0  0  0  0  0
    3.2931    1.0309    3.5606 H   0  0  0  0  0  0  0  0  0  0  0  0
    4.0836   -0.5067    3.9501 H   0  0  0  0  0  0  0  0  0  0  0  0
    3.9510    0.0188    2.2579 H   0  0  0  0  0  0  0  0  0  0  0  0
    0.6447    0.3076    4.9265 N   0  0  0  0  0  0  0  0  0  0  0  0
    0.0232    0.3781    6.2409 C   0  0  0  0  0  0  0  0  0  0  0  0
    0.6659    1.1420    4.3331 H   0  0  0  0  0  0  0  0  0  0  0  0
    0.7828    0.3141    7.0269 H   0  0  0  0  0  0  0  0  0  0  0  0
   -0.5130    1.3254    6.3525 H   0  0  0  0  0  0  0  0  0  0  0  0
   -0.6911   -0.4413    6.3722 H   0  0  0  0  0  0  0  0  0  0  0  0
  1  2  2  0  0  0  0
  1  3  1  0  0  0  0
  1  7  1  0  0  0  0
  3  4  1  0  0  0  0
  3  5  1  0  0  0  0
  3  6  1  0  0  0  0
  7  8  1  0  0  0  0
  7 12  1  0  0  0  0
  8  9  1  0  0  0  0
  8 11  1  0  0  0  0
  8 13  1  0  0  0  0
  9 10  2  0  0  0  0
  9 17  1  0  0  0  0
 11 14  1  0  0  0  0
 11 15  1  0  0  0  0
 11 16  1  0  0  0  0
 17 18  1  0  0  0  0
 17 25  1  0  0  0  0
 18 19  1  0  0  0  0
 18 21  1  0  0  0  0
 18 26  1  0  0  0  0
 19 20  2  0  0  0  0
 19 36  1  0  0  0  0
 21 22  1  0  0  0  0
 21 27  1  0  0  0  0
 21 28  1  0  0  0  0
 22 23  1  0  0  0  0
 22 24  1  0  0  0  0
 22 29  1  0  0  0  0
 23 30  1  0  0  0  0
 23 31  1  0  0  0  0
 23 32  1  0  0  0  0
 24 33  1  0  0  0  0
 24 34  1  0  0  0  0
 24 35  1  0  0  0  0
 36 37  1  0  0  0  0
 36 41  1  0  0  0  0
 37 38  1  0  0  0  0
 37 40  1  0  0  0  0
 37 42  1  0  0  0  0
 38 39  2  0  0  0  0
 38 46  1  0  0  0  0
 40 43  1  0  0  0  0
 40 44  1  0  0  0  0
 40 45  1  0  0  0  0
 46 47  1  0  0  0  0
 46 48  1  0  0  0  0
 47 49  1  0  0  0  0
 47 50  1  0  0  0  0
 47 51  1  0  0  0  0
M  END
$$$$

  -OEChem-02062319103D

 51 50  0     1  0  0  0  0  0999 V2000
    0.9166   -1.0437   -3.5476 C   0  0  0  0  0  0  0  0  0  0  0  0
   -0.0801   -0.5683   -3.0276 O   0  0  0  0  0  0  0  0  0  0  0  0
    0.8250   -2.3647   -4.2879 C   0  0  0  0  0  0  0  0  0  0  0  0
    1.4586   -3.1112   -3.8023 H   0  0  0  0  0  0  0  0  0  0  0  0
   -0.2070   -2.7275   -4.2890 H   0  0  0  0  0  0  0  0  0  0  0  0
    1.1524   -2.2363   -5.3225 H   0  0  0  0  0  0  0  0  0  0  0  0
    2.1381   -0.4058   -3.4429 N   0  0  0  0  0  0  0  0  0  0  0  0
    2.4006    0.9080   -2.8203 C   0  0  2  0  0  0  0  0  0  0  0  0
    2.1511    0.9697   -1.2937 C   0  0  0  0  0  0  0  0  0  0  0  0
    3.0368    1.4239   -0.5857 O   0  0  0  0  0  0  0  0  0  0  0  0
    1.6525    2.0236   -3.5622 C   0  0  0  0  0  0  0  0  0  0  0  0
    2.9217   -0.8755   -3.8888 H   0  0  0  0  0  0  0  0  0  0  0  0
    3.4692    1.1103   -2.9494 H   0  0  0  0  0  0  0  0  0  0  0  0
    0.5701    1.8929   -3.4949 H   0  0  0  0  0  0  0  0  0  0  0  0
    1.9086    2.9975   -3.1328 H   0  0  0  0  0  0  0  0  0  0  0  0
    1.9339    2.0277   -4.6194 H   0  0  0  0  0  0  0  0  0  0  0  0
    0.8931    0.7733   -0.7490 N   0  0  0  0  0  0  0  0  0  0  0  0
    0.3293    1.6321    0.3147 C   0  0  2  0  0  0  0  0  0  0  0  0
    1.1557    1.6536    1.6199 C   0  0  0  0  0  0  0  0  0  0  0  0
    1.1822    2.6769    2.2935 O   0  0  0  0  0  0  0  0  0  0  0  0
   -1.1112    1.1672    0.6319 C   0  0  0  0  0  0  0  0  0  0  0  0
   -2.1964    1.9768   -0.1062 C   0  0  0  0  0  0  0  0  0  0  0  0
   -3.5813    1.5087    0.3551 C   0  0  0  0  0  0  0  0  0  0  0  0
   -2.1011    1.8383   -1.6293 C   0  0  0  0  0  0  0  0  0  0  0  0
    0.2205    0.4186   -1.4369 H   0  0  0  0  0  0  0  0  0  0  0  0
    0.3068    2.6677   -0.0423 H   0  0  0  0  0  0  0  0  0  0  0  0
   -1.2931    1.2789    1.7069 H   0  0  0  0  0  0  0  0  0  0  0  0
   -1.2175    0.1016    0.4012 H   0  0  0  0  0  0  0  0  0  0  0  0
   -2.0862    3.0347    0.1565 H   0  0  0  0  0  0  0  0  0  0  0  0
   -3.7337    0.4526    0.1103 H   0  0  0  0  0  0  0  0  0  0  0  0
   -4.3649    2.0957   -0.1343 H   0  0  0  0  0  0  0  0  0  0  0  0
   -3.6871    1.6341    1.4374 H   0  0  0  0  0  0  0  0  0  0  0  0
   -2.1624    0.7869   -1.9256 H   0  0  0  0  0  0  0  0  0  0  0  0
   -2.9195    2.3815   -2.1117 H   0  0  0  0  0  0  0  0  0  0  0  0
   -1.1607    2.2551   -1.9966 H   0  0  0  0  0  0  0  0  0  0  0  0
    1.6327    0.4602    2.1358 N   0  0  0  0  0  0  0  0  0  0  0  0
    2.4862    0.2875    3.3290 C   0  0  2  0  0  0  0  0  0  0  0  0
    1.7813    0.5222    4.6849 C   0  0  0  0  0  0  0  0  0  0  0  0
    1.9380   -0.2852    5.5926 O   0  0  0  0  0  0  0  0  0  0  0  0
    3.7557    1.1429    3.2177 C   0  0  0  0  0  0  0  0  0  0  0  0
    1.6117   -0.3056    1.4684 H   0  0  0  0  0  0  0  0  0  0  0  0
    2.8070   -0.7590    3.3380 H   0  0  0  0  0  0  0  0  0  0  0  0
    3.5236    2.2087    3.2993 H   0  0  0  0  0  0  0  0  0  0  0  0
    4.4548    0.8838    4.0187 H   0  0  0  0  0  0  0  0  0  0  0  0
    4.2484    0.9674    2.2563 H   0  0  0  0  0  0  0  0  0  0  0  0
    0.9945    1.6344    4.9046 N   0  0  0  0  0  0  0  0  0  0  0  0
    0.3583    1.9507    6.1749 C   0  0  0  0  0  0  0  0  0  0  0  0
    0.9333    2.2992    4.1280 H   0  0  0  0  0  0  0  0  0  0  0  0
   -0.2185    2.8762    6.0864 H   0  0  0  0  0  0  0  0  0  0  0  0
   -0.3217    1.1460    6.4728 H   0  0  0  0  0  0  0  0  0  0  0  0
    1.1121    2.0846    6.9576 H   0  0  0  0  0  0  0  0  0  0  0  0
  1  2  2  0  0  0  0
  1  3  1  0  0  0  0
  1  7  1  0  0  0  0
  3  4  1  0  0  0  0
  3  5  1  0  0  0  0
  3  6  1  0  0  0  0
  7  8  1  0  0  0  0
  7 12  1  0  0  0  0
  8  9  1  0  0  0  0
  8 11  1  0  0  0  0
  8 13  1  0  0  0  0
  9 10  2  0  0  0  0
  9 17  1  0  0  0  0
 11 14  1  0  0  0  0
 11 15  1  0  0  0  0
 11 16  1  0  0  0  0
 17 18  1  0  0  0  0
 17 25  1  0  0  0  0
 18 19  1  0  0  0  0
 18 21  1  0  0  0  0
 18 26  1  0  0  0  0
 19 20  2  0  0  0  0
 19 36  1  0  0  0  0
 21 22  1  0  0  0  0
 21 27  1  0  0  0  0
 21 28  1  0  0  0  0
 22 23  1  0  0  0  0
 22 24  1  0  0  0  0
 22 29  1  0  0  0  0
 23 30  1  0  0  0  0
 23 31  1  0  0  0  0
 23 32  1  0  0  0  0
 24 33  1  0  0  0  0
 24 34  1  0  0  0  0
 24 35  1  0  0  0  0
 36 37  1  0  0  0  0
 36 41  1  0  0  0  0
 37 38  1  0  0  0  0
 37 40  1  0  0  0  0
 37 42  1  0  0  0  0
 38 39  2  0  0  0  0
 38 46  1  0  0  0  0
 40 43  1  0  0  0  0
 40 44  1  0  0  0  0
 40 45  1  0  0  0  0
 46 47  1  0  0  0  0
 46 48  1  0  0  0  0
 47 49  1  0  0  0  0
 47 50  1  0  0  0  0
 47 51  1  0  0  0  0
M  END
$$$$

  -OEChem-02062319103D

 51 50  0     1  0  0  0  0  0999 V2000
    0.9771   -1.1965   -3.4904 C   0  0  0  0  0  0  0  0  0  0  0  0
    0.0084   -0.7424   -2.9037 O   0  0  0  0  0  0  0  0  0  0  0  0
    0.8722   -2.5365   -4.1933 C   0  0  0  0  0  0  0  0  0  0  0  0
    1.5891   -3.2421   -3.7660 H   0  0  0  0  0  0  0  0  0  0  0  0
   -0.1354   -2.9459   -4.0763 H   0  0  0  0  0  0  0  0  0  0  0  0
    1.0804   -2.4162   -5.2592 H   0  0  0  0  0  0  0  0  0  0  0  0
    2.1793   -0.5154   -3.4920 N   0  0  0  0  0  0  0  0  0  0  0  0
    2.4417    0.8155   -2.9072 C   0  0  2  0  0  0  0  0  0  0  0  0
    2.2847    0.8911   -1.3687 C   0  0  0  0  0  0  0  0  0  0  0  0
    3.2119    1.3576   -0.7249 O   0  0  0  0  0  0  0  0  0  0  0  0
    1.6211    1.8996   -3.6190 C   0  0  0  0  0  0  0  0  0  0  0  0
    2.9453   -0.9696   -3.9824 H   0  0  0  0  0  0  0  0  0  0  0  0
    3.4947    1.0438   -3.1050 H   0  0  0  0  0  0  0  0  0  0  0  0
    0.5495    1.7474   -3.4764 H   0  0  0  0  0  0  0  0  0  0  0  0
    1.8836    2.8876   -3.2271 H   0  0  0  0  0  0  0  0  0  0  0  0
    1.8296    1.8879   -4.6930 H   0  0  0  0  0  0  0  0  0  0  0  0
    1.0609    0.7293   -0.7391 N   0  0  0  0  0  0  0  0  0  0  0  0
    0.4718    1.7891    0.1084 C   0  0  2  0  0  0  0  0  0  0  0  0
    1.3332    2.1954    1.3254 C   0  0  0  0  0  0  0  0  0  0  0  0
    1.2874    3.3535    1.7238 O   0  0  0  0  0  0  0  0  0  0  0  0
   -0.9111    1.3167    0.6230 C   0  0  0  0  0  0  0  0  0  0  0  0
   -2.0983    1.9107   -0.1606 C   0  0  0  0  0  0  0  0  0  0  0  0
   -3.4076    1.5562    0.5536 C   0  0  0  0  0  0  0  0  0  0  0  0
   -2.1573    1.3952   -1.6013 C   0  0  0  0  0  0  0  0  0  0  0  0
    0.3860    0.2692   -1.3589 H   0  0  0  0  0  0  0  0  0  0  0  0
    0.3500    2.6962   -0.4931 H   0  0  0  0  0  0  0  0  0  0  0  0
   -1.0256    1.6195    1.6702 H   0  0  0  0  0  0  0  0  0  0  0  0
   -0.9629    0.2225    0.6059 H   0  0  0  0  0  0  0  0  0  0  0  0
   -2.0018    3.0018   -0.1803 H   0  0  0  0  0  0  0  0  0  0  0  0
   -3.5374    0.4706    0.6073 H   0  0  0  0  0  0  0  0  0  0  0  0
   -4.2623    1.9823    0.0191 H   0  0  0  0  0  0  0  0  0  0  0  0
   -3.4078    1.9574    1.5719 H   0  0  0  0  0  0  0  0  0  0  0  0
   -2.2155    0.3023   -1.6186 H   0  0  0  0  0  0  0  0  0  0  0  0
   -3.0370    1.7966   -2.1142 H   0  0  0  0  0  0  0  0  0  0  0  0
   -1.2723    1.7089   -2.1576 H   0  0  0  0  0  0  0  0  0  0  0  0
    1.9169    1.2073    2.0999 N   0  0  0  0  0  0  0  0  0  0  0  0
    2.7849    1.4004    3.2794 C   0  0  2  0  0  0  0  0  0  0  0  0
    2.0632    1.8922    4.5554 C   0  0  0  0  0  0  0  0  0  0  0  0
    2.3360    1.3831    5.6356 O   0  0  0  0  0  0  0  0  0  0  0  0
    3.9742    2.3094    2.9395 C   0  0  0  0  0  0  0  0  0  0  0  0
    1.9785    0.3107    1.6245 H   0  0  0  0  0  0  0  0  0  0  0  0
    3.1963    0.4176    3.5300 H   0  0  0  0  0  0  0  0  0  0  0  0
    3.6511    3.3433    2.7873 H   0  0  0  0  0  0  0  0  0  0  0  0
    4.7019    2.2967    3.7569 H   0  0  0  0  0  0  0  0  0  0  0  0
    4.4702    1.9621    2.0276 H   0  0  0  0  0  0  0  0  0  0  0  0
    1.1295    2.9080    4.5085 N   0  0  0  0  0  0  0  0  0  0  0  0
    0.4897    3.4857    5.6815 C   0  0  0  0  0  0  0  0  0  0  0  0
    1.0076    3.3564    3.5962 H   0  0  0  0  0  0  0  0  0  0  0  0
   -0.2657    4.2165    5.3768 H   0  0  0  0  0  0  0  0  0  0  0  0
   -0.0028    2.7069    6.2730 H   0  0  0  0  0  0  0  0  0  0  0  0
    1.2298    3.9913    6.3100 H   0  0  0  0  0  0  0  0  0  0  0  0
  1  2  2  0  0  0  0
  1  3  1  0  0  0  0
  1  7  1  0  0  0  0
  3  4  1  0  0  0  0
  3  5  1  0  0  0  0
  3  6  1  0  0  0  0
  7  8  1  0  0  0  0
  7 12  1  0  0  0  0
  8  9  1  0  0  0  0
  8 11  1  0  0  0  0
  8 13  1  0  0  0  0
  9 10  2  0  0  0  0
  9 17  1  0  0  0  0
 11 14  1  0  0  0  0
 11 15  1  0  0  0  0
 11 16  1  0  0  0  0
 17 18  1  0  0  0  0
 17 25  1  0  0  0  0
 18 19  1  0  0  0  0
 18 21  1  0  0  0  0
 18 26  1  0  0  0  0
 19 20  2  0  0  0  0
 19 36  1  0  0  0  0
 21 22  1  0  0  0  0
 21 27  1  0  0  0  0
 21 28  1  0  0  0  0
 22 23  1  0  0  0  0
 22 24  1  0  0  0  0
 22 29  1  0  0  0  0
 23 30  1  0  0  0  0
 23 31  1  0  0  0  0
 23 32  1  0  0  0  0
 24 33  1  0  0  0  0
 24 34  1  0  0  0  0
 24 35  1  0  0  0  0
 36 37  1  0  0  0  0
 36 41  1  0  0  0  0
 37 38  1  0  0  0  0
 37 40  1  0  0  0  0
 37 42  1  0  0  0  0
 38 39  2  0  0  0  0
 38 46  1  0  0  0  0
 40 43  1  0  0  0  0
 40 44  1  0  0  0  0
 40 45  1  0  0  0  0
 46 47  1  0  0  0  0
 46 48  1  0  0  0  0
 47 49  1  0  0  0  0
 47 50  1  0  0  0  0
 47 51  1  0  0  0  0
M  END
$$$$

  -OEChem-02062319103D

 51 50  0     1  0  0  0  0  0999 V2000
    2.7567   -1.5618   -3.3190 C   0  0  0  0  0  0  0  0  0  0  0  0
    1.9305   -2.2556   -2.7470 O   0  0  0  0  0  0  0  0  0  0  0  0
    4.0911   -2.1605   -3.7223 C   0  0  0  0  0  0  0  0  0  0  0  0
    4.9040   -1.6417   -3.2076 H   0  0  0  0  0  0  0  0  0  0  0  0
    4.1251   -3.2204   -3.4544 H   0  0  0  0  0  0  0  0  0  0  0  0
    4.2318   -2.0661   -4.8017 H   0  0  0  0  0  0  0  0  0  0  0  0
    2.5011   -0.2299   -3.5914 N   0  0  0  0  0  0  0  0  0  0  0  0
    1.3586    0.5215   -3.0380 C   0  0  2  0  0  0  0  0  0  0  0  0
    1.3953    0.5823   -1.4897 C   0  0  0  0  0  0  0  0  0  0  0  0
    2.4770    0.7944   -0.9594 O   0  0  0  0  0  0  0  0  0  0  0  0
    0.0385   -0.0384   -3.5971 C   0  0  0  0  0  0  0  0  0  0  0  0
    3.3114    0.3095   -3.8825 H   0  0  0  0  0  0  0  0  0  0  0  0
    1.4432    1.5550   -3.3876 H   0  0  0  0  0  0  0  0  0  0  0  0
   -0.2307   -0.9817   -3.1123 H   0  0  0  0  0  0  0  0  0  0  0  0
   -0.7764    0.6705   -3.4428 H   0  0  0  0  0  0  0  0  0  0  0  0
    0.1302   -0.2174   -4.6730 H   0  0  0  0  0  0  0  0  0  0  0  0
    0.2623    0.8831   -0.7486 N   0  0  0  0  0  0  0  0  0  0  0  0
    0.0854    2.2051   -0.1061 C   0  0  2  0  0  0  0  0  0  0  0  0
    1.1767    2.5728    0.9258 C   0  0  0  0  0  0  0  0  0  0  0  0
    1.4936    3.7495    1.0537 O   0  0  0  0  0  0  0  0  0  0  0  0
   -1.2901    2.2324    0.6010 C   0  0  0  0  0  0  0  0  0  0  0  0
   -2.4261    2.8284   -0.2549 C   0  0  0  0  0  0  0  0  0  0  0  0
   -3.7296    2.7955    0.5508 C   0  0  0  0  0  0  0  0  0  0  0  0
   -2.6305    2.0860   -1.5794 C   0  0  0  0  0  0  0  0  0  0  0  0
   -0.5829    0.5359   -1.1935 H   0  0  0  0  0  0  0  0  0  0  0  0
    0.1179    2.9872   -0.8722 H   0  0  0  0  0  0  0  0  0  0  0  0
   -1.2136    2.8438    1.5078 H   0  0  0  0  0  0  0  0  0  0  0  0
   -1.5567    1.2205    0.9260 H   0  0  0  0  0  0  0  0  0  0  0  0
   -2.1856    3.8738   -0.4786 H   0  0  0  0  0  0  0  0  0  0  0  0
   -4.0146    1.7646    0.7840 H   0  0  0  0  0  0  0  0  0  0  0  0
   -4.5419    3.2608   -0.0163 H   0  0  0  0  0  0  0  0  0  0  0  0
   -3.6118    3.3446    1.4904 H   0  0  0  0  0  0  0  0  0  0  0  0
   -2.7371    1.0099   -1.4101 H   0  0  0  0  0  0  0  0  0  0  0  0
   -3.5317    2.4477   -2.0846 H   0  0  0  0  0  0  0  0  0  0  0  0
   -1.7830    2.2636   -2.2451 H   0  0  0  0  0  0  0  0  0  0  0  0
    1.5826    1.6236    1.8483 N   0  0  0  0  0  0  0  0  0  0  0  0
    2.6353    1.7770    2.8728 C   0  0  2  0  0  0  0  0  0  0  0  0
    2.2733    2.6994    4.0595 C   0  0  0  0  0  0  0  0  0  0  0  0
    2.4916    2.3236    5.2045 O   0  0  0  0  0  0  0  0  0  0  0  0
    3.9621    2.2045    2.2309 C   0  0  0  0  0  0  0  0  0  0  0  0
    1.3692    0.6724    1.5567 H   0  0  0  0  0  0  0  0  0  0  0  0
    2.7962    0.7846    3.3066 H   0  0  0  0  0  0  0  0  0  0  0  0
    3.9106    3.2332    1.8628 H   0  0  0  0  0  0  0  0  0  0  0  0
    4.7707    2.1445    2.9659 H   0  0  0  0  0  0  0  0  0  0  0  0
    4.2065    1.5459    1.3915 H   0  0  0  0  0  0  0  0  0  0  0  0
    1.7248    3.9498    3.8586 N   0  0  0  0  0  0  0  0  0  0  0  0
    1.4073    4.8865    4.9265 C   0  0  0  0  0  0  0  0  0  0  0  0
    1.5996    4.2320    2.8825 H   0  0  0  0  0  0  0  0  0  0  0  0
    2.3109    5.1488    5.4864 H   0  0  0  0  0  0  0  0  0  0  0  0
    0.9800    5.8030    4.5085 H   0  0  0  0  0  0  0  0  0  0  0  0
    0.6788    4.4477    5.6162 H   0  0  0  0  0  0  0  0  0  0  0  0
  1  2  2  0  0  0  0
  1  3  1  0  0  0  0
  1  7  1  0  0  0  0
  3  4  1  0  0  0  0
  3  5  1  0  0  0  0
  3  6  1  0  0  0  0
  7  8  1  0  0  0  0
  7 12  1  0  0  0  0
  8  9  1  0  0  0  0
  8 11  1  0  0  0  0
  8 13  1  0  0  0  0
  9 10  2  0  0  0  0
  9 17  1  0  0  0  0
 11 14  1  0  0  0  0
 11 15  1  0  0  0  0
 11 16  1  0  0  0  0
 17 18  1  0  0  0  0
 17 25  1  0  0  0  0
 18 19  1  0  0  0  0
 18 21  1  0  0  0  0
 18 26  1  0  0  0  0
 19 20  2  0  0  0  0
 19 36  1  0  0  0  0
 21 22  1  0  0  0  0
 21 27  1  0  0  0  0
 21 28  1  0  0  0  0
 22 23  1  0  0  0  0
 22 24  1  0  0  0  0
 22 29  1  0  0  0  0
 23 30  1  0  0  0  0
 23 31  1  0  0  0  0
 23 32  1  0  0  0  0
 24 33  1  0  0  0  0
 24 34  1  0  0  0  0
 24 35  1  0  0  0  0
 36 37  1  0  0  0  0
 36 41  1  0  0  0  0
 37 38  1  0  0  0  0
 37 40  1  0  0  0  0
 37 42  1  0  0  0  0
 38 39  2  0  0  0  0
 38 46  1  0  0  0  0
 40 43  1  0  0  0  0
 40 44  1  0  0  0  0
 40 45  1  0  0  0  0
 46 47  1  0  0  0  0
 46 48  1  0  0  0  0
 47 49  1  0  0  0  0
 47 50  1  0  0  0  0
 47 51  1  0  0  0  0
M  END
$$$$

  -OEChem-02062319103D

 51 50  0     1  0  0  0  0  0999 V2000
    2.9388   -1.5149   -3.2565 C   0  0  0  0  0  0  0  0  0  0  0  0
    2.2019   -2.3191   -2.7081 O   0  0  0  0  0  0  0  0  0  0  0  0
    4.3453   -1.9299   -3.6456 C   0  0  0  0  0  0  0  0  0  0  0  0
    5.0759   -1.3228   -3.1051 H   0  0  0  0  0  0  0  0  0  0  0  0
    4.5107   -2.9822   -3.3979 H   0  0  0  0  0  0  0  0  0  0  0  0
    4.4911   -1.7953   -4.7198 H   0  0  0  0  0  0  0  0  0  0  0  0
    2.5192   -0.2228   -3.5187 N   0  0  0  0  0  0  0  0  0  0  0  0
    1.2951    0.3821   -2.9585 C   0  0  2  0  0  0  0  0  0  0  0  0
    1.3309    0.4700   -1.4107 C   0  0  0  0  0  0  0  0  0  0  0  0
    2.4108    0.6690   -0.8712 O   0  0  0  0  0  0  0  0  0  0  0  0
    0.0501   -0.3466   -3.4933 C   0  0  0  0  0  0  0  0  0  0  0  0
    3.2602    0.4139   -3.7974 H   0  0  0  0  0  0  0  0  0  0  0  0
    1.2453    1.4126   -3.3225 H   0  0  0  0  0  0  0  0  0  0  0  0
   -0.0959   -1.3071   -2.9901 H   0  0  0  0  0  0  0  0  0  0  0  0
   -0.8453    0.2570   -3.3411 H   0  0  0  0  0  0  0  0  0  0  0  0
    0.1533   -0.5313   -4.5671 H   0  0  0  0  0  0  0  0  0  0  0  0
    0.2185    0.8481   -0.6751 N   0  0  0  0  0  0  0  0  0  0  0  0
   -0.0108    2.2745   -0.3529 C   0  0  2  0  0  0  0  0  0  0  0  0
    1.1174    2.9355    0.4735 C   0  0  0  0  0  0  0  0  0  0  0  0
    1.3739    4.1166    0.2728 O   0  0  0  0  0  0  0  0  0  0  0  0
   -1.3271    2.3935    0.4536 C   0  0  0  0  0  0  0  0  0  0  0  0
   -2.5709    2.7115   -0.4007 C   0  0  0  0  0  0  0  0  0  0  0  0
   -3.7962    2.8131    0.5157 C   0  0  0  0  0  0  0  0  0  0  0  0
   -2.8343    1.6608   -1.4831 C   0  0  0  0  0  0  0  0  0  0  0  0
   -0.6214    0.3892   -1.0172 H   0  0  0  0  0  0  0  0  0  0  0  0
   -0.0939    2.8527   -1.2792 H   0  0  0  0  0  0  0  0  0  0  0  0
   -1.2252    3.2031    1.1857 H   0  0  0  0  0  0  0  0  0  0  0  0
   -1.4914    1.4729    1.0250 H   0  0  0  0  0  0  0  0  0  0  0  0
   -2.4252    3.6820   -0.8882 H   0  0  0  0  0  0  0  0  0  0  0  0
   -3.9870    1.8576    1.0148 H   0  0  0  0  0  0  0  0  0  0  0  0
   -4.6845    3.0869   -0.0620 H   0  0  0  0  0  0  0  0  0  0  0  0
   -3.6389    3.5795    1.2813 H   0  0  0  0  0  0  0  0  0  0  0  0
   -2.8373    0.6528   -1.0564 H   0  0  0  0  0  0  0  0  0  0  0  0
   -3.8035    1.8379   -1.9602 H   0  0  0  0  0  0  0  0  0  0  0  0
   -2.0676    1.7217   -2.2572 H   0  0  0  0  0  0  0  0  0  0  0  0
    1.6518    2.2655    1.5602 N   0  0  0  0  0  0  0  0  0  0  0  0
    2.7633    2.7201    2.4204 C   0  0  2  0  0  0  0  0  0  0  0  0
    2.4330    3.8999    3.3644 C   0  0  0  0  0  0  0  0  0  0  0  0
    2.7708    3.8433    4.5402 O   0  0  0  0  0  0  0  0  0  0  0  0
    4.0136    3.0205    1.5822 C   0  0  0  0  0  0  0  0  0  0  0  0
    1.5001    1.2597    1.5131 H   0  0  0  0  0  0  0  0  0  0  0  0
    3.0140    1.8794    3.0752 H   0  0  0  0  0  0  0  0  0  0  0  0
    3.8716    3.9118    0.9642 H   0  0  0  0  0  0  0  0  0  0  0  0
    4.8723    3.1922    2.2385 H   0  0  0  0  0  0  0  0  0  0  0  0
    4.2424    2.1741    0.9268 H   0  0  0  0  0  0  0  0  0  0  0  0
    1.7828    5.0298    2.9100 N   0  0  0  0  0  0  0  0  0  0  0  0
    1.4875    6.1926    3.7347 C   0  0  0  0  0  0  0  0  0  0  0  0
    1.5636    5.0493    1.9105 H   0  0  0  0  0  0  0  0  0  0  0  0
    2.4117    6.6255    4.1316 H   0  0  0  0  0  0  0  0  0  0  0  0
    0.9747    6.9554    3.1412 H   0  0  0  0  0  0  0  0  0  0  0  0
    0.8405    5.9127    4.5723 H   0  0  0  0  0  0  0  0  0  0  0  0
  1  2  2  0  0  0  0
  1  3  1  0  0  0  0
  1  7  1  0  0  0  0
  3  4  1  0  0  0  0
  3  5  1  0  0  0  0
  3  6  1  0  0  0  0
  7  8  1  0  0  0  0
  7 12  1  0  0  0  0
  8  9  1  0  0  0  0
  8 11  1  0  0  0  0
  8 13  1  0  0  0  0
  9 10  2  0  0  0  0
  9 17  1  0  0  0  0
 11 14  1  0  0  0  0
 11 15  1  0  0  0  0
 11 16  1  0  0  0  0
 17 18  1  0  0  0  0
 17 25  1  0  0  0  0
 18 19  1  0  0  0  0
 18 21  1  0  0  0  0
 18 26  1  0  0  0  0
 19 20  2  0  0  0  0
 19 36  1  0  0  0  0
 21 22  1  0  0  0  0
 21 27  1  0  0  0  0
 21 28  1  0  0  0  0
 22 23  1  0  0  0  0
 22 24  1  0  0  0  0
 22 29  1  0  0  0  0
 23 30  1  0  0  0  0
 23 31  1  0  0  0  0
 23 32  1  0  0  0  0
 24 33  1  0  0  0  0
 24 34  1  0  0  0  0
 24 35  1  0  0  0  0
 36 37  1  0  0  0  0
 36 41  1  0  0  0  0
 37 38  1  0  0  0  0
 37 40  1  0  0  0  0
 37 42  1  0  0  0  0
 38 39  2  0  0  0  0
 38 46  1  0  0  0  0
 40 43  1  0  0  0  0
 40 44  1  0  0  0  0
 40 45  1  0  0  0  0
 46 47  1  0  0  0  0
 46 48  1  0  0  0  0
 47 49  1  0  0  0  0
 47 50  1  0  0  0  0
 47 51  1  0  0  0  0
M  END
$$$$

  -OEChem-02062319103D

 51 50  0     1  0  0  0  0  0999 V2000
    2.4962   -1.5990   -3.2452 C   0  0  0  0  0  0  0  0  0  0  0  0
    1.4566   -2.0516   -2.7928 O   0  0  0  0  0  0  0  0  0  0  0  0
    3.6399   -2.5402   -3.5744 C   0  0  0  0  0  0  0  0  0  0  0  0
    4.5115   -2.2950   -2.9624 H   0  0  0  0  0  0  0  0  0  0  0  0
    3.3474   -3.5744   -3.3710 H   0  0  0  0  0  0  0  0  0  0  0  0
    3.9061   -2.4514   -4.6304 H   0  0  0  0  0  0  0  0  0  0  0  0
    2.6599   -0.2403   -3.4500 N   0  0  0  0  0  0  0  0  0  0  0  0
    1.7258    0.7937   -2.9652 C   0  0  2  0  0  0  0  0  0  0  0  0
    1.6021    0.8047   -1.4186 C   0  0  0  0  0  0  0  0  0  0  0  0
    2.5282    0.4796   -0.6897 O   0  0  0  0  0  0  0  0  0  0  0  0
    0.3765    0.6727   -3.6955 C   0  0  0  0  0  0  0  0  0  0  0  0
    3.6054    0.0525   -3.6765 H   0  0  0  0  0  0  0  0  0  0  0  0
    2.1445    1.7671   -3.2372 H   0  0  0  0  0  0  0  0  0  0  0  0
   -0.1848   -0.1989   -3.3475 H   0  0  0  0  0  0  0  0  0  0  0  0
   -0.2358    1.5619   -3.5272 H   0  0  0  0  0  0  0  0  0  0  0  0
    0.5383    0.5714   -4.7729 H   0  0  0  0  0  0  0  0  0  0  0  0
    0.4423    1.0381   -0.7189 N   0  0  0  0  0  0  0  0  0  0  0  0
   -0.0670    2.4157   -0.6404 C   0  0  2  0  0  0  0  0  0  0  0  0
    0.9430    3.3764    0.0264 C   0  0  0  0  0  0  0  0  0  0  0  0
    1.1001    4.4883   -0.4584 O   0  0  0  0  0  0  0  0  0  0  0  0
   -1.3953    2.4443    0.1445 C   0  0  0  0  0  0  0  0  0  0  0  0
   -2.6190    1.9516   -0.6625 C   0  0  0  0  0  0  0  0  0  0  0  0
   -3.9024    2.3313    0.0871 C   0  0  0  0  0  0  0  0  0  0  0  0
   -2.6164    0.4330   -0.8924 C   0  0  0  0  0  0  0  0  0  0  0  0
    0.4769    0.5482    0.1706 H   0  0  0  0  0  0  0  0  0  0  0  0
   -0.2532    2.8017   -1.6472 H   0  0  0  0  0  0  0  0  0  0  0  0
   -1.5865    3.4820    0.4413 H   0  0  0  0  0  0  0  0  0  0  0  0
   -1.2964    1.8598    1.0655 H   0  0  0  0  0  0  0  0  0  0  0  0
   -2.6319    2.4537   -1.6358 H   0  0  0  0  0  0  0  0  0  0  0  0
   -3.9338    1.8511    1.0704 H   0  0  0  0  0  0  0  0  0  0  0  0
   -4.7836    2.0168   -0.4809 H   0  0  0  0  0  0  0  0  0  0  0  0
   -3.9585    3.4153    0.2268 H   0  0  0  0  0  0  0  0  0  0  0  0
   -2.4757   -0.1020    0.0521 H   0  0  0  0  0  0  0  0  0  0  0  0
   -3.5654    0.1126   -1.3335 H   0  0  0  0  0  0  0  0  0  0  0  0
   -1.8203    0.1432   -1.5819 H   0  0  0  0  0  0  0  0  0  0  0  0
    1.6090    3.0074    1.1839 N   0  0  0  0  0  0  0  0  0  0  0  0
    2.7105    3.7405    1.8423 C   0  0  2  0  0  0  0  0  0  0  0  0
    2.3223    5.0779    2.5161 C   0  0  0  0  0  0  0  0  0  0  0  0
    2.7359    5.3238    3.6418 O   0  0  0  0  0  0  0  0  0  0  0  0
    3.8865    3.9368    0.8759 C   0  0  0  0  0  0  0  0  0  0  0  0
    1.5279    2.0220    1.4188 H   0  0  0  0  0  0  0  0  0  0  0  0
    3.0697    3.0977    2.6526 H   0  0  0  0  0  0  0  0  0  0  0  0
    3.6358    4.6501    0.0854 H   0  0  0  0  0  0  0  0  0  0  0  0
    4.7562    4.3208    1.4182 H   0  0  0  0  0  0  0  0  0  0  0  0
    4.1609    2.9837    0.4129 H   0  0  0  0  0  0  0  0  0  0  0  0
    1.5476    6.0183    1.8673 N   0  0  0  0  0  0  0  0  0  0  0  0
    1.2334    7.3321    2.4109 C   0  0  0  0  0  0  0  0  0  0  0  0
    1.2840    5.7951    0.9041 H   0  0  0  0  0  0  0  0  0  0  0  0
    2.1483    7.9182    2.5461 H   0  0  0  0  0  0  0  0  0  0  0  0
    0.5714    7.8734    1.7284 H   0  0  0  0  0  0  0  0  0  0  0  0
    0.7287    7.2367    3.3780 H   0  0  0  0  0  0  0  0  0  0  0  0
  1  2  2  0  0  0  0
  1  3  1  0  0  0  0
  1  7  1  0  0  0  0
  3  4  1  0  0  0  0
  3  5  1  0  0  0  0
  3  6  1  0  0  0  0
  7  8  1  0  0  0  0
  7 12  1  0  0  0  0
  8  9  1  0  0  0  0
  8 11  1  0  0  0  0
  8 13  1  0  0  0  0
  9 10  2  0  0  0  0
  9 17  1  0  0  0  0
 11 14  1  0  0  0  0
 11 15  1  0  0  0  0
 11 16  1  0  0  0  0
 17 18  1  0  0  0  0
 17 25  1  0  0  0  0
 18 19  1  0  0  0  0
 18 21  1  0  0  0  0
 18 26  1  0  0  0  0
 19 20  2  0  0  0  0
 19 36  1  0  0  0  0
 21 22  1  0  0  0  0
 21 27  1  0  0  0  0
 21 28  1  0  0  0  0
 22 23  1  0  0  0  0
 22 24  1  0  0  0  0
 22 29  1  0  0  0  0
 23 30  1  0  0  0  0
 23 31  1  0  0  0  0
 23 32  1  0  0  0  0
 24 33  1  0  0  0  0
 24 34  1  0  0  0  0
 24 35  1  0  0  0  0
 36 37  1  0  0  0  0
 36 41  1  0  0  0  0
 37 38  1  0  0  0  0
 37 40  1  0  0  0  0
 37 42  1  0  0  0  0
 38 39  2  0  0  0  0
 38 46  1  0  0  0  0
 40 43  1  0  0  0  0
 40 44  1  0  0  0  0
 40 45  1  0  0  0  0
 46 47  1  0  0  0  0
 46 48  1  0  0  0  0
 47 49  1  0  0  0  0
 47 50  1  0  0  0  0
 47 51  1  0  0  0  0
M  END
$$$$

  -OEChem-02062319103D

 51 50  0     1  0  0  0  0  0999 V2000
    2.8369   -1.5124   -3.1710 C   0  0  0  0  0  0  0  0  0  0  0  0
    1.9318   -2.2053   -2.7351 O   0  0  0  0  0  0  0  0  0  0  0  0
    4.1784   -2.1484   -3.4828 C   0  0  0  0  0  0  0  0  0  0  0  0
    4.9550   -1.7076   -2.8530 H   0  0  0  0  0  0  0  0  0  0  0  0
    4.1394   -3.2243   -3.2907 H   0  0  0  0  0  0  0  0  0  0  0  0
    4.4335   -1.9878   -4.5328 H   0  0  0  0  0  0  0  0  0  0  0  0
    2.6699   -0.1561   -3.3886 N   0  0  0  0  0  0  0  0  0  0  0  0
    1.5167    0.6356   -2.9176 C   0  0  2  0  0  0  0  0  0  0  0  0
    1.4299    0.7096   -1.3701 C   0  0  0  0  0  0  0  0  0  0  0  0
    2.3785    0.4661   -0.6391 O   0  0  0  0  0  0  0  0  0  0  0  0
    0.2141    0.1376   -3.5702 C   0  0  0  0  0  0  0  0  0  0  0  0
    3.5220    0.3504   -3.6087 H   0  0  0  0  0  0  0  0  0  0  0  0
    1.6694    1.6632   -3.2611 H   0  0  0  0  0  0  0  0  0  0  0  0
   -0.1280   -0.7938   -3.1092 H   0  0  0  0  0  0  0  0  0  0  0  0
   -0.5816    0.8786   -3.4642 H   0  0  0  0  0  0  0  0  0  0  0  0
    0.3701   -0.0412   -4.6383 H   0  0  0  0  0  0  0  0  0  0  0  0
    0.3072    1.0590   -0.6575 N   0  0  0  0  0  0  0  0  0  0  0  0
   -0.2975    2.3836   -0.8682 C   0  0  2  0  0  0  0  0  0  0  0  0
    0.6939    3.5207   -0.5374 C   0  0  0  0  0  0  0  0  0  0  0  0
    0.7751    4.4696   -1.3048 O   0  0  0  0  0  0  0  0  0  0  0  0
   -1.5600    2.5284    0.0069 C   0  0  0  0  0  0  0  0  0  0  0  0
   -2.8196    1.8569   -0.5850 C   0  0  0  0  0  0  0  0  0  0  0  0
   -4.0345    2.2326    0.2720 C   0  0  0  0  0  0  0  0  0  0  0  0
   -2.7141    0.3265   -0.6511 C   0  0  0  0  0  0  0  0  0  0  0  0
    0.4060    0.7720    0.3125 H   0  0  0  0  0  0  0  0  0  0  0  0
   -0.5872    2.5070   -1.9161 H   0  0  0  0  0  0  0  0  0  0  0  0
   -1.7761    3.5970    0.1195 H   0  0  0  0  0  0  0  0  0  0  0  0
   -1.3640    2.1329    1.0092 H   0  0  0  0  0  0  0  0  0  0  0  0
   -2.9843    2.2385   -1.5986 H   0  0  0  0  0  0  0  0  0  0  0  0
   -3.9139    1.8653    1.2962 H   0  0  0  0  0  0  0  0  0  0  0  0
   -4.9472    1.7977   -0.1475 H   0  0  0  0  0  0  0  0  0  0  0  0
   -4.1599    3.3194    0.3046 H   0  0  0  0  0  0  0  0  0  0  0  0
   -2.4170   -0.0836    0.3192 H   0  0  0  0  0  0  0  0  0  0  0  0
   -3.6776   -0.1108   -0.9312 H   0  0  0  0  0  0  0  0  0  0  0  0
   -1.9821    0.0192   -1.4021 H   0  0  0  0  0  0  0  0  0  0  0  0
    1.4639    3.4701    0.6132 N   0  0  0  0  0  0  0  0  0  0  0  0
    2.5724    4.3760    0.9785 C   0  0  2  0  0  0  0  0  0  0  0  0
    2.1582    5.8230    1.3340 C   0  0  0  0  0  0  0  0  0  0  0  0
    2.5929    6.3376    2.3560 O   0  0  0  0  0  0  0  0  0  0  0  0
    3.6645    4.3663   -0.1004 C   0  0  0  0  0  0  0  0  0  0  0  0
    1.4237    2.5867    1.1141 H   0  0  0  0  0  0  0  0  0  0  0  0
    3.0236    3.9658    1.8880 H   0  0  0  0  0  0  0  0  0  0  0  0
    3.3248    4.8600   -1.0154 H   0  0  0  0  0  0  0  0  0  0  0  0
    4.5519    4.8950    0.2618 H   0  0  0  0  0  0  0  0  0  0  0  0
    3.9498    3.3378   -0.3433 H   0  0  0  0  0  0  0  0  0  0  0  0
    1.3247    6.5582    0.5153 N   0  0  0  0  0  0  0  0  0  0  0  0
    0.9455    7.9416    0.7658 C   0  0  0  0  0  0  0  0  0  0  0  0
    1.0117    6.0962   -0.3424 H   0  0  0  0  0  0  0  0  0  0  0  0
    1.8295    8.5878    0.7550 H   0  0  0  0  0  0  0  0  0  0  0  0
    0.2526    8.2883   -0.0070 H   0  0  0  0  0  0  0  0  0  0  0  0
    0.4522    8.0337    1.7392 H   0  0  0  0  0  0  0  0  0  0  0  0
  1  2  2  0  0  0  0
  1  3  1  0  0  0  0
  1  7  1  0  0  0  0
  3  4  1  0  0  0  0
  3  5  1  0  0  0  0
  3  6  1  0  0  0  0
  7  8  1  0  0  0  0
  7 12  1  0  0  0  0
  8  9  1  0  0  0  0
  8 11  1  0  0  0  0
  8 13  1  0  0  0  0
  9 10  2  0  0  0  0
  9 17  1  0  0  0  0
 11 14  1  0  0  0  0
 11 15  1  0  0  0  0
 11 16  1  0  0  0  0
 17 18  1  0  0  0  0
 17 25  1  0  0  0  0
 18 19  1  0  0  0  0
 18 21  1  0  0  0  0
 18 26  1  0  0  0  0
 19 20  2  0  0  0  0
 19 36  1  0  0  0  0
 21 22  1  0  0  0  0
 21 27  1  0  0  0  0
 21 28  1  0  0  0  0
 22 23  1  0  0  0  0
 22 24  1  0  0  0  0
 22 29  1  0  0  0  0
 23 30  1  0  0  0  0
 23 31  1  0  0  0  0
 23 32  1  0  0  0  0
 24 33  1  0  0  0  0
 24 34  1  0  0  0  0
 24 35  1  0  0  0  0
 36 37  1  0  0  0  0
 36 41  1  0  0  0  0
 37 38  1  0  0  0  0
 37 40  1  0  0  0  0
 37 42  1  0  0  0  0
 38 39  2  0  0  0  0
 38 46  1  0  0  0  0
 40 43  1  0  0  0  0
 40 44  1  0  0  0  0
 40 45  1  0  0  0  0
 46 47  1  0  0  0  0
 46 48  1  0  0  0  0
 47 49  1  0  0  0  0
 47 50  1  0  0  0  0
 47 51  1  0  0  0  0
M  END
$$$$

  -OEChem-02062319103D

 51 50  0     1  0  0  0  0  0999 V2000
    3.0373   -1.4300   -3.1128 C   0  0  0  0  0  0  0  0  0  0  0  0
    2.2163   -2.2436   -2.7218 O   0  0  0  0  0  0  0  0  0  0  0  0
    4.4648   -1.8787   -3.3632 C   0  0  0  0  0  0  0  0  0  0  0  0
    5.1442   -1.3503   -2.6899 H   0  0  0  0  0  0  0  0  0  0  0  0
    4.5589   -2.9536   -3.1844 H   0  0  0  0  0  0  0  0  0  0  0  0
    4.7474   -1.6683   -4.3972 H   0  0  0  0  0  0  0  0  0  0  0  0
    2.7017   -0.1055   -3.3360 N   0  0  0  0  0  0  0  0  0  0  0  0
    1.4469    0.5365   -2.8941 C   0  0  2  0  0  0  0  0  0  0  0  0
    1.3444    0.6543   -1.3488 C   0  0  0  0  0  0  0  0  0  0  0  0
    2.2840    0.4318   -0.6004 O   0  0  0  0  0  0  0  0  0  0  0  0
    0.2249   -0.1626   -3.5195 C   0  0  0  0  0  0  0  0  0  0  0  0
    3.4907    0.5052   -3.5236 H   0  0  0  0  0  0  0  0  0  0  0  0
    1.4589    1.5598   -3.2815 H   0  0  0  0  0  0  0  0  0  0  0  0
   -0.0099   -1.0922   -2.9928 H   0  0  0  0  0  0  0  0  0  0  0  0
   -0.6576    0.4788   -3.4770 H   0  0  0  0  0  0  0  0  0  0  0  0
    0.4204   -0.3982   -4.5699 H   0  0  0  0  0  0  0  0  0  0  0  0
    0.2407    1.0980   -0.6577 N   0  0  0  0  0  0  0  0  0  0  0  0
   -0.4979    2.2954   -1.0865 C   0  0  2  0  0  0  0  0  0  0  0  0
    0.4063    3.5459   -1.0869 C   0  0  0  0  0  0  0  0  0  0  0  0
    0.3775    4.2896   -2.0570 O   0  0  0  0  0  0  0  0  0  0  0  0
   -1.7009    2.5246   -0.1487 C   0  0  0  0  0  0  0  0  0  0  0  0
   -2.9459    1.6848   -0.5106 C   0  0  0  0  0  0  0  0  0  0  0  0
   -4.1059    2.0915    0.4061 C   0  0  0  0  0  0  0  0  0  0  0  0
   -2.7124    0.1728   -0.3812 C   0  0  0  0  0  0  0  0  0  0  0  0
    0.3634    0.9688    0.3431 H   0  0  0  0  0  0  0  0  0  0  0  0
   -0.8761    2.1712   -2.1049 H   0  0  0  0  0  0  0  0  0  0  0  0
   -1.9866    3.5813   -0.2066 H   0  0  0  0  0  0  0  0  0  0  0  0
   -1.4066    2.3269    0.8877 H   0  0  0  0  0  0  0  0  0  0  0  0
   -3.2330    1.9038   -1.5448 H   0  0  0  0  0  0  0  0  0  0  0  0
   -3.8645    1.8794    1.4526 H   0  0  0  0  0  0  0  0  0  0  0  0
   -5.0136    1.5408    0.1405 H   0  0  0  0  0  0  0  0  0  0  0  0
   -4.3161    3.1610    0.3074 H   0  0  0  0  0  0  0  0  0  0  0  0
   -2.3006   -0.0723    0.6028 H   0  0  0  0  0  0  0  0  0  0  0  0
   -3.6538   -0.3708   -0.5077 H   0  0  0  0  0  0  0  0  0  0  0  0
   -2.0203   -0.1808   -1.1506 H   0  0  0  0  0  0  0  0  0  0  0  0
    1.2548    3.8010   -0.0220 N   0  0  0  0  0  0  0  0  0  0  0  0
    2.2858    4.8561    0.0608 C   0  0  2  0  0  0  0  0  0  0  0  0
    1.7479    6.3057    0.1138 C   0  0  0  0  0  0  0  0  0  0  0  0
    2.1144    7.0488    1.0144 O   0  0  0  0  0  0  0  0  0  0  0  0
    3.3212    4.6942   -1.0608 C   0  0  0  0  0  0  0  0  0  0  0  0
    1.2939    3.0704    0.6837 H   0  0  0  0  0  0  0  0  0  0  0  0
    2.8166    4.7028    1.0067 H   0  0  0  0  0  0  0  0  0  0  0  0
    2.8864    4.9185   -2.0390 H   0  0  0  0  0  0  0  0  0  0  0  0
    4.1603    5.3777   -0.8962 H   0  0  0  0  0  0  0  0  0  0  0  0
    3.7072    3.6702   -1.0757 H   0  0  0  0  0  0  0  0  0  0  0  0
    0.8718    6.7865   -0.8386 N   0  0  0  0  0  0  0  0  0  0  0  0
    0.3173    8.1331   -0.8354 C   0  0  0  0  0  0  0  0  0  0  0  0
    0.5698    6.1184   -1.5527 H   0  0  0  0  0  0  0  0  0  0  0  0
   -0.3176    8.2810   -1.7143 H   0  0  0  0  0  0  0  0  0  0  0  0
   -0.2885    8.2952    0.0619 H   0  0  0  0  0  0  0  0  0  0  0  0
    1.1191    8.8785   -0.8598 H   0  0  0  0  0  0  0  0  0  0  0  0
  1  2  2  0  0  0  0
  1  3  1  0  0  0  0
  1  7  1  0  0  0  0
  3  4  1  0  0  0  0
  3  5  1  0  0  0  0
  3  6  1  0  0  0  0
  7  8  1  0  0  0  0
  7 12  1  0  0  0  0
  8  9  1  0  0  0  0
  8 11  1  0  0  0  0
  8 13  1  0  0  0  0
  9 10  2  0  0  0  0
  9 17  1  0  0  0  0
 11 14  1  0  0  0  0
 11 15  1  0  0  0  0
 11 16  1  0  0  0  0
 17 18  1  0  0  0  0
 17 25  1  0  0  0  0
 18 19  1  0  0  0  0
 18 21  1  0  0  0  0
 18 26  1  0  0  0  0
 19 20  2  0  0  0  0
 19 36  1  0  0  0  0
 21 22  1  0  0  0  0
 21 27  1  0  0  0  0
 21 28  1  0  0  0  0
 22 23  1  0  0  0  0
 22 24  1  0  0  0  0
 22 29  1  0  0  0  0
 23 30  1  0  0  0  0
 23 31  1  0  0  0  0
 23 32  1  0  0  0  0
 24 33  1  0  0  0  0
 24 34  1  0  0  0  0
 24 35  1  0  0  0  0
 36 37  1  0  0  0  0
 36 41  1  0  0  0  0
 37 38  1  0  0  0  0
 37 40  1  0  0  0  0
 37 42  1  0  0  0  0
 38 39  2  0  0  0  0
 38 46  1  0  0  0  0
 40 43  1  0  0  0  0
 40 44  1  0  0  0  0
 40 45  1  0  0  0  0
 46 47  1  0  0  0  0
 46 48  1  0  0  0  0
 47 49  1  0  0  0  0
 47 50  1  0  0  0  0
 47 51  1  0  0  0  0
M  END
$$$$

  -OEChem-02062319103D

 51 50  0     1  0  0  0  0  0999 V2000
    3.1530   -1.4125   -3.0287 C   0  0  0  0  0  0  0  0  0  0  0  0
    2.3957   -2.2690   -2.6023 O   0  0  0  0  0  0  0  0  0  0  0  0
    4.6074   -1.7674   -3.2764 C   0  0  0  0  0  0  0  0  0  0  0  0
    5.2506   -1.1829   -2.6139 H   0  0  0  0  0  0  0  0  0  0  0  0
    4.7745   -2.8303   -3.0802 H   0  0  0  0  0  0  0  0  0  0  0  0
    4.8738   -1.5563   -4.3148 H   0  0  0  0  0  0  0  0  0  0  0  0
    2.7213   -0.1254   -3.3019 N   0  0  0  0  0  0  0  0  0  0  0  0
    1.4197    0.4419   -2.8918 C   0  0  2  0  0  0  0  0  0  0  0  0
    1.3101    0.6453   -1.3543 C   0  0  0  0  0  0  0  0  0  0  0  0
    2.2540    0.4776   -0.5975 O   0  0  0  0  0  0  0  0  0  0  0  0
    0.2604   -0.3967   -3.4633 C   0  0  0  0  0  0  0  0  0  0  0  0
    3.4626    0.5316   -3.5235 H   0  0  0  0  0  0  0  0  0  0  0  0
    1.3488    1.4343   -3.3465 H   0  0  0  0  0  0  0  0  0  0  0  0
    0.0752   -1.2821   -2.8474 H   0  0  0  0  0  0  0  0  0  0  0  0
   -0.6628    0.1834   -3.5057 H   0  0  0  0  0  0  0  0  0  0  0  0
    0.4946   -0.7239   -4.4808 H   0  0  0  0  0  0  0  0  0  0  0  0
    0.2274    1.1712   -0.6851 N   0  0  0  0  0  0  0  0  0  0  0  0
   -0.6936    2.1644   -1.2584 C   0  0  2  0  0  0  0  0  0  0  0  0
    0.0522    3.4569   -1.6491 C   0  0  0  0  0  0  0  0  0  0  0  0
   -0.1682    3.9615   -2.7406 O   0  0  0  0  0  0  0  0  0  0  0  0
   -1.8077    2.4833   -0.2409 C   0  0  0  0  0  0  0  0  0  0  0  0
   -2.9803    1.4770   -0.2672 C   0  0  0  0  0  0  0  0  0  0  0  0
   -4.0679    1.9498    0.7040 C   0  0  0  0  0  0  0  0  0  0  0  0
   -2.5615    0.0489    0.1089 C   0  0  0  0  0  0  0  0  0  0  0  0
    0.3741    1.1844    0.3211 H   0  0  0  0  0  0  0  0  0  0  0  0
   -1.1654    1.7765   -2.1638 H   0  0  0  0  0  0  0  0  0  0  0  0
   -2.2164    3.4733   -0.4740 H   0  0  0  0  0  0  0  0  0  0  0  0
   -1.3852    2.5384    0.7681 H   0  0  0  0  0  0  0  0  0  0  0  0
   -3.4070    1.4565   -1.2761 H   0  0  0  0  0  0  0  0  0  0  0  0
   -3.6866    1.9734    1.7300 H   0  0  0  0  0  0  0  0  0  0  0  0
   -4.9299    1.2760    0.6694 H   0  0  0  0  0  0  0  0  0  0  0  0
   -4.4102    2.9543    0.4364 H   0  0  0  0  0  0  0  0  0  0  0  0
   -2.0303    0.0402    1.0658 H   0  0  0  0  0  0  0  0  0  0  0  0
   -3.4417   -0.5957    0.1955 H   0  0  0  0  0  0  0  0  0  0  0  0
   -1.9121   -0.3803   -0.6593 H   0  0  0  0  0  0  0  0  0  0  0  0
    0.9765    4.0185   -0.7835 N   0  0  0  0  0  0  0  0  0  0  0  0
    1.8850    5.1507   -1.0608 C   0  0  2  0  0  0  0  0  0  0  0  0
    1.1996    6.5276   -1.2245 C   0  0  0  0  0  0  0  0  0  0  0  0
    1.6590    7.4976   -0.6368 O   0  0  0  0  0  0  0  0  0  0  0  0
    2.7873    4.8449   -2.2640 C   0  0  0  0  0  0  0  0  0  0  0  0
    1.1552    3.4847    0.0634 H   0  0  0  0  0  0  0  0  0  0  0  0
    2.5404    5.2481   -0.1889 H   0  0  0  0  0  0  0  0  0  0  0  0
    2.2167    4.8419   -3.1972 H   0  0  0  0  0  0  0  0  0  0  0  0
    3.5696    5.6059   -2.3473 H   0  0  0  0  0  0  0  0  0  0  0  0
    3.2659    3.8685   -2.1425 H   0  0  0  0  0  0  0  0  0  0  0  0
    0.0962    6.6950   -2.0371 N   0  0  0  0  0  0  0  0  0  0  0  0
   -0.5392    7.9801   -2.2937 C   0  0  0  0  0  0  0  0  0  0  0  0
   -0.2132    5.8680   -2.5540 H   0  0  0  0  0  0  0  0  0  0  0  0
    0.1577    8.6577   -2.7976 H   0  0  0  0  0  0  0  0  0  0  0  0
   -1.4174    7.8460   -2.9326 H   0  0  0  0  0  0  0  0  0  0  0  0
   -0.8623    8.4421   -1.3554 H   0  0  0  0  0  0  0  0  0  0  0  0
  1  2  2  0  0  0  0
  1  3  1  0  0  0  0
  1  7  1  0  0  0  0
  3  4  1  0  0  0  0
  3  5  1  0  0  0  0
  3  6  1  0  0  0  0
  7  8  1  0  0  0  0
  7 12  1  0  0  0  0
  8  9  1  0  0  0  0
  8 11  1  0  0  0  0
  8 13  1  0  0  0  0
  9 10  2  0  0  0  0
  9 17  1  0  0  0  0
 11 14  1  0  0  0  0
 11 15  1  0  0  0  0
 11 16  1  0  0  0  0
 17 18  1  0  0  0  0
 17 25  1  0  0  0  0
 18 19  1  0  0  0  0
 18 21  1  0  0  0  0
 18 26  1  0  0  0  0
 19 20  2  0  0  0  0
 19 36  1  0  0  0  0
 21 22  1  0  0  0  0
 21 27  1  0  0  0  0
 21 28  1  0  0  0  0
 22 23  1  0  0  0  0
 22 24  1  0  0  0  0
 22 29  1  0  0  0  0
 23 30  1  0  0  0  0
 23 31  1  0  0  0  0
 23 32  1  0  0  0  0
 24 33  1  0  0  0  0
 24 34  1  0  0  0  0
 24 35  1  0  0  0  0
 36 37  1  0  0  0  0
 36 41  1  0  0  0  0
 37 38  1  0  0  0  0
 37 40  1  0  0  0  0
 37 42  1  0  0  0  0
 38 39  2  0  0  0  0
 38 46  1  0  0  0  0
 40 43  1  0  0  0  0
 40 44  1  0  0  0  0
 40 45  1  0  0  0  0
 46 47  1  0  0  0  0
 46 48  1  0  0  0  0
 47 49  1  0  0  0  0
 47 50  1  0  0  0  0
 47 51  1  0  0  0  0
M  END
$$$$

  -OEChem-02062319103D

 51 50  0     1  0  0  0  0  0999 V2000
    3.0426   -1.5697   -2.8488 C   0  0  0  0  0  0  0  0  0  0  0  0
    2.0827   -2.2393   -2.5012 O   0  0  0  0  0  0  0  0  0  0  0  0
    4.4180   -2.2084   -2.9032 C   0  0  0  0  0  0  0  0  0  0  0  0
    5.0921   -1.7006   -2.2089 H   0  0  0  0  0  0  0  0  0  0  0  0
    4.3552   -3.2637   -2.6233 H   0  0  0  0  0  0  0  0  0  0  0  0
    4.8238   -2.1368   -3.9150 H   0  0  0  0  0  0  0  0  0  0  0  0
    2.9056   -0.2364   -3.1942 N   0  0  0  0  0  0  0  0  0  0  0  0
    1.6921    0.5686   -2.9478 C   0  0  2  0  0  0  0  0  0  0  0  0
    1.4483    0.7941   -1.4259 C   0  0  0  0  0  0  0  0  0  0  0  0
    2.3560    0.6784   -0.6158 O   0  0  0  0  0  0  0  0  0  0  0  0
    0.5008   -0.0398   -3.7102 C   0  0  0  0  0  0  0  0  0  0  0  0
    3.7813    0.2673   -3.2956 H   0  0  0  0  0  0  0  0  0  0  0  0
    1.8679    1.5575   -3.3815 H   0  0  0  0  0  0  0  0  0  0  0  0
   -0.0122   -0.7897   -3.0995 H   0  0  0  0  0  0  0  0  0  0  0  0
   -0.2139    0.7361   -3.9937 H   0  0  0  0  0  0  0  0  0  0  0  0
    0.8412   -0.5210   -4.6324 H   0  0  0  0  0  0  0  0  0  0  0  0
    0.3109    1.2800   -0.8161 N   0  0  0  0  0  0  0  0  0  0  0  0
   -0.8115    1.9748   -1.4612 C   0  0  2  0  0  0  0  0  0  0  0  0
   -0.3318    3.2667   -2.1524 C   0  0  0  0  0  0  0  0  0  0  0  0
   -0.6949    3.5057   -3.2949 O   0  0  0  0  0  0  0  0  0  0  0  0
   -1.8769    2.3244   -0.4007 C   0  0  0  0  0  0  0  0  0  0  0  0
   -2.8364    1.1591   -0.0689 C   0  0  0  0  0  0  0  0  0  0  0  0
   -3.9259    1.6611    0.8866 C   0  0  0  0  0  0  0  0  0  0  0  0
   -2.1270   -0.0427    0.5710 C   0  0  0  0  0  0  0  0  0  0  0  0
    0.3868    1.3107    0.1976 H   0  0  0  0  0  0  0  0  0  0  0  0
   -1.2832    1.3360   -2.2117 H   0  0  0  0  0  0  0  0  0  0  0  0
   -2.4831    3.1536   -0.7832 H   0  0  0  0  0  0  0  0  0  0  0  0
   -1.3891    2.6777    0.5141 H   0  0  0  0  0  0  0  0  0  0  0  0
   -3.3200    0.8235   -0.9930 H   0  0  0  0  0  0  0  0  0  0  0  0
   -3.4870    2.0004    1.8302 H   0  0  0  0  0  0  0  0  0  0  0  0
   -4.6408    0.8613    1.1044 H   0  0  0  0  0  0  0  0  0  0  0  0
   -4.4755    2.4949    0.4385 H   0  0  0  0  0  0  0  0  0  0  0  0
   -1.5284    0.2740    1.4308 H   0  0  0  0  0  0  0  0  0  0  0  0
   -2.8598   -0.7804    0.9127 H   0  0  0  0  0  0  0  0  0  0  0  0
   -1.4727   -0.5381   -0.1521 H   0  0  0  0  0  0  0  0  0  0  0  0
    0.5367    4.1205   -1.4925 N   0  0  0  0  0  0  0  0  0  0  0  0
    1.2235    5.3044   -2.0492 C   0  0  2  0  0  0  0  0  0  0  0  0
    0.3068    6.4979   -2.4080 C   0  0  0  0  0  0  0  0  0  0  0  0
    0.6300    7.6255   -2.0594 O   0  0  0  0  0  0  0  0  0  0  0  0
    2.1028    4.9131   -3.2446 C   0  0  0  0  0  0  0  0  0  0  0  0
    0.8346    3.8045   -0.5727 H   0  0  0  0  0  0  0  0  0  0  0  0
    1.8959    5.6730   -1.2676 H   0  0  0  0  0  0  0  0  0  0  0  0
    1.4951    4.6118   -4.1029 H   0  0  0  0  0  0  0  0  0  0  0  0
    2.7209    5.7637   -3.5485 H   0  0  0  0  0  0  0  0  0  0  0  0
    2.7647    4.0849   -2.9748 H   0  0  0  0  0  0  0  0  0  0  0  0
   -0.8543    6.3264   -3.1347 N   0  0  0  0  0  0  0  0  0  0  0  0
   -1.7106    7.4199   -3.5729 C   0  0  0  0  0  0  0  0  0  0  0  0
   -1.0487    5.3747   -3.4566 H   0  0  0  0  0  0  0  0  0  0  0  0
   -2.5886    7.0252   -4.0932 H   0  0  0  0  0  0  0  0  0  0  0  0
   -2.0530    8.0073   -2.7146 H   0  0  0  0  0  0  0  0  0  0  0  0
   -1.1683    8.0802   -4.2578 H   0  0  0  0  0  0  0  0  0  0  0  0
  1  2  2  0  0  0  0
  1  3  1  0  0  0  0
  1  7  1  0  0  0  0
  3  4  1  0  0  0  0
  3  5  1  0  0  0  0
  3  6  1  0  0  0  0
  7  8  1  0  0  0  0
  7 12  1  0  0  0  0
  8  9  1  0  0  0  0
  8 11  1  0  0  0  0
  8 13  1  0  0  0  0
  9 10  2  0  0  0  0
  9 17  1  0  0  0  0
 11 14  1  0  0  0  0
 11 15  1  0  0  0  0
 11 16  1  0  0  0  0
 17 18  1  0  0  0  0
 17 25  1  0  0  0  0
 18 19  1  0  0  0  0
 18 21  1  0  0  0  0
 18 26  1  0  0  0  0
 19 20  2  0  0  0  0
 19 36  1  0  0  0  0
 21 22  1  0  0  0  0
 21 27  1  0  0  0  0
 21 28  1  0  0  0  0
 22 23  1  0  0  0  0
 22 24  1  0  0  0  0
 22 29  1  0  0  0  0
 23 30  1  0  0  0  0
 23 31  1  0  0  0  0
 23 32  1  0  0  0  0
 24 33  1  0  0  0  0
 24 34  1  0  0  0  0
 24 35  1  0  0  0  0
 36 37  1  0  0  0  0
 36 41  1  0  0  0  0
 37 38  1  0  0  0  0
 37 40  1  0  0  0  0
 37 42  1  0  0  0  0
 38 39  2  0  0  0  0
 38 46  1  0  0  0  0
 40 43  1  0  0  0  0
 40 44  1  0  0  0  0
 40 45  1  0  0  0  0
 46 47  1  0  0  0  0
 46 48  1  0  0  0  0
 47 49  1  0  0  0  0
 47 50  1  0  0  0  0
 47 51  1  0  0  0  0
M  END
$$$$

  -OEChem-02062319103D

 51 50  0     1  0  0  0  0  0999 V2000
    3.2736   -1.5196   -2.7390 C   0  0  0  0  0  0  0  0  0  0  0  0
    2.4039   -2.2943   -2.3734 O   0  0  0  0  0  0  0  0  0  0  0  0
    4.7229   -1.9682   -2.7218 C   0  0  0  0  0  0  0  0  0  0  0  0
    5.2958   -1.3444   -2.0312 H   0  0  0  0  0  0  0  0  0  0  0  0
    4.7917   -3.0096   -2.3942 H   0  0  0  0  0  0  0  0  0  0  0  0
    5.1533   -1.8853   -3.7226 H   0  0  0  0  0  0  0  0  0  0  0  0
    2.9735   -0.2347   -3.1592 N   0  0  0  0  0  0  0  0  0  0  0  0
    1.6693    0.4283   -2.9540 C   0  0  2  0  0  0  0  0  0  0  0  0
    1.3893    0.7044   -1.4466 C   0  0  0  0  0  0  0  0  0  0  0  0
    2.2822    0.6487   -0.6143 O   0  0  0  0  0  0  0  0  0  0  0  0
    0.5593   -0.3700   -3.6642 C   0  0  0  0  0  0  0  0  0  0  0  0
    3.7818    0.3679   -3.2774 H   0  0  0  0  0  0  0  0  0  0  0  0
    1.7229    1.4031   -3.4467 H   0  0  0  0  0  0  0  0  0  0  0  0
    0.1786   -1.1694   -3.0209 H   0  0  0  0  0  0  0  0  0  0  0  0
   -0.2738    0.2784   -3.9414 H   0  0  0  0  0  0  0  0  0  0  0  0
    0.9431   -0.8198   -4.5849 H   0  0  0  0  0  0  0  0  0  0  0  0
    0.2527    1.2569   -0.8945 N   0  0  0  0  0  0  0  0  0  0  0  0
   -0.9607    1.7169   -1.5831 C   0  0  2  0  0  0  0  0  0  0  0  0
   -0.6461    2.8397   -2.5918 C   0  0  0  0  0  0  0  0  0  0  0  0
   -1.1572    2.8164   -3.7019 O   0  0  0  0  0  0  0  0  0  0  0  0
   -1.9740    2.2366   -0.5421 C   0  0  0  0  0  0  0  0  0  0  0  0
   -2.8091    1.1253    0.1327 C   0  0  0  0  0  0  0  0  0  0  0  0
   -3.8638    1.7737    1.0375 C   0  0  0  0  0  0  0  0  0  0  0  0
   -1.9637    0.1546    0.9697 C   0  0  0  0  0  0  0  0  0  0  0  0
    0.2959    1.3275    0.1196 H   0  0  0  0  0  0  0  0  0  0  0  0
   -1.4230    0.8884   -2.1283 H   0  0  0  0  0  0  0  0  0  0  0  0
   -2.6723    2.9120   -1.0495 H   0  0  0  0  0  0  0  0  0  0  0  0
   -1.4527    2.8262    0.2199 H   0  0  0  0  0  0  0  0  0  0  0  0
   -3.3282    0.5513   -0.6428 H   0  0  0  0  0  0  0  0  0  0  0  0
   -3.3865    2.3514    1.8355 H   0  0  0  0  0  0  0  0  0  0  0  0
   -4.4979    1.0078    1.4950 H   0  0  0  0  0  0  0  0  0  0  0  0
   -4.5059    2.4445    0.4582 H   0  0  0  0  0  0  0  0  0  0  0  0
   -1.3349    0.7012    1.6797 H   0  0  0  0  0  0  0  0  0  0  0  0
   -2.6105   -0.5251    1.5336 H   0  0  0  0  0  0  0  0  0  0  0  0
   -1.3238   -0.4572    0.3273 H   0  0  0  0  0  0  0  0  0  0  0  0
    0.1938    3.8774   -2.2217 N   0  0  0  0  0  0  0  0  0  0  0  0
    0.6155    5.0290   -3.0458 C   0  0  2  0  0  0  0  0  0  0  0  0
   -0.5203    6.0106   -3.4191 C   0  0  0  0  0  0  0  0  0  0  0  0
   -0.3995    7.1978   -3.1485 O   0  0  0  0  0  0  0  0  0  0  0  0
    1.3738    4.5643   -4.2966 C   0  0  0  0  0  0  0  0  0  0  0  0
    0.5754    3.8115   -1.2805 H   0  0  0  0  0  0  0  0  0  0  0  0
    1.3239    5.6076   -2.4433 H   0  0  0  0  0  0  0  0  0  0  0  0
    0.7121    4.0394   -4.9917 H   0  0  0  0  0  0  0  0  0  0  0  0
    1.7981    5.4282   -4.8180 H   0  0  0  0  0  0  0  0  0  0  0  0
    2.1924    3.8942   -4.0180 H   0  0  0  0  0  0  0  0  0  0  0  0
   -1.6723    5.5753   -4.0436 N   0  0  0  0  0  0  0  0  0  0  0  0
   -2.7972    6.4377   -4.3767 C   0  0  0  0  0  0  0  0  0  0  0  0
   -1.7461    4.5672   -4.2052 H   0  0  0  0  0  0  0  0  0  0  0  0
   -3.5601    5.8699   -4.9179 H   0  0  0  0  0  0  0  0  0  0  0  0
   -3.2485    6.8463   -3.4666 H   0  0  0  0  0  0  0  0  0  0  0  0
   -2.4703    7.2670   -5.0125 H   0  0  0  0  0  0  0  0  0  0  0  0
  1  2  2  0  0  0  0
  1  3  1  0  0  0  0
  1  7  1  0  0  0  0
  3  4  1  0  0  0  0
  3  5  1  0  0  0  0
  3  6  1  0  0  0  0
  7  8  1  0  0  0  0
  7 12  1  0  0  0  0
  8  9  1  0  0  0  0
  8 11  1  0  0  0  0
  8 13  1  0  0  0  0
  9 10  2  0  0  0  0
  9 17  1  0  0  0  0
 11 14  1  0  0  0  0
 11 15  1  0  0  0  0
 11 16  1  0  0  0  0
 17 18  1  0  0  0  0
 17 25  1  0  0  0  0
 18 19  1  0  0  0  0
 18 21  1  0  0  0  0
 18 26  1  0  0  0  0
 19 20  2  0  0  0  0
 19 36  1  0  0  0  0
 21 22  1  0  0  0  0
 21 27  1  0  0  0  0
 21 28  1  0  0  0  0
 22 23  1  0  0  0  0
 22 24  1  0  0  0  0
 22 29  1  0  0  0  0
 23 30  1  0  0  0  0
 23 31  1  0  0  0  0
 23 32  1  0  0  0  0
 24 33  1  0  0  0  0
 24 34  1  0  0  0  0
 24 35  1  0  0  0  0
 36 37  1  0  0  0  0
 36 41  1  0  0  0  0
 37 38  1  0  0  0  0
 37 40  1  0  0  0  0
 37 42  1  0  0  0  0
 38 39  2  0  0  0  0
 38 46  1  0  0  0  0
 40 43  1  0  0  0  0
 40 44  1  0  0  0  0
 40 45  1  0  0  0  0
 46 47  1  0  0  0  0
 46 48  1  0  0  0  0
 47 49  1  0  0  0  0
 47 50  1  0  0  0  0
 47 51  1  0  0  0  0
M  END
$$$$

  -OEChem-02062319103D

 51 50  0     1  0  0  0  0  0999 V2000
    3.5427   -1.3479   -2.6729 C   0  0  0  0  0  0  0  0  0  0  0  0
    2.8472   -2.2514   -2.2385 O   0  0  0  0  0  0  0  0  0  0  0  0
    5.0493   -1.5234   -2.7077 C   0  0  0  0  0  0  0  0  0  0  0  0
    5.5243   -0.7749   -2.0688 H   0  0  0  0  0  0  0  0  0  0  0  0
    5.3220   -2.5187   -2.3455 H   0  0  0  0  0  0  0  0  0  0  0  0
    5.4165   -1.4088   -3.7303 H   0  0  0  0  0  0  0  0  0  0  0  0
    2.9978   -0.1628   -3.1382 N   0  0  0  0  0  0  0  0  0  0  0  0
    1.6023    0.2731   -2.9199 C   0  0  2  0  0  0  0  0  0  0  0  0
    1.3087    0.6113   -1.4291 C   0  0  0  0  0  0  0  0  0  0  0  0
    2.2013    0.6405   -0.5959 O   0  0  0  0  0  0  0  0  0  0  0  0
    0.6211   -0.7604   -3.5053 C   0  0  0  0  0  0  0  0  0  0  0  0
    3.6804    0.5636   -3.3303 H   0  0  0  0  0  0  0  0  0  0  0  0
    1.4710    1.1963   -3.4886 H   0  0  0  0  0  0  0  0  0  0  0  0
    0.4723   -1.5961   -2.8148 H   0  0  0  0  0  0  0  0  0  0  0  0
   -0.3524   -0.3114   -3.7063 H   0  0  0  0  0  0  0  0  0  0  0  0
    1.0054   -1.1552   -4.4508 H   0  0  0  0  0  0  0  0  0  0  0  0
    0.1795    1.2210   -0.9224 N   0  0  0  0  0  0  0  0  0  0  0  0
   -1.1214    1.4307   -1.5756 C   0  0  2  0  0  0  0  0  0  0  0  0
   -1.0080    2.2841   -2.8552 C   0  0  0  0  0  0  0  0  0  0  0  0
   -1.6618    1.9865   -3.8441 O   0  0  0  0  0  0  0  0  0  0  0  0
   -2.0857    2.1193   -0.5868 C   0  0  0  0  0  0  0  0  0  0  0  0
   -2.7666    1.1511    0.4065 C   0  0  0  0  0  0  0  0  0  0  0  0
   -3.7867    1.9319    1.2439 C   0  0  0  0  0  0  0  0  0  0  0  0
   -1.7779    0.4532    1.3516 C   0  0  0  0  0  0  0  0  0  0  0  0
    0.2343    1.3536    0.0852 H   0  0  0  0  0  0  0  0  0  0  0  0
   -1.5480    0.4632   -1.8616 H   0  0  0  0  0  0  0  0  0  0  0  0
   -2.8783    2.6098   -1.1637 H   0  0  0  0  0  0  0  0  0  0  0  0
   -1.5544    2.9045   -0.0381 H   0  0  0  0  0  0  0  0  0  0  0  0
   -3.3045    0.3831   -0.1604 H   0  0  0  0  0  0  0  0  0  0  0  0
   -3.2899    2.7096    1.8331 H   0  0  0  0  0  0  0  0  0  0  0  0
   -4.3126    1.2600    1.9298 H   0  0  0  0  0  0  0  0  0  0  0  0
   -4.5305    2.4073    0.5969 H   0  0  0  0  0  0  0  0  0  0  0  0
   -1.1359    1.1855    1.8509 H   0  0  0  0  0  0  0  0  0  0  0  0
   -2.3184   -0.1111    2.1183 H   0  0  0  0  0  0  0  0  0  0  0  0
   -1.1495   -0.2549    0.8038 H   0  0  0  0  0  0  0  0  0  0  0  0
   -0.2318    3.4314   -2.8415 N   0  0  0  0  0  0  0  0  0  0  0  0
   -0.0459    4.4039   -3.9390 C   0  0  2  0  0  0  0  0  0  0  0  0
   -1.3087    5.2184   -4.3050 C   0  0  0  0  0  0  0  0  0  0  0  0
   -1.2325    6.4369   -4.3860 O   0  0  0  0  0  0  0  0  0  0  0  0
    0.5467    3.7338   -5.1867 C   0  0  0  0  0  0  0  0  0  0  0  0
    0.2412    3.6225   -1.9608 H   0  0  0  0  0  0  0  0  0  0  0  0
    0.6916    5.1353   -3.5921 H   0  0  0  0  0  0  0  0  0  0  0  0
   -0.1659    3.0406   -5.6432 H   0  0  0  0  0  0  0  0  0  0  0  0
    0.8043    4.4936   -5.9314 H   0  0  0  0  0  0  0  0  0  0  0  0
    1.4557    3.1829   -4.9298 H   0  0  0  0  0  0  0  0  0  0  0  0
   -2.5180    4.5993   -4.5512 N   0  0  0  0  0  0  0  0  0  0  0  0
   -3.7292    5.3011   -4.9532 C   0  0  0  0  0  0  0  0  0  0  0  0
   -2.5194    3.5769   -4.5070 H   0  0  0  0  0  0  0  0  0  0  0  0
   -3.5853    5.7865   -5.9240 H   0  0  0  0  0  0  0  0  0  0  0  0
   -4.5623    4.5966   -5.0375 H   0  0  0  0  0  0  0  0  0  0  0  0
   -3.9958    6.0630   -4.2133 H   0  0  0  0  0  0  0  0  0  0  0  0
  1  2  2  0  0  0  0
  1  3  1  0  0  0  0
  1  7  1  0  0  0  0
  3  4  1  0  0  0  0
  3  5  1  0  0  0  0
  3  6  1  0  0  0  0
  7  8  1  0  0  0  0
  7 12  1  0  0  0  0
  8  9  1  0  0  0  0
  8 11  1  0  0  0  0
  8 13  1  0  0  0  0
  9 10  2  0  0  0  0
  9 17  1  0  0  0  0
 11 14  1  0  0  0  0
 11 15  1  0  0  0  0
 11 16  1  0  0  0  0
 17 18  1  0  0  0  0
 17 25  1  0  0  0  0
 18 19  1  0  0  0  0
 18 21  1  0  0  0  0
 18 26  1  0  0  0  0
 19 20  2  0  0  0  0
 19 36  1  0  0  0  0
 21 22  1  0  0  0  0
 21 27  1  0  0  0  0
 21 28  1  0  0  0  0
 22 23  1  0  0  0  0
 22 24  1  0  0  0  0
 22 29  1  0  0  0  0
 23 30  1  0  0  0  0
 23 31  1  0  0  0  0
 23 32  1  0  0  0  0
 24 33  1  0  0  0  0
 24 34  1  0  0  0  0
 24 35  1  0  0  0  0
 36 37  1  0  0  0  0
 36 41  1  0  0  0  0
 37 38  1  0  0  0  0
 37 40  1  0  0  0  0
 37 42  1  0  0  0  0
 38 39  2  0  0  0  0
 38 46  1  0  0  0  0
 40 43  1  0  0  0  0
 40 44  1  0  0  0  0
 40 45  1  0  0  0  0
 46 47  1  0  0  0  0
 46 48  1  0  0  0  0
 47 49  1  0  0  0  0
 47 50  1  0  0  0  0
 47 51  1  0  0  0  0
M  END
$$$$

  -OEChem-02062319103D

 51 50  0     1  0  0  0  0  0999 V2000
    3.7491   -1.1284   -2.6880 C   0  0  0  0  0  0  0  0  0  0  0  0
    3.2202   -2.1349   -2.2460 O   0  0  0  0  0  0  0  0  0  0  0  0
    5.2634   -1.0567   -2.7473 C   0  0  0  0  0  0  0  0  0  0  0  0
    5.6220   -0.2435   -2.1115 H   0  0  0  0  0  0  0  0  0  0  0  0
    5.6996   -1.9958   -2.3951 H   0  0  0  0  0  0  0  0  0  0  0  0
    5.5899   -0.8809   -3.7750 H   0  0  0  0  0  0  0  0  0  0  0  0
    3.0127   -0.0484   -3.1462 N   0  0  0  0  0  0  0  0  0  0  0  0
    1.5692    0.1687   -2.9083 C   0  0  2  0  0  0  0  0  0  0  0  0
    1.2418    0.5055   -1.4253 C   0  0  0  0  0  0  0  0  0  0  0  0
    2.1282    0.5999   -0.5907 O   0  0  0  0  0  0  0  0  0  0  0  0
    0.7447   -1.0250   -3.4275 C   0  0  0  0  0  0  0  0  0  0  0  0
    3.5694    0.7743   -3.3542 H   0  0  0  0  0  0  0  0  0  0  0  0
    1.2882    1.0377   -3.5051 H   0  0  0  0  0  0  0  0  0  0  0  0
    0.7864   -1.8665   -2.7298 H   0  0  0  0  0  0  0  0  0  0  0  0
   -0.3042   -0.7572   -3.5570 H   0  0  0  0  0  0  0  0  0  0  0  0
    1.1286   -1.3567   -4.3970 H   0  0  0  0  0  0  0  0  0  0  0  0
    0.1126    1.1396   -0.9483 N   0  0  0  0  0  0  0  0  0  0  0  0
   -1.2480    1.1267   -1.5109 C   0  0  2  0  0  0  0  0  0  0  0  0
   -1.3308    1.6956   -2.9414 C   0  0  0  0  0  0  0  0  0  0  0  0
   -2.0567    1.1633   -3.7682 O   0  0  0  0  0  0  0  0  0  0  0  0
   -2.1878    1.9277   -0.5856 C   0  0  0  0  0  0  0  0  0  0  0  0
   -2.7064    1.1273    0.6303 C   0  0  0  0  0  0  0  0  0  0  0  0
   -3.7231    1.9860    1.3920 C   0  0  0  0  0  0  0  0  0  0  0  0
   -1.5938    0.6971    1.5975 C   0  0  0  0  0  0  0  0  0  0  0  0
    0.1988    1.3374    0.0466 H   0  0  0  0  0  0  0  0  0  0  0  0
   -1.6039    0.0914   -1.5612 H   0  0  0  0  0  0  0  0  0  0  0  0
   -3.0609    2.2429   -1.1688 H   0  0  0  0  0  0  0  0  0  0  0  0
   -1.6830    2.8384   -0.2452 H   0  0  0  0  0  0  0  0  0  0  0  0
   -3.2183    0.2281    0.2700 H   0  0  0  0  0  0  0  0  0  0  0  0
   -3.2493    2.8935    1.7801 H   0  0  0  0  0  0  0  0  0  0  0  0
   -4.1423    1.4260    2.2340 H   0  0  0  0  0  0  0  0  0  0  0  0
   -4.5477    2.2781    0.7340 H   0  0  0  0  0  0  0  0  0  0  0  0
   -0.9761    1.5541    1.8841 H   0  0  0  0  0  0  0  0  0  0  0  0
   -2.0254    0.2643    2.5055 H   0  0  0  0  0  0  0  0  0  0  0  0
   -0.9550   -0.0647    1.1418 H   0  0  0  0  0  0  0  0  0  0  0  0
   -0.6635    2.8716   -3.2418 N   0  0  0  0  0  0  0  0  0  0  0  0
   -0.7052    3.6254   -4.5119 C   0  0  2  0  0  0  0  0  0  0  0  0
   -2.0806    4.2510   -4.8394 C   0  0  0  0  0  0  0  0  0  0  0  0
   -2.1633    5.4597   -5.0107 O   0  0  0  0  0  0  0  0  0  0  0  0
   -0.1972    2.7781   -5.6873 C   0  0  0  0  0  0  0  0  0  0  0  0
   -0.1505    3.2868   -2.4670 H   0  0  0  0  0  0  0  0  0  0  0  0
   -0.0108    4.4656   -4.4058 H   0  0  0  0  0  0  0  0  0  0  0  0
   -0.8789    1.9520   -5.9087 H   0  0  0  0  0  0  0  0  0  0  0  0
   -0.1137    3.3984   -6.5854 H   0  0  0  0  0  0  0  0  0  0  0  0
    0.7901    2.3655   -5.4625 H   0  0  0  0  0  0  0  0  0  0  0  0
   -3.2190    3.4750   -4.9300 N   0  0  0  0  0  0  0  0  0  0  0  0
   -4.5496    4.0072   -5.1868 C   0  0  0  0  0  0  0  0  0  0  0  0
   -3.1076    2.4811   -4.7116 H   0  0  0  0  0  0  0  0  0  0  0  0
   -5.2695    3.1896   -5.2885 H   0  0  0  0  0  0  0  0  0  0  0  0
   -4.8683    4.6518   -4.3613 H   0  0  0  0  0  0  0  0  0  0  0  0
   -4.5569    4.5900   -6.1138 H   0  0  0  0  0  0  0  0  0  0  0  0
  1  2  2  0  0  0  0
  1  3  1  0  0  0  0
  1  7  1  0  0  0  0
  3  4  1  0  0  0  0
  3  5  1  0  0  0  0
  3  6  1  0  0  0  0
  7  8  1  0  0  0  0
  7 12  1  0  0  0  0
  8  9  1  0  0  0  0
  8 11  1  0  0  0  0
  8 13  1  0  0  0  0
  9 10  2  0  0  0  0
  9 17  1  0  0  0  0
 11 14  1  0  0  0  0
 11 15  1  0  0  0  0
 11 16  1  0  0  0  0
 17 18  1  0  0  0  0
 17 25  1  0  0  0  0
 18 19  1  0  0  0  0
 18 21  1  0  0  0  0
 18 26  1  0  0  0  0
 19 20  2  0  0  0  0
 19 36  1  0  0  0  0
 21 22  1  0  0  0  0
 21 27  1  0  0  0  0
 21 28  1  0  0  0  0
 22 23  1  0  0  0  0
 22 24  1  0  0  0  0
 22 29  1  0  0  0  0
 23 30  1  0  0  0  0
 23 31  1  0  0  0  0
 23 32  1  0  0  0  0
 24 33  1  0  0  0  0
 24 34  1  0  0  0  0
 24 35  1  0  0  0  0
 36 37  1  0  0  0  0
 36 41  1  0  0  0  0
 37 38  1  0  0  0  0
 37 40  1  0  0  0  0
 37 42  1  0  0  0  0
 38 39  2  0  0  0  0
 38 46  1  0  0  0  0
 40 43  1  0  0  0  0
 40 44  1  0  0  0  0
 40 45  1  0  0  0  0
 46 47  1  0  0  0  0
 46 48  1  0  0  0  0
 47 49  1  0  0  0  0
 47 50  1  0  0  0  0
 47 51  1  0  0  0  0
M  END
$$$$

  -OEChem-02062319103D

 51 50  0     1  0  0  0  0  0999 V2000
    3.9135   -0.9023   -2.7022 C   0  0  0  0  0  0  0  0  0  0  0  0
    3.5292   -1.9719   -2.2596 O   0  0  0  0  0  0  0  0  0  0  0  0
    5.4042   -0.6263   -2.7660 C   0  0  0  0  0  0  0  0  0  0  0  0
    5.6529    0.2219   -2.1233 H   0  0  0  0  0  0  0  0  0  0  0  0
    5.9645   -1.5014   -2.4245 H   0  0  0  0  0  0  0  0  0  0  0  0
    5.6996   -0.3987   -3.7929 H   0  0  0  0  0  0  0  0  0  0  0  0
    3.0372    0.0692   -3.1587 N   0  0  0  0  0  0  0  0  0  0  0  0
    1.5789    0.1011   -2.9080 C   0  0  2  0  0  0  0  0  0  0  0  0
    1.2260    0.4470   -1.4329 C   0  0  0  0  0  0  0  0  0  0  0  0
    2.1104    0.6197   -0.6088 O   0  0  0  0  0  0  0  0  0  0  0  0
    0.9126   -1.2087   -3.3717 C   0  0  0  0  0  0  0  0  0  0  0  0
    3.4814    0.9591   -3.3605 H   0  0  0  0  0  0  0  0  0  0  0  0
    1.1809    0.9030   -3.5313 H   0  0  0  0  0  0  0  0  0  0  0  0
    1.0626   -2.0073   -2.6392 H   0  0  0  0  0  0  0  0  0  0  0  0
   -0.1617   -1.0843   -3.5056 H   0  0  0  0  0  0  0  0  0  0  0  0
    1.3341   -1.5304   -4.3290 H   0  0  0  0  0  0  0  0  0  0  0  0
    0.0931    1.0891   -0.9754 N   0  0  0  0  0  0  0  0  0  0  0  0
   -1.3043    0.8452   -1.3755 C   0  0  2  0  0  0  0  0  0  0  0  0
   -1.5973    1.0683   -2.8716 C   0  0  0  0  0  0  0  0  0  0  0  0
   -2.3535    0.3106   -3.4621 O   0  0  0  0  0  0  0  0  0  0  0  0
   -2.2300    1.7561   -0.5407 C   0  0  0  0  0  0  0  0  0  0  0  0
   -2.5781    1.1914    0.8543 C   0  0  0  0  0  0  0  0  0  0  0  0
   -3.5944    2.1222    1.5269 C   0  0  0  0  0  0  0  0  0  0  0  0
   -1.3573    1.0396    1.7730 C   0  0  0  0  0  0  0  0  0  0  0  0
    0.2323    1.3769   -0.0085 H   0  0  0  0  0  0  0  0  0  0  0  0
   -1.5535   -0.2010   -1.1641 H   0  0  0  0  0  0  0  0  0  0  0  0
   -3.1722    1.8866   -1.0857 H   0  0  0  0  0  0  0  0  0  0  0  0
   -1.7782    2.7491   -0.4397 H   0  0  0  0  0  0  0  0  0  0  0  0
   -3.0428    0.2069    0.7312 H   0  0  0  0  0  0  0  0  0  0  0  0
   -3.1648    3.1176    1.6792 H   0  0  0  0  0  0  0  0  0  0  0  0
   -3.8954    1.7214    2.5000 H   0  0  0  0  0  0  0  0  0  0  0  0
   -4.4918    2.2216    0.9082 H   0  0  0  0  0  0  0  0  0  0  0  0
   -0.7953    1.9772    1.8290 H   0  0  0  0  0  0  0  0  0  0  0  0
   -1.6750    0.7667    2.7843 H   0  0  0  0  0  0  0  0  0  0  0  0
   -0.6939    0.2486    1.4118 H   0  0  0  0  0  0  0  0  0  0  0  0
   -1.0971    2.1971   -3.4989 N   0  0  0  0  0  0  0  0  0  0  0  0
   -1.3768    2.6482   -4.8775 C   0  0  2  0  0  0  0  0  0  0  0  0
   -2.8430    3.0750   -5.1227 C   0  0  0  0  0  0  0  0  0  0  0  0
   -3.0815    4.2215   -5.4770 O   0  0  0  0  0  0  0  0  0  0  0  0
   -0.9262    1.6050   -5.9101 C   0  0  0  0  0  0  0  0  0  0  0  0
   -0.5756    2.8292   -2.8956 H   0  0  0  0  0  0  0  0  0  0  0  0
   -0.7703    3.5438   -5.0492 H   0  0  0  0  0  0  0  0  0  0  0  0
   -1.5406    0.7015   -5.8604 H   0  0  0  0  0  0  0  0  0  0  0  0
   -1.0127    2.0183   -6.9201 H   0  0  0  0  0  0  0  0  0  0  0  0
    0.1176    1.3262   -5.7407 H   0  0  0  0  0  0  0  0  0  0  0  0
   -3.8890    2.1960   -4.9232 N   0  0  0  0  0  0  0  0  0  0  0  0
   -5.2936    2.5547   -5.0636 C   0  0  0  0  0  0  0  0  0  0  0  0
   -3.6410    1.2812   -4.5361 H   0  0  0  0  0  0  0  0  0  0  0  0
   -5.9234    1.6696   -4.9318 H   0  0  0  0  0  0  0  0  0  0  0  0
   -5.5758    3.2980   -4.3109 H   0  0  0  0  0  0  0  0  0  0  0  0
   -5.4863    2.9691   -6.0588 H   0  0  0  0  0  0  0  0  0  0  0  0
  1  2  2  0  0  0  0
  1  3  1  0  0  0  0
  1  7  1  0  0  0  0
  3  4  1  0  0  0  0
  3  5  1  0  0  0  0
  3  6  1  0  0  0  0
  7  8  1  0  0  0  0
  7 12  1  0  0  0  0
  8  9  1  0  0  0  0
  8 11  1  0  0  0  0
  8 13  1  0  0  0  0
  9 10  2  0  0  0  0
  9 17  1  0  0  0  0
 11 14  1  0  0  0  0
 11 15  1  0  0  0  0
 11 16  1  0  0  0  0
 17 18  1  0  0  0  0
 17 25  1  0  0  0  0
 18 19  1  0  0  0  0
 18 21  1  0  0  0  0
 18 26  1  0  0  0  0
 19 20  2  0  0  0  0
 19 36  1  0  0  0  0
 21 22  1  0  0  0  0
 21 27  1  0  0  0  0
 21 28  1  0  0  0  0
 22 23  1  0  0  0  0
 22 24  1  0  0  0  0
 22 29  1  0  0  0  0
 23 30  1  0  0  0  0
 23 31  1  0  0  0  0
 23 32  1  0  0  0  0
 24 33  1  0  0  0  0
 24 34  1  0  0  0  0
 24 35  1  0  0  0  0
 36 37  1  0  0  0  0
 36 41  1  0  0  0  0
 37 38  1  0  0  0  0
 37 40  1  0  0  0  0
 37 42  1  0  0  0  0
 38 39  2  0  0  0  0
 38 46  1  0  0  0  0
 40 43  1  0  0  0  0
 40 44  1  0  0  0  0
 40 45  1  0  0  0  0
 46 47  1  0  0  0  0
 46 48  1  0  0  0  0
 47 49  1  0  0  0  0
 47 50  1  0  0  0  0
 47 51  1  0  0  0  0
M  END
$$$$

  -OEChem-02062319103D

 51 50  0     1  0  0  0  0  0999 V2000
    3.9792   -0.6601   -2.8286 C   0  0  0  0  0  0  0  0  0  0  0  0
    3.7504   -1.7768   -2.3945 O   0  0  0  0  0  0  0  0  0  0  0  0
    5.4209   -0.2019   -2.9504 C   0  0  0  0  0  0  0  0  0  0  0  0
    5.5891    0.6675   -2.3097 H   0  0  0  0  0  0  0  0  0  0  0  0
    6.0986   -1.0026   -2.6401 H   0  0  0  0  0  0  0  0  0  0  0  0
    5.6441    0.0656   -3.9861 H   0  0  0  0  0  0  0  0  0  0  0  0
    2.9716    0.2035   -3.2288 N   0  0  0  0  0  0  0  0  0  0  0  0
    1.5316    0.0603   -2.9157 C   0  0  2  0  0  0  0  0  0  0  0  0
    1.1966    0.3932   -1.4330 C   0  0  0  0  0  0  0  0  0  0  0  0
    2.0954    0.6221   -0.6389 O   0  0  0  0  0  0  0  0  0  0  0  0
    1.0122   -1.3300   -3.3288 C   0  0  0  0  0  0  0  0  0  0  0  0
    3.2972    1.1416   -3.4384 H   0  0  0  0  0  0  0  0  0  0  0  0
    1.0139    0.7941   -3.5354 H   0  0  0  0  0  0  0  0  0  0  0  0
    1.2712   -2.0845   -2.5799 H   0  0  0  0  0  0  0  0  0  0  0  0
   -0.0713   -1.3349   -3.4400 H   0  0  0  0  0  0  0  0  0  0  0  0
    1.4475   -1.6272   -4.2878 H   0  0  0  0  0  0  0  0  0  0  0  0
    0.0709    1.0435   -0.9699 N   0  0  0  0  0  0  0  0  0  0  0  0
   -1.3243    0.6014   -1.1470 C   0  0  2  0  0  0  0  0  0  0  0  0
   -1.7929    0.4747   -2.6081 C   0  0  0  0  0  0  0  0  0  0  0  0
   -2.4972   -0.4677   -2.9400 O   0  0  0  0  0  0  0  0  0  0  0  0
   -2.2557    1.5855   -0.4075 C   0  0  0  0  0  0  0  0  0  0  0  0
   -2.4083    1.2943    1.1020 C   0  0  0  0  0  0  0  0  0  0  0  0
   -3.4388    2.2639    1.6926 C   0  0  0  0  0  0  0  0  0  0  0  0
   -1.0931    1.4251    1.8838 C   0  0  0  0  0  0  0  0  0  0  0  0
    0.2784    1.4306   -0.0510 H   0  0  0  0  0  0  0  0  0  0  0  0
   -1.4361   -0.3937   -0.7010 H   0  0  0  0  0  0  0  0  0  0  0  0
   -3.2543    1.5240   -0.8557 H   0  0  0  0  0  0  0  0  0  0  0  0
   -1.9007    2.6111   -0.5562 H   0  0  0  0  0  0  0  0  0  0  0  0
   -2.7871    0.2740    1.2290 H   0  0  0  0  0  0  0  0  0  0  0  0
   -3.0961    3.2991    1.5966 H   0  0  0  0  0  0  0  0  0  0  0  0
   -3.6017    2.0486    2.7532 H   0  0  0  0  0  0  0  0  0  0  0  0
   -4.3982    2.1656    1.1749 H   0  0  0  0  0  0  0  0  0  0  0  0
   -0.6179    2.3907    1.6842 H   0  0  0  0  0  0  0  0  0  0  0  0
   -1.2809    1.3487    2.9594 H   0  0  0  0  0  0  0  0  0  0  0  0
   -0.3983    0.6246    1.6138 H   0  0  0  0  0  0  0  0  0  0  0  0
   -1.4886    1.4826   -3.5083 N   0  0  0  0  0  0  0  0  0  0  0  0
   -1.9314    1.5886   -4.9137 C   0  0  2  0  0  0  0  0  0  0  0  0
   -3.4546    1.7868   -5.0929 C   0  0  0  0  0  0  0  0  0  0  0  0
   -3.8649    2.7808   -5.6765 O   0  0  0  0  0  0  0  0  0  0  0  0
   -1.4301    0.4013   -5.7480 C   0  0  0  0  0  0  0  0  0  0  0  0
   -0.9966    2.2796   -3.1112 H   0  0  0  0  0  0  0  0  0  0  0  0
   -1.4613    2.4860   -5.3290 H   0  0  0  0  0  0  0  0  0  0  0  0
   -1.9047   -0.5340   -5.4379 H   0  0  0  0  0  0  0  0  0  0  0  0
   -1.6608    0.5639   -6.8056 H   0  0  0  0  0  0  0  0  0  0  0  0
   -0.3466    0.2934   -5.6454 H   0  0  0  0  0  0  0  0  0  0  0  0
   -4.3603    0.8735   -4.5920 N   0  0  0  0  0  0  0  0  0  0  0  0
   -5.8059    1.0189   -4.6868 C   0  0  0  0  0  0  0  0  0  0  0  0
   -3.9678    0.1038   -4.0430 H   0  0  0  0  0  0  0  0  0  0  0  0
   -6.3010    0.1414   -4.2597 H   0  0  0  0  0  0  0  0  0  0  0  0
   -6.1379    1.9065   -4.1390 H   0  0  0  0  0  0  0  0  0  0  0  0
   -6.1140    1.1134   -5.7332 H   0  0  0  0  0  0  0  0  0  0  0  0
  1  2  2  0  0  0  0
  1  3  1  0  0  0  0
  1  7  1  0  0  0  0
  3  4  1  0  0  0  0
  3  5  1  0  0  0  0
  3  6  1  0  0  0  0
  7  8  1  0  0  0  0
  7 12  1  0  0  0  0
  8  9  1  0  0  0  0
  8 11  1  0  0  0  0
  8 13  1  0  0  0  0
  9 10  2  0  0  0  0
  9 17  1  0  0  0  0
 11 14  1  0  0  0  0
 11 15  1  0  0  0  0
 11 16  1  0  0  0  0
 17 18  1  0  0  0  0
 17 25  1  0  0  0  0
 18 19  1  0  0  0  0
 18 21  1  0  0  0  0
 18 26  1  0  0  0  0
 19 20  2  0  0  0  0
 19 36  1  0  0  0  0
 21 22  1  0  0  0  0
 21 27  1  0  0  0  0
 21 28  1  0  0  0  0
 22 23  1  0  0  0  0
 22 24  1  0  0  0  0
 22 29  1  0  0  0  0
 23 30  1  0  0  0  0
 23 31  1  0  0  0  0
 23 32  1  0  0  0  0
 24 33  1  0  0  0  0
 24 34  1  0  0  0  0
 24 35  1  0  0  0  0
 36 37  1  0  0  0  0
 36 41  1  0  0  0  0
 37 38  1  0  0  0  0
 37 40  1  0  0  0  0
 37 42  1  0  0  0  0
 38 39  2  0  0  0  0
 38 46  1  0  0  0  0
 40 43  1  0  0  0  0
 40 44  1  0  0  0  0
 40 45  1  0  0  0  0
 46 47  1  0  0  0  0
 46 48  1  0  0  0  0
 47 49  1  0  0  0  0
 47 50  1  0  0  0  0
 47 51  1  0  0  0  0
M  END
$$$$

  -OEChem-02062319103D

 51 50  0     1  0  0  0  0  0999 V2000
    3.3348    0.3581   -4.0479 C   0  0  0  0  0  0  0  0  0  0  0  0
    2.5475    0.5893   -4.9524 O   0  0  0  0  0  0  0  0  0  0  0  0
    4.8104    0.6603   -4.2274 C   0  0  0  0  0  0  0  0  0  0  0  0
    5.1227    1.4304   -3.5176 H   0  0  0  0  0  0  0  0  0  0  0  0
    5.3996   -0.2442   -4.0562 H   0  0  0  0  0  0  0  0  0  0  0  0
    5.0016    1.0176   -5.2434 H   0  0  0  0  0  0  0  0  0  0  0  0
    2.8855   -0.1731   -2.8572 N   0  0  0  0  0  0  0  0  0  0  0  0
    1.4698   -0.3805   -2.5245 C   0  0  2  0  0  0  0  0  0  0  0  0
    1.1386    0.1022   -1.0943 C   0  0  0  0  0  0  0  0  0  0  0  0
    2.0345    0.1629   -0.2650 O   0  0  0  0  0  0  0  0  0  0  0  0
    1.1815   -1.8776   -2.6678 C   0  0  0  0  0  0  0  0  0  0  0  0
    3.5509   -0.2153   -2.0867 H   0  0  0  0  0  0  0  0  0  0  0  0
    0.8459    0.1796   -3.2221 H   0  0  0  0  0  0  0  0  0  0  0  0
    1.3965   -2.2068   -3.6893 H   0  0  0  0  0  0  0  0  0  0  0  0
    0.1326   -2.0961   -2.4503 H   0  0  0  0  0  0  0  0  0  0  0  0
    1.8055   -2.4549   -1.9781 H   0  0  0  0  0  0  0  0  0  0  0  0
    0.0920    0.9313   -0.7523 N   0  0  0  0  0  0  0  0  0  0  0  0
   -1.3000    0.4453   -0.7167 C   0  0  2  0  0  0  0  0  0  0  0  0
   -1.8466   -0.0926   -2.0557 C   0  0  0  0  0  0  0  0  0  0  0  0
   -2.4798   -1.1384   -2.0694 O   0  0  0  0  0  0  0  0  0  0  0  0
   -2.2088    1.5915   -0.2235 C   0  0  0  0  0  0  0  0  0  0  0  0
   -2.2824    1.7173    1.3148 C   0  0  0  0  0  0  0  0  0  0  0  0
   -3.2612    2.8410    1.6751 C   0  0  0  0  0  0  0  0  0  0  0  0
   -0.9251    2.0091    1.9707 C   0  0  0  0  0  0  0  0  0  0  0  0
    0.3566    1.4528    0.0811 H   0  0  0  0  0  0  0  0  0  0  0  0
   -1.3649   -0.3859   -0.0047 H   0  0  0  0  0  0  0  0  0  0  0  0
   -3.2275    1.4117   -0.5865 H   0  0  0  0  0  0  0  0  0  0  0  0
   -1.8756    2.5392   -0.6609 H   0  0  0  0  0  0  0  0  0  0  0  0
   -2.6698    0.7789    1.7271 H   0  0  0  0  0  0  0  0  0  0  0  0
   -2.9048    3.8022    1.2908 H   0  0  0  0  0  0  0  0  0  0  0  0
   -3.3696    2.9203    2.7615 H   0  0  0  0  0  0  0  0  0  0  0  0
   -4.2490    2.6406    1.2483 H   0  0  0  0  0  0  0  0  0  0  0  0
   -0.4454    2.8734    1.5003 H   0  0  0  0  0  0  0  0  0  0  0  0
   -1.0562    2.2249    3.0360 H   0  0  0  0  0  0  0  0  0  0  0  0
   -0.2600    1.1444    1.8892 H   0  0  0  0  0  0  0  0  0  0  0  0
   -1.6245    0.6175   -3.2239 N   0  0  0  0  0  0  0  0  0  0  0  0
   -2.1006    0.2860   -4.5828 C   0  0  2  0  0  0  0  0  0  0  0  0
   -3.6378    0.3142   -4.7486 C   0  0  0  0  0  0  0  0  0  0  0  0
   -4.1442    1.0873   -5.5507 O   0  0  0  0  0  0  0  0  0  0  0  0
   -1.5182   -1.0473   -5.0706 C   0  0  0  0  0  0  0  0  0  0  0  0
   -1.1215    1.4951   -3.1112 H   0  0  0  0  0  0  0  0  0  0  0  0
   -1.7122    1.0600   -5.2537 H   0  0  0  0  0  0  0  0  0  0  0  0
   -1.8148   -1.2263   -6.1090 H   0  0  0  0  0  0  0  0  0  0  0  0
   -1.8740   -1.8856   -4.4650 H   0  0  0  0  0  0  0  0  0  0  0  0
   -0.4257   -1.0207   -5.0280 H   0  0  0  0  0  0  0  0  0  0  0  0
   -4.4539   -0.5052   -3.9947 N   0  0  0  0  0  0  0  0  0  0  0  0
   -5.9084   -0.4849   -4.0550 C   0  0  0  0  0  0  0  0  0  0  0  0
   -3.9883   -1.0560   -3.2687 H   0  0  0  0  0  0  0  0  0  0  0  0
   -6.3223   -1.2644   -3.4081 H   0  0  0  0  0  0  0  0  0  0  0  0
   -6.2924    0.4848   -3.7216 H   0  0  0  0  0  0  0  0  0  0  0  0
   -6.2523   -0.6679   -5.0786 H   0  0  0  0  0  0  0  0  0  0  0  0
  1  2  2  0  0  0  0
  1  3  1  0  0  0  0
  1  7  1  0  0  0  0
  3  4  1  0  0  0  0
  3  5  1  0  0  0  0
  3  6  1  0  0  0  0
  7  8  1  0  0  0  0
  7 12  1  0  0  0  0
  8  9  1  0  0  0  0
  8 11  1  0  0  0  0
  8 13  1  0  0  0  0
  9 10  2  0  0  0  0
  9 17  1  0  0  0  0
 11 14  1  0  0  0  0
 11 15  1  0  0  0  0
 11 16  1  0  0  0  0
 17 18  1  0  0  0  0
 17 25  1  0  0  0  0
 18 19  1  0  0  0  0
 18 21  1  0  0  0  0
 18 26  1  0  0  0  0
 19 20  2  0  0  0  0
 19 36  1  0  0  0  0
 21 22  1  0  0  0  0
 21 27  1  0  0  0  0
 21 28  1  0  0  0  0
 22 23  1  0  0  0  0
 22 24  1  0  0  0  0
 22 29  1  0  0  0  0
 23 30  1  0  0  0  0
 23 31  1  0  0  0  0
 23 32  1  0  0  0  0
 24 33  1  0  0  0  0
 24 34  1  0  0  0  0
 24 35  1  0  0  0  0
 36 37  1  0  0  0  0
 36 41  1  0  0  0  0
 37 38  1  0  0  0  0
 37 40  1  0  0  0  0
 37 42  1  0  0  0  0
 38 39  2  0  0  0  0
 38 46  1  0  0  0  0
 40 43  1  0  0  0  0
 40 44  1  0  0  0  0
 40 45  1  0  0  0  0
 46 47  1  0  0  0  0
 46 48  1  0  0  0  0
 47 49  1  0  0  0  0
 47 50  1  0  0  0  0
 47 51  1  0  0  0  0
M  END
$$$$

  -OEChem-02062319103D

 51 50  0     1  0  0  0  0  0999 V2000
    4.0668   -0.1334   -3.1098 C   0  0  0  0  0  0  0  0  0  0  0  0
    4.2147   -1.2780   -2.7172 O   0  0  0  0  0  0  0  0  0  0  0  0
    5.2981    0.7201   -3.3529 C   0  0  0  0  0  0  0  0  0  0  0  0
    5.3005    1.5710   -2.6673 H   0  0  0  0  0  0  0  0  0  0  0  0
    6.2044    0.1315   -3.1839 H   0  0  0  0  0  0  0  0  0  0  0  0
    5.3049    1.0875   -4.3817 H   0  0  0  0  0  0  0  0  0  0  0  0
    2.8214    0.4172   -3.3674 N   0  0  0  0  0  0  0  0  0  0  0  0
    1.5137   -0.1061   -2.9096 C   0  0  2  0  0  0  0  0  0  0  0  0
    1.2078    0.2218   -1.4247 C   0  0  0  0  0  0  0  0  0  0  0  0
    2.1138    0.5021   -0.6570 O   0  0  0  0  0  0  0  0  0  0  0  0
    1.3458   -1.6123   -3.1768 C   0  0  0  0  0  0  0  0  0  0  0  0
    2.8544    1.4067   -3.5904 H   0  0  0  0  0  0  0  0  0  0  0  0
    0.7582    0.4040   -3.5118 H   0  0  0  0  0  0  0  0  0  0  0  0
    1.9272   -2.2065   -2.4655 H   0  0  0  0  0  0  0  0  0  0  0  0
    0.3024   -1.9134   -3.0731 H   0  0  0  0  0  0  0  0  0  0  0  0
    1.6753   -1.8583   -4.1908 H   0  0  0  0  0  0  0  0  0  0  0  0
    0.0858    0.9059   -1.0141 N   0  0  0  0  0  0  0  0  0  0  0  0
   -1.1572    0.1878   -0.6821 C   0  0  2  0  0  0  0  0  0  0  0  0
   -1.7639   -0.6342   -1.8361 C   0  0  0  0  0  0  0  0  0  0  0  0
   -2.2536   -1.7304   -1.6083 O   0  0  0  0  0  0  0  0  0  0  0  0
   -2.2006    1.2078   -0.1783 C   0  0  0  0  0  0  0  0  0  0  0  0
   -2.0864    1.5248    1.3294 C   0  0  0  0  0  0  0  0  0  0  0  0
   -3.2052    2.4978    1.7208 C   0  0  0  0  0  0  0  0  0  0  0  0
   -0.7324    2.1322    1.7240 C   0  0  0  0  0  0  0  0  0  0  0  0
    0.3786    1.5307   -0.2647 H   0  0  0  0  0  0  0  0  0  0  0  0
   -0.9450   -0.5276    0.1216 H   0  0  0  0  0  0  0  0  0  0  0  0
   -3.2032    0.8000   -0.3530 H   0  0  0  0  0  0  0  0  0  0  0  0
   -2.1238    2.1317   -0.7618 H   0  0  0  0  0  0  0  0  0  0  0  0
   -2.2247    0.5968    1.8954 H   0  0  0  0  0  0  0  0  0  0  0  0
   -3.0947    3.4484    1.1890 H   0  0  0  0  0  0  0  0  0  0  0  0
   -3.1798    2.6971    2.7969 H   0  0  0  0  0  0  0  0  0  0  0  0
   -4.1846    2.0742    1.4765 H   0  0  0  0  0  0  0  0  0  0  0  0
   -0.4975    2.9967    1.0950 H   0  0  0  0  0  0  0  0  0  0  0  0
   -0.7529    2.4601    2.7682 H   0  0  0  0  0  0  0  0  0  0  0  0
    0.0682    1.3929    1.6266 H   0  0  0  0  0  0  0  0  0  0  0  0
   -1.8508   -0.0674   -3.0978 N   0  0  0  0  0  0  0  0  0  0  0  0
   -2.6545   -0.5683   -4.2327 C   0  0  2  0  0  0  0  0  0  0  0  0
   -4.1764   -0.5738   -3.9604 C   0  0  0  0  0  0  0  0  0  0  0  0
   -4.9018    0.1756   -4.6004 O   0  0  0  0  0  0  0  0  0  0  0  0
   -2.1741   -1.9426   -4.7202 C   0  0  0  0  0  0  0  0  0  0  0  0
   -1.5513    0.9035   -3.1423 H   0  0  0  0  0  0  0  0  0  0  0  0
   -2.5009    0.1264   -5.0650 H   0  0  0  0  0  0  0  0  0  0  0  0
   -2.3172   -2.7132   -3.9577 H   0  0  0  0  0  0  0  0  0  0  0  0
   -2.7359   -2.2395   -5.6116 H   0  0  0  0  0  0  0  0  0  0  0  0
   -1.1135   -1.9032   -4.9826 H   0  0  0  0  0  0  0  0  0  0  0  0
   -4.7217   -1.3597   -2.9647 N   0  0  0  0  0  0  0  0  0  0  0  0
   -6.1218   -1.3077   -2.5682 C   0  0  0  0  0  0  0  0  0  0  0  0
   -4.0521   -1.8545   -2.3687 H   0  0  0  0  0  0  0  0  0  0  0  0
   -6.3150   -2.0334   -1.7723 H   0  0  0  0  0  0  0  0  0  0  0  0
   -6.3782   -0.3101   -2.1975 H   0  0  0  0  0  0  0  0  0  0  0  0
   -6.7697   -1.5458   -3.4184 H   0  0  0  0  0  0  0  0  0  0  0  0
  1  2  2  0  0  0  0
  1  3  1  0  0  0  0
  1  7  1  0  0  0  0
  3  4  1  0  0  0  0
  3  5  1  0  0  0  0
  3  6  1  0  0  0  0
  7  8  1  0  0  0  0
  7 12  1  0  0  0  0
  8  9  1  0  0  0  0
  8 11  1  0  0  0  0
  8 13  1  0  0  0  0
  9 10  2  0  0  0  0
  9 17  1  0  0  0  0
 11 14  1  0  0  0  0
 11 15  1  0  0  0  0
 11 16  1  0  0  0  0
 17 18  1  0  0  0  0
 17 25  1  0  0  0  0
 18 19  1  0  0  0  0
 18 21  1  0  0  0  0
 18 26  1  0  0  0  0
 19 20  2  0  0  0  0
 19 36  1  0  0  0  0
 21 22  1  0  0  0  0
 21 27  1  0  0  0  0
 21 28  1  0  0  0  0
 22 23  1  0  0  0  0
 22 24  1  0  0  0  0
 22 29  1  0  0  0  0
 23 30  1  0  0  0  0
 23 31  1  0  0  0  0
 23 32  1  0  0  0  0
 24 33  1  0  0  0  0
 24 34  1  0  0  0  0
 24 35  1  0  0  0  0
 36 37  1  0  0  0  0
 36 41  1  0  0  0  0
 37 38  1  0  0  0  0
 37 40  1  0  0  0  0
 37 42  1  0  0  0  0
 38 39  2  0  0  0  0
 38 46  1  0  0  0  0
 40 43  1  0  0  0  0
 40 44  1  0  0  0  0
 40 45  1  0  0  0  0
 46 47  1  0  0  0  0
 46 48  1  0  0  0  0
 47 49  1  0  0  0  0
 47 50  1  0  0  0  0
 47 51  1  0  0  0  0
M  END
$$$$

  -OEChem-02062319103D

 51 50  0     1  0  0  0  0  0999 V2000
    3.9704    0.0152   -3.4211 C   0  0  0  0  0  0  0  0  0  0  0  0
    4.2639   -1.1001   -3.0273 O   0  0  0  0  0  0  0  0  0  0  0  0
    5.0859    0.9668   -3.8127 C   0  0  0  0  0  0  0  0  0  0  0  0
    5.0545    1.8571   -3.1798 H   0  0  0  0  0  0  0  0  0  0  0  0
    6.0577    0.4811   -3.6865 H   0  0  0  0  0  0  0  0  0  0  0  0
    4.9758    1.2640   -4.8583 H   0  0  0  0  0  0  0  0  0  0  0  0
    2.6600    0.4435   -3.5620 N   0  0  0  0  0  0  0  0  0  0  0  0
    1.4511   -0.1868   -2.9841 C   0  0  2  0  0  0  0  0  0  0  0  0
    1.2129    0.1780   -1.4978 C   0  0  0  0  0  0  0  0  0  0  0  0
    2.1486    0.4885   -0.7791 O   0  0  0  0  0  0  0  0  0  0  0  0
    1.4139   -1.7130   -3.1628 C   0  0  0  0  0  0  0  0  0  0  0  0
    2.5783    1.4233   -3.8133 H   0  0  0  0  0  0  0  0  0  0  0  0
    0.6022    0.2101   -3.5471 H   0  0  0  0  0  0  0  0  0  0  0  0
    1.6668   -1.9843   -4.1921 H   0  0  0  0  0  0  0  0  0  0  0  0
    0.4208   -2.1016   -2.9354 H   0  0  0  0  0  0  0  0  0  0  0  0
    2.1171   -2.2069   -2.4858 H   0  0  0  0  0  0  0  0  0  0  0  0
    0.0981    0.8732   -1.0891 N   0  0  0  0  0  0  0  0  0  0  0  0
   -0.9770    0.1363   -0.4023 C   0  0  2  0  0  0  0  0  0  0  0  0
   -1.6090   -0.9934   -1.2419 C   0  0  0  0  0  0  0  0  0  0  0  0
   -1.9289   -2.0442   -0.7065 O   0  0  0  0  0  0  0  0  0  0  0  0
   -2.0725    1.1327    0.0312 C   0  0  0  0  0  0  0  0  0  0  0  0
   -1.7947    1.8155    1.3889 C   0  0  0  0  0  0  0  0  0  0  0  0
   -2.9747    2.7309    1.7357 C   0  0  0  0  0  0  0  0  0  0  0  0
   -0.4999    2.6407    1.4022 C   0  0  0  0  0  0  0  0  0  0  0  0
    0.4312    1.6464   -0.5162 H   0  0  0  0  0  0  0  0  0  0  0  0
   -0.5620   -0.3443    0.4921 H   0  0  0  0  0  0  0  0  0  0  0  0
   -3.0216    0.5918    0.1235 H   0  0  0  0  0  0  0  0  0  0  0  0
   -2.2091    1.8911   -0.7475 H   0  0  0  0  0  0  0  0  0  0  0  0
   -1.7194    1.0435    2.1630 H   0  0  0  0  0  0  0  0  0  0  0  0
   -3.0755    3.5297    0.9939 H   0  0  0  0  0  0  0  0  0  0  0  0
   -2.8282    3.1876    2.7196 H   0  0  0  0  0  0  0  0  0  0  0  0
   -3.9082    2.1599    1.7612 H   0  0  0  0  0  0  0  0  0  0  0  0
   -0.4811    3.3449    0.5644 H   0  0  0  0  0  0  0  0  0  0  0  0
   -0.4212    3.2101    2.3336 H   0  0  0  0  0  0  0  0  0  0  0  0
    0.3766    1.9891    1.3400 H   0  0  0  0  0  0  0  0  0  0  0  0
   -1.9352   -0.7447   -2.5664 N   0  0  0  0  0  0  0  0  0  0  0  0
   -2.8386   -1.5526   -3.4139 C   0  0  2  0  0  0  0  0  0  0  0  0
   -4.2902   -1.6170   -2.8867 C   0  0  0  0  0  0  0  0  0  0  0  0
   -5.1830   -1.0706   -3.5203 O   0  0  0  0  0  0  0  0  0  0  0  0
   -2.2901   -2.9627   -3.6786 C   0  0  0  0  0  0  0  0  0  0  0  0
   -1.7655    0.2127   -2.8641 H   0  0  0  0  0  0  0  0  0  0  0  0
   -2.8947   -1.0546   -4.3875 H   0  0  0  0  0  0  0  0  0  0  0  0
   -2.1839   -3.5347   -2.7528 H   0  0  0  0  0  0  0  0  0  0  0  0
   -1.3152   -2.9065   -4.1696 H   0  0  0  0  0  0  0  0  0  0  0  0
   -2.9709   -3.5098   -4.3384 H   0  0  0  0  0  0  0  0  0  0  0  0
   -4.5872   -2.2389   -1.6905 N   0  0  0  0  0  0  0  0  0  0  0  0
   -5.9136   -2.2511   -1.0900 C   0  0  0  0  0  0  0  0  0  0  0  0
   -3.7829   -2.5366   -1.1311 H   0  0  0  0  0  0  0  0  0  0  0  0
   -5.9008   -2.8299   -0.1616 H   0  0  0  0  0  0  0  0  0  0  0  0
   -6.2394   -1.2315   -0.8600 H   0  0  0  0  0  0  0  0  0  0  0  0
   -6.6382   -2.7093   -1.7714 H   0  0  0  0  0  0  0  0  0  0  0  0
  1  2  2  0  0  0  0
  1  3  1  0  0  0  0
  1  7  1  0  0  0  0
  3  4  1  0  0  0  0
  3  5  1  0  0  0  0
  3  6  1  0  0  0  0
  7  8  1  0  0  0  0
  7 12  1  0  0  0  0
  8  9  1  0  0  0  0
  8 11  1  0  0  0  0
  8 13  1  0  0  0  0
  9 10  2  0  0  0  0
  9 17  1  0  0  0  0
 11 14  1  0  0  0  0
 11 15  1  0  0  0  0
 11 16  1  0  0  0  0
 17 18  1  0  0  0  0
 17 25  1  0  0  0  0
 18 19  1  0  0  0  0
 18 21  1  0  0  0  0
 18 26  1  0  0  0  0
 19 20  2  0  0  0  0
 19 36  1  0  0  0  0
 21 22  1  0  0  0  0
 21 27  1  0  0  0  0
 21 28  1  0  0  0  0
 22 23  1  0  0  0  0
 22 24  1  0  0  0  0
 22 29  1  0  0  0  0
 23 30  1  0  0  0  0
 23 31  1  0  0  0  0
 23 32  1  0  0  0  0
 24 33  1  0  0  0  0
 24 34  1  0  0  0  0
 24 35  1  0  0  0  0
 36 37  1  0  0  0  0
 36 41  1  0  0  0  0
 37 38  1  0  0  0  0
 37 40  1  0  0  0  0
 37 42  1  0  0  0  0
 38 39  2  0  0  0  0
 38 46  1  0  0  0  0
 40 43  1  0  0  0  0
 40 44  1  0  0  0  0
 40 45  1  0  0  0  0
 46 47  1  0  0  0  0
 46 48  1  0  0  0  0
 47 49  1  0  0  0  0
 47 50  1  0  0  0  0
 47 51  1  0  0  0  0
M  END
$$$$

  -OEChem-02062319103D

 51 50  0     1  0  0  0  0  0999 V2000
    0.4700   -0.0963   -3.9218 C   0  0  0  0  0  0  0  0  0  0  0  0
   -0.3766    0.7047   -3.5564 O   0  0  0  0  0  0  0  0  0  0  0  0
    0.1736   -1.0403   -5.0718 C   0  0  0  0  0  0  0  0  0  0  0  0
    0.4740   -2.0596   -4.8162 H   0  0  0  0  0  0  0  0  0  0  0  0
   -0.8970   -1.0377   -5.2968 H   0  0  0  0  0  0  0  0  0  0  0  0
    0.7210   -0.7225   -5.9628 H   0  0  0  0  0  0  0  0  0  0  0  0
    1.6451   -0.2259   -3.2104 N   0  0  0  0  0  0  0  0  0  0  0  0
    2.2499    0.7949   -2.3287 C   0  0  2  0  0  0  0  0  0  0  0  0
    1.5349    1.1991   -1.0106 C   0  0  0  0  0  0  0  0  0  0  0  0
    2.1622    1.0521    0.0277 O   0  0  0  0  0  0  0  0  0  0  0  0
    2.5262    2.0618   -3.1502 C   0  0  0  0  0  0  0  0  0  0  0  0
    2.2691   -0.9560   -3.5441 H   0  0  0  0  0  0  0  0  0  0  0  0
    3.2208    0.3935   -2.0183 H   0  0  0  0  0  0  0  0  0  0  0  0
    1.5927    2.5569   -3.4360 H   0  0  0  0  0  0  0  0  0  0  0  0
    3.1221    2.7681   -2.5628 H   0  0  0  0  0  0  0  0  0  0  0  0
    3.0840    1.8162   -4.0589 H   0  0  0  0  0  0  0  0  0  0  0  0
    0.1671    1.3671   -0.8850 N   0  0  0  0  0  0  0  0  0  0  0  0
   -0.6177    0.5587    0.0714 C   0  0  2  0  0  0  0  0  0  0  0  0
   -0.5711   -0.9646   -0.1579 C   0  0  0  0  0  0  0  0  0  0  0  0
   -0.5754   -1.7301    0.7971 O   0  0  0  0  0  0  0  0  0  0  0  0
   -2.0898    1.0243    0.0312 C   0  0  0  0  0  0  0  0  0  0  0  0
   -2.3802    2.2762    0.8884 C   0  0  0  0  0  0  0  0  0  0  0  0
   -3.8913    2.5364    0.8939 C   0  0  0  0  0  0  0  0  0  0  0  0
   -1.6588    3.5338    0.3843 C   0  0  0  0  0  0  0  0  0  0  0  0
   -0.2774    1.4784   -1.7995 H   0  0  0  0  0  0  0  0  0  0  0  0
   -0.2231    0.7289    1.0802 H   0  0  0  0  0  0  0  0  0  0  0  0
   -2.7195    0.2124    0.4128 H   0  0  0  0  0  0  0  0  0  0  0  0
   -2.3915    1.2043   -1.0064 H   0  0  0  0  0  0  0  0  0  0  0  0
   -2.0607    2.0830    1.9184 H   0  0  0  0  0  0  0  0  0  0  0  0
   -4.2522    2.7389   -0.1194 H   0  0  0  0  0  0  0  0  0  0  0  0
   -4.1281    3.3976    1.5261 H   0  0  0  0  0  0  0  0  0  0  0  0
   -4.4285    1.6679    1.2876 H   0  0  0  0  0  0  0  0  0  0  0  0
   -1.8545    3.6912   -0.6810 H   0  0  0  0  0  0  0  0  0  0  0  0
   -2.0009    4.4161    0.9340 H   0  0  0  0  0  0  0  0  0  0  0  0
   -0.5792    3.4474    0.5360 H   0  0  0  0  0  0  0  0  0  0  0  0
   -0.7189   -1.4605   -1.4403 N   0  0  0  0  0  0  0  0  0  0  0  0
   -0.8493   -2.8741   -1.8465 C   0  0  2  0  0  0  0  0  0  0  0  0
   -2.1625   -3.5558   -1.4007 C   0  0  0  0  0  0  0  0  0  0  0  0
   -2.8518   -4.1251   -2.2369 O   0  0  0  0  0  0  0  0  0  0  0  0
    0.3721   -3.6928   -1.4063 C   0  0  0  0  0  0  0  0  0  0  0  0
   -0.8564   -0.7454   -2.1548 H   0  0  0  0  0  0  0  0  0  0  0  0
   -0.8636   -2.8904   -2.9399 H   0  0  0  0  0  0  0  0  0  0  0  0
    0.3921   -3.8238   -0.3203 H   0  0  0  0  0  0  0  0  0  0  0  0
    0.3431   -4.6853   -1.8668 H   0  0  0  0  0  0  0  0  0  0  0  0
    1.2961   -3.1939   -1.7127 H   0  0  0  0  0  0  0  0  0  0  0  0
   -2.5724   -3.5355   -0.0831 N   0  0  0  0  0  0  0  0  0  0  0  0
   -3.7984   -4.1522    0.4023 C   0  0  0  0  0  0  0  0  0  0  0  0
   -1.9633   -3.0364    0.5721 H   0  0  0  0  0  0  0  0  0  0  0  0
   -3.8839   -4.0177    1.4849 H   0  0  0  0  0  0  0  0  0  0  0  0
   -4.6716   -3.6952   -0.0746 H   0  0  0  0  0  0  0  0  0  0  0  0
   -3.7990   -5.2257    0.1860 H   0  0  0  0  0  0  0  0  0  0  0  0
  1  2  2  0  0  0  0
  1  3  1  0  0  0  0
  1  7  1  0  0  0  0
  3  4  1  0  0  0  0
  3  5  1  0  0  0  0
  3  6  1  0  0  0  0
  7  8  1  0  0  0  0
  7 12  1  0  0  0  0
  8  9  1  0  0  0  0
  8 11  1  0  0  0  0
  8 13  1  0  0  0  0
  9 10  2  0  0  0  0
  9 17  1  0  0  0  0
 11 14  1  0  0  0  0
 11 15  1  0  0  0  0
 11 16  1  0  0  0  0
 17 18  1  0  0  0  0
 17 25  1  0  0  0  0
 18 19  1  0  0  0  0
 18 21  1  0  0  0  0
 18 26  1  0  0  0  0
 19 20  2  0  0  0  0
 19 36  1  0  0  0  0
 21 22  1  0  0  0  0
 21 27  1  0  0  0  0
 21 28  1  0  0  0  0
 22 23  1  0  0  0  0
 22 24  1  0  0  0  0
 22 29  1  0  0  0  0
 23 30  1  0  0  0  0
 23 31  1  0  0  0  0
 23 32  1  0  0  0  0
 24 33  1  0  0  0  0
 24 34  1  0  0  0  0
 24 35  1  0  0  0  0
 36 37  1  0  0  0  0
 36 41  1  0  0  0  0
 37 38  1  0  0  0  0
 37 40  1  0  0  0  0
 37 42  1  0  0  0  0
 38 39  2  0  0  0  0
 38 46  1  0  0  0  0
 40 43  1  0  0  0  0
 40 44  1  0  0  0  0
 40 45  1  0  0  0  0
 46 47  1  0  0  0  0
 46 48  1  0  0  0  0
 47 49  1  0  0  0  0
 47 50  1  0  0  0  0
 47 51  1  0  0  0  0
M  END
$$$$

  -OEChem-02062319103D

 51 50  0     1  0  0  0  0  0999 V2000
    0.5323   -0.5894   -3.6502 C   0  0  0  0  0  0  0  0  0  0  0  0
   -0.4412    0.0678   -3.3092 O   0  0  0  0  0  0  0  0  0  0  0  0
    0.3515   -1.8042   -4.5409 C   0  0  0  0  0  0  0  0  0  0  0  0
    0.8318   -2.6773   -4.0917 H   0  0  0  0  0  0  0  0  0  0  0  0
   -0.7126   -2.0201   -4.6766 H   0  0  0  0  0  0  0  0  0  0  0  0
    0.7997   -1.6169   -5.5200 H   0  0  0  0  0  0  0  0  0  0  0  0
    1.7828   -0.2887   -3.1501 N   0  0  0  0  0  0  0  0  0  0  0  0
    2.1807    0.9579   -2.4645 C   0  0  2  0  0  0  0  0  0  0  0  0
    1.5671    1.2348   -1.0690 C   0  0  0  0  0  0  0  0  0  0  0  0
    2.2844    1.1014   -0.0890 O   0  0  0  0  0  0  0  0  0  0  0  0
    1.9492    2.1610   -3.3900 C   0  0  0  0  0  0  0  0  0  0  0  0
    2.5317   -0.9155   -3.4333 H   0  0  0  0  0  0  0  0  0  0  0  0
    3.2612    0.8905   -2.2969 H   0  0  0  0  0  0  0  0  0  0  0  0
    0.8822    2.3297   -3.5638 H   0  0  0  0  0  0  0  0  0  0  0  0
    2.3693    3.0670   -2.9410 H   0  0  0  0  0  0  0  0  0  0  0  0
    2.4372    1.9976   -4.3555 H   0  0  0  0  0  0  0  0  0  0  0  0
    0.2025    1.3381   -0.8642 N   0  0  0  0  0  0  0  0  0  0  0  0
   -0.4597    0.6746    0.2771 C   0  0  2  0  0  0  0  0  0  0  0  0
   -0.3064   -0.8597    0.2996 C   0  0  0  0  0  0  0  0  0  0  0  0
   -0.2009   -1.4486    1.3676 O   0  0  0  0  0  0  0  0  0  0  0  0
   -1.9629    1.0276    0.2718 C   0  0  0  0  0  0  0  0  0  0  0  0
   -2.2942    2.4065    0.8846 C   0  0  0  0  0  0  0  0  0  0  0  0
   -3.8178    2.5570    0.9748 C   0  0  0  0  0  0  0  0  0  0  0  0
   -1.7227    3.5788    0.0749 C   0  0  0  0  0  0  0  0  0  0  0  0
   -0.3187    1.3059   -1.7431 H   0  0  0  0  0  0  0  0  0  0  0  0
   -0.0141    1.0440    1.2080 H   0  0  0  0  0  0  0  0  0  0  0  0
   -2.4952    0.2706    0.8591 H   0  0  0  0  0  0  0  0  0  0  0  0
   -2.3499    0.9714   -0.7513 H   0  0  0  0  0  0  0  0  0  0  0  0
   -1.8839    2.4520    1.8994 H   0  0  0  0  0  0  0  0  0  0  0  0
   -4.2695    2.5185   -0.0217 H   0  0  0  0  0  0  0  0  0  0  0  0
   -4.0814    3.5123    1.4395 H   0  0  0  0  0  0  0  0  0  0  0  0
   -4.2468    1.7538    1.5823 H   0  0  0  0  0  0  0  0  0  0  0  0
   -2.0039    3.4936   -0.9794 H   0  0  0  0  0  0  0  0  0  0  0  0
   -2.1027    4.5303    0.4596 H   0  0  0  0  0  0  0  0  0  0  0  0
   -0.6319    3.6042    0.1490 H   0  0  0  0  0  0  0  0  0  0  0  0
   -0.4949   -1.5769   -0.8689 N   0  0  0  0  0  0  0  0  0  0  0  0
   -0.5079   -3.0440   -1.0325 C   0  0  2  0  0  0  0  0  0  0  0  0
   -1.7126   -3.7596   -0.3802 C   0  0  0  0  0  0  0  0  0  0  0  0
   -2.3780   -4.5386   -1.0507 O   0  0  0  0  0  0  0  0  0  0  0  0
    0.8185   -3.6609   -0.5693 C   0  0  0  0  0  0  0  0  0  0  0  0
   -0.7143   -1.0065   -1.6873 H   0  0  0  0  0  0  0  0  0  0  0  0
   -0.5930   -3.2423   -2.1048 H   0  0  0  0  0  0  0  0  0  0  0  0
    0.9277   -3.5966    0.5173 H   0  0  0  0  0  0  0  0  0  0  0  0
    0.8597   -4.7171   -0.8527 H   0  0  0  0  0  0  0  0  0  0  0  0
    1.6621   -3.1424   -1.0344 H   0  0  0  0  0  0  0  0  0  0  0  0
   -2.0541   -3.5392    0.9386 N   0  0  0  0  0  0  0  0  0  0  0  0
   -3.1809   -4.1704    1.6098 C   0  0  0  0  0  0  0  0  0  0  0  0
   -1.4665   -2.8754    1.4517 H   0  0  0  0  0  0  0  0  0  0  0  0
   -3.0859   -5.2605    1.5741 H   0  0  0  0  0  0  0  0  0  0  0  0
   -3.2164   -3.8605    2.6585 H   0  0  0  0  0  0  0  0  0  0  0  0
   -4.1220   -3.8820    1.1305 H   0  0  0  0  0  0  0  0  0  0  0  0
  1  2  2  0  0  0  0
  1  3  1  0  0  0  0
  1  7  1  0  0  0  0
  3  4  1  0  0  0  0
  3  5  1  0  0  0  0
  3  6  1  0  0  0  0
  7  8  1  0  0  0  0
  7 12  1  0  0  0  0
  8  9  1  0  0  0  0
  8 11  1  0  0  0  0
  8 13  1  0  0  0  0
  9 10  2  0  0  0  0
  9 17  1  0  0  0  0
 11 14  1  0  0  0  0
 11 15  1  0  0  0  0
 11 16  1  0  0  0  0
 17 18  1  0  0  0  0
 17 25  1  0  0  0  0
 18 19  1  0  0  0  0
 18 21  1  0  0  0  0
 18 26  1  0  0  0  0
 19 20  2  0  0  0  0
 19 36  1  0  0  0  0
 21 22  1  0  0  0  0
 21 27  1  0  0  0  0
 21 28  1  0  0  0  0
 22 23  1  0  0  0  0
 22 24  1  0  0  0  0
 22 29  1  0  0  0  0
 23 30  1  0  0  0  0
 23 31  1  0  0  0  0
 23 32  1  0  0  0  0
 24 33  1  0  0  0  0
 24 34  1  0  0  0  0
 24 35  1  0  0  0  0
 36 37  1  0  0  0  0
 36 41  1  0  0  0  0
 37 38  1  0  0  0  0
 37 40  1  0  0  0  0
 37 42  1  0  0  0  0
 38 39  2  0  0  0  0
 38 46  1  0  0  0  0
 40 43  1  0  0  0  0
 40 44  1  0  0  0  0
 40 45  1  0  0  0  0
 46 47  1  0  0  0  0
 46 48  1  0  0  0  0
 47 49  1  0  0  0  0
 47 50  1  0  0  0  0
 47 51  1  0  0  0  0
M  END
$$$$

  -OEChem-02062319103D

 51 50  0     1  0  0  0  0  0999 V2000
    0.6957   -0.9819   -3.3473 C   0  0  0  0  0  0  0  0  0  0  0  0
   -0.3535   -0.4595   -2.9956 O   0  0  0  0  0  0  0  0  0  0  0  0
    0.6789   -2.3717   -3.9547 C   0  0  0  0  0  0  0  0  0  0  0  0
    1.2726   -3.0556   -3.3429 H   0  0  0  0  0  0  0  0  0  0  0  0
   -0.3461   -2.7498   -4.0095 H   0  0  0  0  0  0  0  0  0  0  0  0
    1.0962   -2.3438   -4.9643 H   0  0  0  0  0  0  0  0  0  0  0  0
    1.9032   -0.3520   -3.1203 N   0  0  0  0  0  0  0  0  0  0  0  0
    2.0981    1.0059   -2.5753 C   0  0  2  0  0  0  0  0  0  0  0  0
    1.5908    1.2083   -1.1280 C   0  0  0  0  0  0  0  0  0  0  0  0
    2.3828    1.1076   -0.2033 O   0  0  0  0  0  0  0  0  0  0  0  0
    1.5079    2.0545   -3.5306 C   0  0  0  0  0  0  0  0  0  0  0  0
    2.7362   -0.8798   -3.3682 H   0  0  0  0  0  0  0  0  0  0  0  0
    3.1777    1.1856   -2.5353 H   0  0  0  0  0  0  0  0  0  0  0  0
    0.4194    1.9692   -3.5977 H   0  0  0  0  0  0  0  0  0  0  0  0
    1.7511    3.0622   -3.1788 H   0  0  0  0  0  0  0  0  0  0  0  0
    1.9268    1.9296   -4.5339 H   0  0  0  0  0  0  0  0  0  0  0  0
    0.2397    1.3054   -0.8492 N   0  0  0  0  0  0  0  0  0  0  0  0
   -0.3332    0.8663    0.4367 C   0  0  2  0  0  0  0  0  0  0  0  0
   -0.1009   -0.6325    0.7225 C   0  0  0  0  0  0  0  0  0  0  0  0
    0.0894   -1.0156    1.8697 O   0  0  0  0  0  0  0  0  0  0  0  0
   -1.8475    1.1619    0.4571 C   0  0  0  0  0  0  0  0  0  0  0  0
   -2.2017    2.6242    0.8059 C   0  0  0  0  0  0  0  0  0  0  0  0
   -3.7220    2.7440    0.9662 C   0  0  0  0  0  0  0  0  0  0  0  0
   -1.7302    3.6287   -0.2549 C   0  0  0  0  0  0  0  0  0  0  0  0
   -0.3446    1.1578   -1.6738 H   0  0  0  0  0  0  0  0  0  0  0  0
    0.1486    1.4199    1.2506 H   0  0  0  0  0  0  0  0  0  0  0  0
   -2.3111    0.5197    1.2145 H   0  0  0  0  0  0  0  0  0  0  0  0
   -2.2886    0.8904   -0.5081 H   0  0  0  0  0  0  0  0  0  0  0  0
   -1.7346    2.8835    1.7621 H   0  0  0  0  0  0  0  0  0  0  0  0
   -4.2305    2.4936    0.0297 H   0  0  0  0  0  0  0  0  0  0  0  0
   -3.9974    3.7647    1.2494 H   0  0  0  0  0  0  0  0  0  0  0  0
   -4.0792    2.0663    1.7480 H   0  0  0  0  0  0  0  0  0  0  0  0
   -2.0667    3.3254   -1.2512 H   0  0  0  0  0  0  0  0  0  0  0  0
   -2.1306    4.6248   -0.0419 H   0  0  0  0  0  0  0  0  0  0  0  0
   -0.6392    3.7043   -0.2577 H   0  0  0  0  0  0  0  0  0  0  0  0
   -0.3180   -1.5543   -0.2886 N   0  0  0  0  0  0  0  0  0  0  0  0
   -0.1559   -3.0197   -0.2220 C   0  0  2  0  0  0  0  0  0  0  0  0
   -1.2048   -3.7615    0.6372 C   0  0  0  0  0  0  0  0  0  0  0  0
   -1.7339   -4.7723    0.1923 O   0  0  0  0  0  0  0  0  0  0  0  0
    1.2692   -3.3887    0.2107 C   0  0  0  0  0  0  0  0  0  0  0  0
   -0.5503   -1.1473   -1.1968 H   0  0  0  0  0  0  0  0  0  0  0  0
   -0.2893   -3.3969   -1.2403 H   0  0  0  0  0  0  0  0  0  0  0  0
    1.4397   -3.1396    1.2624 H   0  0  0  0  0  0  0  0  0  0  0  0
    1.4333   -4.4634    0.0848 H   0  0  0  0  0  0  0  0  0  0  0  0
    2.0032   -2.8510   -0.3969 H   0  0  0  0  0  0  0  0  0  0  0  0
   -1.5461   -3.3201    1.8991 N   0  0  0  0  0  0  0  0  0  0  0  0
   -2.4897   -3.9973    2.7763 C   0  0  0  0  0  0  0  0  0  0  0  0
   -1.0354   -2.5011    2.2417 H   0  0  0  0  0  0  0  0  0  0  0  0
   -2.1499   -5.0159    2.9906 H   0  0  0  0  0  0  0  0  0  0  0  0
   -2.5791   -3.4555    3.7227 H   0  0  0  0  0  0  0  0  0  0  0  0
   -3.4792   -4.0450    2.3098 H   0  0  0  0  0  0  0  0  0  0  0  0
  1  2  2  0  0  0  0
  1  3  1  0  0  0  0
  1  7  1  0  0  0  0
  3  4  1  0  0  0  0
  3  5  1  0  0  0  0
  3  6  1  0  0  0  0
  7  8  1  0  0  0  0
  7 12  1  0  0  0  0
  8  9  1  0  0  0  0
  8 11  1  0  0  0  0
  8 13  1  0  0  0  0
  9 10  2  0  0  0  0
  9 17  1  0  0  0  0
 11 14  1  0  0  0  0
 11 15  1  0  0  0  0
 11 16  1  0  0  0  0
 17 18  1  0  0  0  0
 17 25  1  0  0  0  0
 18 19  1  0  0  0  0
 18 21  1  0  0  0  0
 18 26  1  0  0  0  0
 19 20  2  0  0  0  0
 19 36  1  0  0  0  0
 21 22  1  0  0  0  0
 21 27  1  0  0  0  0
 21 28  1  0  0  0  0
 22 23  1  0  0  0  0
 22 24  1  0  0  0  0
 22 29  1  0  0  0  0
 23 30  1  0  0  0  0
 23 31  1  0  0  0  0
 23 32  1  0  0  0  0
 24 33  1  0  0  0  0
 24 34  1  0  0  0  0
 24 35  1  0  0  0  0
 36 37  1  0  0  0  0
 36 41  1  0  0  0  0
 37 38  1  0  0  0  0
 37 40  1  0  0  0  0
 37 42  1  0  0  0  0
 38 39  2  0  0  0  0
 38 46  1  0  0  0  0
 40 43  1  0  0  0  0
 40 44  1  0  0  0  0
 40 45  1  0  0  0  0
 46 47  1  0  0  0  0
 46 48  1  0  0  0  0
 47 49  1  0  0  0  0
 47 50  1  0  0  0  0
 47 51  1  0  0  0  0
M  END
$$$$

  -OEChem-02062319103D

 51 50  0     1  0  0  0  0  0999 V2000
    0.9565   -1.2372   -3.0718 C   0  0  0  0  0  0  0  0  0  0  0  0
   -0.1268   -0.8887   -2.6208 O   0  0  0  0  0  0  0  0  0  0  0  0
    1.1597   -2.6763   -3.5049 C   0  0  0  0  0  0  0  0  0  0  0  0
    1.9182   -3.1516   -2.8778 H   0  0  0  0  0  0  0  0  0  0  0  0
    0.2248   -3.2362   -3.4102 H   0  0  0  0  0  0  0  0  0  0  0  0
    1.4850   -2.7114   -4.5476 H   0  0  0  0  0  0  0  0  0  0  0  0
    2.0170   -0.3519   -3.1281 N   0  0  0  0  0  0  0  0  0  0  0  0
    2.0016    1.0515   -2.6710 C   0  0  2  0  0  0  0  0  0  0  0  0
    1.5975    1.2019   -1.1867 C   0  0  0  0  0  0  0  0  0  0  0  0
    2.4613    1.1971   -0.3232 O   0  0  0  0  0  0  0  0  0  0  0  0
    1.1263    1.9008   -3.6055 C   0  0  0  0  0  0  0  0  0  0  0  0
    2.9088   -0.7398   -3.4253 H   0  0  0  0  0  0  0  0  0  0  0  0
    3.0233    1.4391   -2.7437 H   0  0  0  0  0  0  0  0  0  0  0  0
    0.0851    1.5654   -3.5947 H   0  0  0  0  0  0  0  0  0  0  0  0
    1.1535    2.9506   -3.2963 H   0  0  0  0  0  0  0  0  0  0  0  0
    1.4977    1.8344   -4.6327 H   0  0  0  0  0  0  0  0  0  0  0  0
    0.2654    1.2793   -0.8260 N   0  0  0  0  0  0  0  0  0  0  0  0
   -0.2134    1.1018    0.5543 C   0  0  2  0  0  0  0  0  0  0  0  0
    0.1506   -0.2942    1.1028 C   0  0  0  0  0  0  0  0  0  0  0  0
    0.4121   -0.4370    2.2907 O   0  0  0  0  0  0  0  0  0  0  0  0
   -1.7417    1.3012    0.6142 C   0  0  0  0  0  0  0  0  0  0  0  0
   -2.1873    2.7801    0.6350 C   0  0  0  0  0  0  0  0  0  0  0  0
   -3.7010    2.8416    0.8741 C   0  0  0  0  0  0  0  0  0  0  0  0
   -1.8578    3.5275   -0.6648 C   0  0  0  0  0  0  0  0  0  0  0  0
   -0.3760    1.0220   -1.5762 H   0  0  0  0  0  0  0  0  0  0  0  0
    0.2718    1.8379    1.2050 H   0  0  0  0  0  0  0  0  0  0  0  0
   -2.1104    0.8306    1.5327 H   0  0  0  0  0  0  0  0  0  0  0  0
   -2.2136    0.7801   -0.2257 H   0  0  0  0  0  0  0  0  0  0  0  0
   -1.6868    3.2895    1.4660 H   0  0  0  0  0  0  0  0  0  0  0  0
   -4.2418    2.3456    0.0617 H   0  0  0  0  0  0  0  0  0  0  0  0
   -4.0373    3.8815    0.9315 H   0  0  0  0  0  0  0  0  0  0  0  0
   -3.9603    2.3486    1.8163 H   0  0  0  0  0  0  0  0  0  0  0  0
   -2.2211    2.9710   -1.5346 H   0  0  0  0  0  0  0  0  0  0  0  0
   -2.3267    4.5163   -0.6654 H   0  0  0  0  0  0  0  0  0  0  0  0
   -0.7789    3.6741   -0.7633 H   0  0  0  0  0  0  0  0  0  0  0  0
   -0.0525   -1.4031    0.2954 N   0  0  0  0  0  0  0  0  0  0  0  0
    0.2920   -2.8052    0.5995 C   0  0  2  0  0  0  0  0  0  0  0  0
   -0.5975   -3.4916    1.6610 C   0  0  0  0  0  0  0  0  0  0  0  0
   -0.9784   -4.6398    1.4698 O   0  0  0  0  0  0  0  0  0  0  0  0
    1.7773   -2.9301    0.9643 C   0  0  0  0  0  0  0  0  0  0  0  0
   -0.2909   -1.1853   -0.6746 H   0  0  0  0  0  0  0  0  0  0  0  0
    0.1401   -3.3709   -0.3252 H   0  0  0  0  0  0  0  0  0  0  0  0
    1.9856   -2.4689    1.9344 H   0  0  0  0  0  0  0  0  0  0  0  0
    2.0627   -3.9852    1.0202 H   0  0  0  0  0  0  0  0  0  0  0  0
    2.3976   -2.4411    0.2072 H   0  0  0  0  0  0  0  0  0  0  0  0
   -0.9552   -2.8493    2.8288 N   0  0  0  0  0  0  0  0  0  0  0  0
   -1.7290   -3.4652    3.8968 C   0  0  0  0  0  0  0  0  0  0  0  0
   -0.5398   -1.9247    2.9748 H   0  0  0  0  0  0  0  0  0  0  0  0
   -1.1945   -4.3281    4.3071 H   0  0  0  0  0  0  0  0  0  0  0  0
   -1.8971   -2.7453    4.7035 H   0  0  0  0  0  0  0  0  0  0  0  0
   -2.7026   -3.7971    3.5214 H   0  0  0  0  0  0  0  0  0  0  0  0
  1  2  2  0  0  0  0
  1  3  1  0  0  0  0
  1  7  1  0  0  0  0
  3  4  1  0  0  0  0
  3  5  1  0  0  0  0
  3  6  1  0  0  0  0
  7  8  1  0  0  0  0
  7 12  1  0  0  0  0
  8  9  1  0  0  0  0
  8 11  1  0  0  0  0
  8 13  1  0  0  0  0
  9 10  2  0  0  0  0
  9 17  1  0  0  0  0
 11 14  1  0  0  0  0
 11 15  1  0  0  0  0
 11 16  1  0  0  0  0
 17 18  1  0  0  0  0
 17 25  1  0  0  0  0
 18 19  1  0  0  0  0
 18 21  1  0  0  0  0
 18 26  1  0  0  0  0
 19 20  2  0  0  0  0
 19 36  1  0  0  0  0
 21 22  1  0  0  0  0
 21 27  1  0  0  0  0
 21 28  1  0  0  0  0
 22 23  1  0  0  0  0
 22 24  1  0  0  0  0
 22 29  1  0  0  0  0
 23 30  1  0  0  0  0
 23 31  1  0  0  0  0
 23 32  1  0  0  0  0
 24 33  1  0  0  0  0
 24 34  1  0  0  0  0
 24 35  1  0  0  0  0
 36 37  1  0  0  0  0
 36 41  1  0  0  0  0
 37 38  1  0  0  0  0
 37 40  1  0  0  0  0
 37 42  1  0  0  0  0
 38 39  2  0  0  0  0
 38 46  1  0  0  0  0
 40 43  1  0  0  0  0
 40 44  1  0  0  0  0
 40 45  1  0  0  0  0
 46 47  1  0  0  0  0
 46 48  1  0  0  0  0
 47 49  1  0  0  0  0
 47 50  1  0  0  0  0
 47 51  1  0  0  0  0
M  END
$$$$
