
  -OEChem-02062319033D

 42 41  0     1  0  0  0  0  0999 V2000
   -5.7851   -0.9580    0.6237 C   0  0  0  0  0  0  0  0  0  0  0  0
   -6.2213    0.1296    0.2652 O   0  0  0  0  0  0  0  0  0  0  0  0
   -6.7088   -2.1270    0.7168 C   0  0  0  0  0  0  0  0  0  0  0  0
   -7.1713   -2.2193    1.7126 H   0  0  0  0  0  0  0  0  0  0  0  0
   -7.5511   -2.0547    0.0101 H   0  0  0  0  0  0  0  0  0  0  0  0
   -6.2485   -3.1083    0.5191 H   0  0  0  0  0  0  0  0  0  0  0  0
   -4.4733   -1.2411    0.9668 N   0  0  0  0  0  0  0  0  0  0  0  0
   -3.4203   -0.2603    0.9449 C   0  0  2  0  0  0  0  0  0  0  0  0
   -2.1242   -0.9699    0.5759 C   0  0  0  0  0  0  0  0  0  0  0  0
   -1.8694   -2.1225    0.9189 O   0  0  0  0  0  0  0  0  0  0  0  0
   -3.2916    0.4435    2.2868 C   0  0  0  0  0  0  0  0  0  0  0  0
   -4.2421   -2.1920    1.2489 H   0  0  0  0  0  0  0  0  0  0  0  0
   -3.6772    0.4622    0.1625 H   0  0  0  0  0  0  0  0  0  0  0  0
   -3.0345   -0.2644    3.0832 H   0  0  0  0  0  0  0  0  0  0  0  0
   -2.5093    1.2092    2.2599 H   0  0  0  0  0  0  0  0  0  0  0  0
   -4.2338    0.9283    2.5645 H   0  0  0  0  0  0  0  0  0  0  0  0
   -1.2626   -0.1515   -0.1463 N   0  0  0  0  0  0  0  0  0  0  0  0
    0.0262   -0.5922   -0.6112 C   0  0  2  0  0  0  0  0  0  0  0  0
    0.8533   -0.9911    0.6039 C   0  0  0  0  0  0  0  0  0  0  0  0
    1.4954   -2.0375    0.6640 O   0  0  0  0  0  0  0  0  0  0  0  0
    0.7265    0.4941   -1.4126 C   0  0  0  0  0  0  0  0  0  0  0  0
   -1.5651    0.7887   -0.3934 H   0  0  0  0  0  0  0  0  0  0  0  0
   -0.1482   -1.4722   -1.2398 H   0  0  0  0  0  0  0  0  0  0  0  0
    0.9098    1.3840   -0.7993 H   0  0  0  0  0  0  0  0  0  0  0  0
    1.6944    0.1475   -1.7896 H   0  0  0  0  0  0  0  0  0  0  0  0
    0.1168    0.8008   -2.2693 H   0  0  0  0  0  0  0  0  0  0  0  0
    0.7577   -0.0621    1.6343 N   0  0  0  0  0  0  0  0  0  0  0  0
    1.4143   -0.2337    2.9034 C   0  0  2  0  0  0  0  0  0  0  0  0
    0.5437    0.4104    3.9742 C   0  0  0  0  0  0  0  0  0  0  0  0
   -0.1300    1.4188    3.7739 O   0  0  0  0  0  0  0  0  0  0  0  0
    2.8062    0.3787    2.8936 C   0  0  0  0  0  0  0  0  0  0  0  0
    0.2336    0.7967    1.4784 H   0  0  0  0  0  0  0  0  0  0  0  0
    1.4776   -1.3125    3.0835 H   0  0  0  0  0  0  0  0  0  0  0  0
    2.7631    1.4593    2.7146 H   0  0  0  0  0  0  0  0  0  0  0  0
    3.3153    0.2223    3.8504 H   0  0  0  0  0  0  0  0  0  0  0  0
    3.4216   -0.0648    2.1034 H   0  0  0  0  0  0  0  0  0  0  0  0
    0.6412   -0.2483    5.1919 N   0  0  0  0  0  0  0  0  0  0  0  0
   -0.0563    0.1953    6.3763 C   0  0  0  0  0  0  0  0  0  0  0  0
    1.1916   -1.0995    5.2570 H   0  0  0  0  0  0  0  0  0  0  0  0
    0.5950    0.8653    6.9567 H   0  0  0  0  0  0  0  0  0  0  0  0
   -0.9693    0.7346    6.0836 H   0  0  0  0  0  0  0  0  0  0  0  0
   -0.3263   -0.6763    6.9907 H   0  0  0  0  0  0  0  0  0  0  0  0
  1  3  1  0  0  0  0
  1  7  1  0  0  0  0
  1  2  2  0  0  0  0
 28 29  1  0  0  0  0
 29 37  1  0  0  0  0
 29 30  2  0  0  0  0
 18 19  1  0  0  0  0
 19 27  1  0  0  0  0
 19 20  2  0  0  0  0
  8  9  1  0  0  0  0
  9 17  1  0  0  0  0
  9 10  2  0  0  0  0
 28 31  1  0  0  0  0
 18 21  1  0  0  0  0
  8 11  1  0  0  0  0
 37 38  1  0  0  0  0
 27 28  1  0  0  0  0
 17 18  1  0  0  0  0
  7  8  1  0  0  0  0
  3  4  1  0  0  0  0
  3  5  1  0  0  0  0
  3  6  1  0  0  0  0
 31 34  1  0  0  0  0
 31 35  1  0  0  0  0
 31 36  1  0  0  0  0
 21 24  1  0  0  0  0
 21 25  1  0  0  0  0
 21 26  1  0  0  0  0
 11 14  1  0  0  0  0
 11 15  1  0  0  0  0
 11 16  1  0  0  0  0
 38 40  1  0  0  0  0
 38 41  1  0  0  0  0
 38 42  1  0  0  0  0
 28 33  1  0  0  0  0
 18 23  1  0  0  0  0
  8 13  1  0  0  0  0
 37 39  1  0  0  0  0
  7 12  1  0  0  0  0
 27 32  1  0  0  0  0
 17 22  1  0  0  0  0
M  END
$$$$

  -OEChem-02062319033D

 42 41  0     1  0  0  0  0  0999 V2000
   -5.7851   -0.9580    0.6237 C   0  0  0  0  0  0  0  0  0  0  0  0
   -6.2213    0.1296    0.2652 O   0  0  0  0  0  0  0  0  0  0  0  0
   -6.7088   -2.1270    0.7168 C   0  0  0  0  0  0  0  0  0  0  0  0
   -7.1713   -2.2193    1.7126 H   0  0  0  0  0  0  0  0  0  0  0  0
   -7.5511   -2.0547    0.0101 H   0  0  0  0  0  0  0  0  0  0  0  0
   -6.2485   -3.1083    0.5191 H   0  0  0  0  0  0  0  0  0  0  0  0
   -4.4733   -1.2411    0.9668 N   0  0  0  0  0  0  0  0  0  0  0  0
   -3.4203   -0.2603    0.9449 C   0  0  2  0  0  0  0  0  0  0  0  0
   -2.1242   -0.9699    0.5759 C   0  0  0  0  0  0  0  0  0  0  0  0
   -1.8694   -2.1225    0.9189 O   0  0  0  0  0  0  0  0  0  0  0  0
   -3.2916    0.4435    2.2868 C   0  0  0  0  0  0  0  0  0  0  0  0
   -4.2421   -2.1920    1.2489 H   0  0  0  0  0  0  0  0  0  0  0  0
   -3.6772    0.4622    0.1625 H   0  0  0  0  0  0  0  0  0  0  0  0
   -3.0345   -0.2644    3.0832 H   0  0  0  0  0  0  0  0  0  0  0  0
   -2.5093    1.2092    2.2599 H   0  0  0  0  0  0  0  0  0  0  0  0
   -4.2338    0.9283    2.5645 H   0  0  0  0  0  0  0  0  0  0  0  0
   -1.2626   -0.1515   -0.1463 N   0  0  0  0  0  0  0  0  0  0  0  0
   -0.1313   -0.6602   -0.8762 C   0  0  2  0  0  0  0  0  0  0  0  0
    0.7916   -1.3586    0.1138 C   0  0  0  0  0  0  0  0  0  0  0  0
    1.2751   -2.4704   -0.0893 O   0  0  0  0  0  0  0  0  0  0  0  0
    0.6006    0.4533   -1.6090 C   0  0  0  0  0  0  0  0  0  0  0  0
   -1.4556    0.8469   -0.1969 H   0  0  0  0  0  0  0  0  0  0  0  0
   -0.5201   -1.3920   -1.5926 H   0  0  0  0  0  0  0  0  0  0  0  0
    0.9974    1.1962   -0.9075 H   0  0  0  0  0  0  0  0  0  0  0  0
    1.4440    0.0607   -2.1867 H   0  0  0  0  0  0  0  0  0  0  0  0
   -0.0724    0.9739   -2.2989 H   0  0  0  0  0  0  0  0  0  0  0  0
    0.9801   -0.6146    1.2735 N   0  0  0  0  0  0  0  0  0  0  0  0
    1.7771   -1.0793    2.3781 C   0  0  2  0  0  0  0  0  0  0  0  0
    1.1708   -0.5262    3.6610 C   0  0  0  0  0  0  0  0  0  0  0  0
    0.6310    0.5762    3.7269 O   0  0  0  0  0  0  0  0  0  0  0  0
    3.2284   -0.6486    2.2331 C   0  0  0  0  0  0  0  0  0  0  0  0
    0.5711    0.3156    1.3358 H   0  0  0  0  0  0  0  0  0  0  0  0
    1.7061   -2.1725    2.3816 H   0  0  0  0  0  0  0  0  0  0  0  0
    3.3195    0.4437    2.2276 H   0  0  0  0  0  0  0  0  0  0  0  0
    3.8391   -1.0270    3.0595 H   0  0  0  0  0  0  0  0  0  0  0  0
    3.6540   -1.0224    1.2955 H   0  0  0  0  0  0  0  0  0  0  0  0
    1.3416   -1.3901    4.7337 N   0  0  0  0  0  0  0  0  0  0  0  0
    0.8913   -1.0735    6.0690 C   0  0  0  0  0  0  0  0  0  0  0  0
    1.7647   -2.3006    4.5796 H   0  0  0  0  0  0  0  0  0  0  0  0
    1.7094   -0.5970    6.6291 H   0  0  0  0  0  0  0  0  0  0  0  0
    0.0353   -0.3849    6.0136 H   0  0  0  0  0  0  0  0  0  0  0  0
    0.5858   -1.9976    6.5816 H   0  0  0  0  0  0  0  0  0  0  0  0
  1  3  1  0  0  0  0
  1  7  1  0  0  0  0
  1  2  2  0  0  0  0
 28 29  1  0  0  0  0
 29 37  1  0  0  0  0
 29 30  2  0  0  0  0
 18 19  1  0  0  0  0
 19 27  1  0  0  0  0
 19 20  2  0  0  0  0
  8  9  1  0  0  0  0
  9 17  1  0  0  0  0
  9 10  2  0  0  0  0
 28 31  1  0  0  0  0
 18 21  1  0  0  0  0
  8 11  1  0  0  0  0
 37 38  1  0  0  0  0
 27 28  1  0  0  0  0
 17 18  1  0  0  0  0
  7  8  1  0  0  0  0
  3  4  1  0  0  0  0
  3  5  1  0  0  0  0
  3  6  1  0  0  0  0
 31 34  1  0  0  0  0
 31 35  1  0  0  0  0
 31 36  1  0  0  0  0
 21 24  1  0  0  0  0
 21 25  1  0  0  0  0
 21 26  1  0  0  0  0
 11 14  1  0  0  0  0
 11 15  1  0  0  0  0
 11 16  1  0  0  0  0
 38 40  1  0  0  0  0
 38 41  1  0  0  0  0
 38 42  1  0  0  0  0
 28 33  1  0  0  0  0
 18 23  1  0  0  0  0
  8 13  1  0  0  0  0
 37 39  1  0  0  0  0
  7 12  1  0  0  0  0
 27 32  1  0  0  0  0
 17 22  1  0  0  0  0
M  END
$$$$

  -OEChem-02062319033D

 42 41  0     1  0  0  0  0  0999 V2000
   -5.7851   -0.9580    0.6237 C   0  0  0  0  0  0  0  0  0  0  0  0
   -6.2213    0.1296    0.2652 O   0  0  0  0  0  0  0  0  0  0  0  0
   -6.7088   -2.1270    0.7168 C   0  0  0  0  0  0  0  0  0  0  0  0
   -7.1713   -2.2193    1.7126 H   0  0  0  0  0  0  0  0  0  0  0  0
   -7.5511   -2.0547    0.0101 H   0  0  0  0  0  0  0  0  0  0  0  0
   -6.2485   -3.1083    0.5191 H   0  0  0  0  0  0  0  0  0  0  0  0
   -4.4733   -1.2411    0.9668 N   0  0  0  0  0  0  0  0  0  0  0  0
   -3.4203   -0.2603    0.9449 C   0  0  2  0  0  0  0  0  0  0  0  0
   -2.1242   -0.9699    0.5759 C   0  0  0  0  0  0  0  0  0  0  0  0
   -1.8694   -2.1225    0.9189 O   0  0  0  0  0  0  0  0  0  0  0  0
   -3.2916    0.4435    2.2868 C   0  0  0  0  0  0  0  0  0  0  0  0
   -4.2421   -2.1920    1.2489 H   0  0  0  0  0  0  0  0  0  0  0  0
   -3.6772    0.4622    0.1625 H   0  0  0  0  0  0  0  0  0  0  0  0
   -3.0345   -0.2644    3.0832 H   0  0  0  0  0  0  0  0  0  0  0  0
   -2.5093    1.2092    2.2599 H   0  0  0  0  0  0  0  0  0  0  0  0
   -4.2338    0.9283    2.5645 H   0  0  0  0  0  0  0  0  0  0  0  0
   -1.2626   -0.1515   -0.1463 N   0  0  0  0  0  0  0  0  0  0  0  0
   -0.3329   -0.6623   -1.1190 C   0  0  2  0  0  0  0  0  0  0  0  0
    0.6080   -1.6268   -0.4091 C   0  0  0  0  0  0  0  0  0  0  0  0
    0.8894   -2.7381   -0.8528 O   0  0  0  0  0  0  0  0  0  0  0  0
    0.4435    0.4623   -1.7862 C   0  0  0  0  0  0  0  0  0  0  0  0
   -1.3121    0.8568   -0.0144 H   0  0  0  0  0  0  0  0  0  0  0  0
   -0.9223   -1.2080   -1.8639 H   0  0  0  0  0  0  0  0  0  0  0  0
    1.0403    1.0205   -1.0555 H   0  0  0  0  0  0  0  0  0  0  0  0
    1.1299    0.0743   -2.5460 H   0  0  0  0  0  0  0  0  0  0  0  0
   -0.2364    1.1712   -2.2710 H   0  0  0  0  0  0  0  0  0  0  0  0
    1.0657   -1.1204    0.8025 N   0  0  0  0  0  0  0  0  0  0  0  0
    1.9339   -1.8606    1.6798 C   0  0  2  0  0  0  0  0  0  0  0  0
    1.6029   -1.4649    3.1127 C   0  0  0  0  0  0  0  0  0  0  0  0
    1.2456   -0.3325    3.4304 O   0  0  0  0  0  0  0  0  0  0  0  0
    3.3975   -1.5918    1.3660 C   0  0  0  0  0  0  0  0  0  0  0  0
    0.8107   -0.1716    1.0695 H   0  0  0  0  0  0  0  0  0  0  0  0
    1.7043   -2.9213    1.5309 H   0  0  0  0  0  0  0  0  0  0  0  0
    3.6463   -0.5340    1.5095 H   0  0  0  0  0  0  0  0  0  0  0  0
    4.0565   -2.1774    2.0154 H   0  0  0  0  0  0  0  0  0  0  0  0
    3.6267   -1.8490    0.3263 H   0  0  0  0  0  0  0  0  0  0  0  0
    1.7949   -2.5136    4.0013 N   0  0  0  0  0  0  0  0  0  0  0  0
    1.5893   -2.3772    5.4244 C   0  0  0  0  0  0  0  0  0  0  0  0
    2.0536   -3.4291    3.6455 H   0  0  0  0  0  0  0  0  0  0  0  0
    2.5394   -2.1068    5.9084 H   0  0  0  0  0  0  0  0  0  0  0  0
    0.8446   -1.5900    5.6134 H   0  0  0  0  0  0  0  0  0  0  0  0
    1.2270   -3.3310    5.8355 H   0  0  0  0  0  0  0  0  0  0  0  0
  1  3  1  0  0  0  0
  1  7  1  0  0  0  0
  1  2  2  0  0  0  0
 28 29  1  0  0  0  0
 29 37  1  0  0  0  0
 29 30  2  0  0  0  0
 18 19  1  0  0  0  0
 19 27  1  0  0  0  0
 19 20  2  0  0  0  0
  8  9  1  0  0  0  0
  9 17  1  0  0  0  0
  9 10  2  0  0  0  0
 28 31  1  0  0  0  0
 18 21  1  0  0  0  0
  8 11  1  0  0  0  0
 37 38  1  0  0  0  0
 27 28  1  0  0  0  0
 17 18  1  0  0  0  0
  7  8  1  0  0  0  0
  3  4  1  0  0  0  0
  3  5  1  0  0  0  0
  3  6  1  0  0  0  0
 31 34  1  0  0  0  0
 31 35  1  0  0  0  0
 31 36  1  0  0  0  0
 21 24  1  0  0  0  0
 21 25  1  0  0  0  0
 21 26  1  0  0  0  0
 11 14  1  0  0  0  0
 11 15  1  0  0  0  0
 11 16  1  0  0  0  0
 38 40  1  0  0  0  0
 38 41  1  0  0  0  0
 38 42  1  0  0  0  0
 28 33  1  0  0  0  0
 18 23  1  0  0  0  0
  8 13  1  0  0  0  0
 37 39  1  0  0  0  0
  7 12  1  0  0  0  0
 27 32  1  0  0  0  0
 17 22  1  0  0  0  0
M  END
$$$$

  -OEChem-02062319033D

 42 41  0     1  0  0  0  0  0999 V2000
   -5.7851   -0.9580    0.6237 C   0  0  0  0  0  0  0  0  0  0  0  0
   -6.2213    0.1296    0.2652 O   0  0  0  0  0  0  0  0  0  0  0  0
   -6.7088   -2.1270    0.7168 C   0  0  0  0  0  0  0  0  0  0  0  0
   -7.1713   -2.2193    1.7126 H   0  0  0  0  0  0  0  0  0  0  0  0
   -7.5511   -2.0547    0.0101 H   0  0  0  0  0  0  0  0  0  0  0  0
   -6.2485   -3.1083    0.5191 H   0  0  0  0  0  0  0  0  0  0  0  0
   -4.4733   -1.2411    0.9668 N   0  0  0  0  0  0  0  0  0  0  0  0
   -3.4203   -0.2603    0.9449 C   0  0  2  0  0  0  0  0  0  0  0  0
   -2.1242   -0.9699    0.5759 C   0  0  0  0  0  0  0  0  0  0  0  0
   -1.8694   -2.1225    0.9189 O   0  0  0  0  0  0  0  0  0  0  0  0
   -3.2916    0.4435    2.2868 C   0  0  0  0  0  0  0  0  0  0  0  0
   -4.2421   -2.1920    1.2489 H   0  0  0  0  0  0  0  0  0  0  0  0
   -3.6772    0.4622    0.1625 H   0  0  0  0  0  0  0  0  0  0  0  0
   -3.0345   -0.2644    3.0832 H   0  0  0  0  0  0  0  0  0  0  0  0
   -2.5093    1.2092    2.2599 H   0  0  0  0  0  0  0  0  0  0  0  0
   -4.2338    0.9283    2.5645 H   0  0  0  0  0  0  0  0  0  0  0  0
   -1.2626   -0.1515   -0.1463 N   0  0  0  0  0  0  0  0  0  0  0  0
   -0.5649   -0.5982   -1.3232 C   0  0  2  0  0  0  0  0  0  0  0  0
    0.3149   -1.7773   -0.9292 C   0  0  0  0  0  0  0  0  0  0  0  0
    0.3645   -2.8224   -1.5744 O   0  0  0  0  0  0  0  0  0  0  0  0
    0.2661    0.5206   -1.9319 C   0  0  0  0  0  0  0  0  0  0  0  0
   -1.1443    0.8179    0.1416 H   0  0  0  0  0  0  0  0  0  0  0  0
   -1.3274   -0.9326   -2.0351 H   0  0  0  0  0  0  0  0  0  0  0  0
    1.0355    0.8687   -1.2332 H   0  0  0  0  0  0  0  0  0  0  0  0
    0.7736    0.1872   -2.8431 H   0  0  0  0  0  0  0  0  0  0  0  0
   -0.3640    1.3794   -2.1873 H   0  0  0  0  0  0  0  0  0  0  0  0
    1.0087   -1.5449    0.2534 N   0  0  0  0  0  0  0  0  0  0  0  0
    1.8740   -2.5244    0.8561 C   0  0  2  0  0  0  0  0  0  0  0  0
    1.8105   -2.3418    2.3668 C   0  0  0  0  0  0  0  0  0  0  0  0
    1.6720   -1.2452    2.9047 O   0  0  0  0  0  0  0  0  0  0  0  0
    3.3019   -2.3865    0.3515 C   0  0  0  0  0  0  0  0  0  0  0  0
    0.9361   -0.6317    0.6977 H   0  0  0  0  0  0  0  0  0  0  0  0
    1.4724   -3.5080    0.5894 H   0  0  0  0  0  0  0  0  0  0  0  0
    3.7212   -1.4071    0.6094 H   0  0  0  0  0  0  0  0  0  0  0  0
    3.9530   -3.1504    0.7893 H   0  0  0  0  0  0  0  0  0  0  0  0
    3.3416   -2.4884   -0.7384 H   0  0  0  0  0  0  0  0  0  0  0  0
    1.9701   -3.5423    3.0447 N   0  0  0  0  0  0  0  0  0  0  0  0
    1.9901   -3.6269    4.4864 C   0  0  0  0  0  0  0  0  0  0  0  0
    2.0386   -4.4082    2.5182 H   0  0  0  0  0  0  0  0  0  0  0  0
    3.0283   -3.5611    4.8438 H   0  0  0  0  0  0  0  0  0  0  0  0
    1.4033   -2.7986    4.9103 H   0  0  0  0  0  0  0  0  0  0  0  0
    1.5534   -4.5854    4.8034 H   0  0  0  0  0  0  0  0  0  0  0  0
  1  3  1  0  0  0  0
  1  7  1  0  0  0  0
  1  2  2  0  0  0  0
 28 29  1  0  0  0  0
 29 37  1  0  0  0  0
 29 30  2  0  0  0  0
 18 19  1  0  0  0  0
 19 27  1  0  0  0  0
 19 20  2  0  0  0  0
  8  9  1  0  0  0  0
  9 17  1  0  0  0  0
  9 10  2  0  0  0  0
 28 31  1  0  0  0  0
 18 21  1  0  0  0  0
  8 11  1  0  0  0  0
 37 38  1  0  0  0  0
 27 28  1  0  0  0  0
 17 18  1  0  0  0  0
  7  8  1  0  0  0  0
  3  4  1  0  0  0  0
  3  5  1  0  0  0  0
  3  6  1  0  0  0  0
 31 34  1  0  0  0  0
 31 35  1  0  0  0  0
 31 36  1  0  0  0  0
 21 24  1  0  0  0  0
 21 25  1  0  0  0  0
 21 26  1  0  0  0  0
 11 14  1  0  0  0  0
 11 15  1  0  0  0  0
 11 16  1  0  0  0  0
 38 40  1  0  0  0  0
 38 41  1  0  0  0  0
 38 42  1  0  0  0  0
 28 33  1  0  0  0  0
 18 23  1  0  0  0  0
  8 13  1  0  0  0  0
 37 39  1  0  0  0  0
  7 12  1  0  0  0  0
 27 32  1  0  0  0  0
 17 22  1  0  0  0  0
M  END
$$$$

  -OEChem-02062319033D

 42 41  0     1  0  0  0  0  0999 V2000
   -5.7851   -0.9580    0.6237 C   0  0  0  0  0  0  0  0  0  0  0  0
   -6.2213    0.1296    0.2652 O   0  0  0  0  0  0  0  0  0  0  0  0
   -6.7088   -2.1270    0.7168 C   0  0  0  0  0  0  0  0  0  0  0  0
   -7.1713   -2.2193    1.7126 H   0  0  0  0  0  0  0  0  0  0  0  0
   -7.5511   -2.0547    0.0101 H   0  0  0  0  0  0  0  0  0  0  0  0
   -6.2485   -3.1083    0.5191 H   0  0  0  0  0  0  0  0  0  0  0  0
   -4.4733   -1.2411    0.9668 N   0  0  0  0  0  0  0  0  0  0  0  0
   -3.4203   -0.2603    0.9449 C   0  0  2  0  0  0  0  0  0  0  0  0
   -2.1242   -0.9699    0.5759 C   0  0  0  0  0  0  0  0  0  0  0  0
   -1.8694   -2.1225    0.9189 O   0  0  0  0  0  0  0  0  0  0  0  0
   -3.2916    0.4435    2.2868 C   0  0  0  0  0  0  0  0  0  0  0  0
   -4.2421   -2.1920    1.2489 H   0  0  0  0  0  0  0  0  0  0  0  0
   -3.6772    0.4622    0.1625 H   0  0  0  0  0  0  0  0  0  0  0  0
   -3.0345   -0.2644    3.0832 H   0  0  0  0  0  0  0  0  0  0  0  0
   -2.5093    1.2092    2.2599 H   0  0  0  0  0  0  0  0  0  0  0  0
   -4.2338    0.9283    2.5645 H   0  0  0  0  0  0  0  0  0  0  0  0
   -1.2626   -0.1515   -0.1463 N   0  0  0  0  0  0  0  0  0  0  0  0
   -0.8115   -0.4724   -1.4748 C   0  0  2  0  0  0  0  0  0  0  0  0
   -0.0676   -1.7998   -1.4111 C   0  0  0  0  0  0  0  0  0  0  0  0
   -0.2638   -2.7175   -2.2051 O   0  0  0  0  0  0  0  0  0  0  0  0
    0.0803    0.6240   -2.0364 C   0  0  0  0  0  0  0  0  0  0  0  0
   -0.9638    0.7327    0.2605 H   0  0  0  0  0  0  0  0  0  0  0  0
   -1.7077   -0.5848   -2.0946 H   0  0  0  0  0  0  0  0  0  0  0  0
    0.9834    0.7512   -1.4284 H   0  0  0  0  0  0  0  0  0  0  0  0
    0.3994    0.3917   -3.0577 H   0  0  0  0  0  0  0  0  0  0  0  0
   -0.4466    1.5842   -2.0537 H   0  0  0  0  0  0  0  0  0  0  0  0
    0.8129   -1.8592   -0.3364 N   0  0  0  0  0  0  0  0  0  0  0  0
    1.6014   -3.0254   -0.0368 C   0  0  2  0  0  0  0  0  0  0  0  0
    1.7796   -3.0972    1.4740 C   0  0  0  0  0  0  0  0  0  0  0  0
    1.8810   -2.1000    2.1856 O   0  0  0  0  0  0  0  0  0  0  0  0
    2.9482   -2.9786   -0.7414 C   0  0  0  0  0  0  0  0  0  0  0  0
    0.9387   -1.0334    0.2457 H   0  0  0  0  0  0  0  0  0  0  0  0
    1.0261   -3.8926   -0.3788 H   0  0  0  0  0  0  0  0  0  0  0  0
    3.5390   -2.1163   -0.4115 H   0  0  0  0  0  0  0  0  0  0  0  0
    3.5353   -3.8797   -0.5353 H   0  0  0  0  0  0  0  0  0  0  0  0
    2.8181   -2.8970   -1.8259 H   0  0  0  0  0  0  0  0  0  0  0  0
    1.8554   -4.4061    1.9290 N   0  0  0  0  0  0  0  0  0  0  0  0
    2.0663   -4.7375    3.3189 C   0  0  0  0  0  0  0  0  0  0  0  0
    1.7209   -5.1712    1.2745 H   0  0  0  0  0  0  0  0  0  0  0  0
    3.1429   -4.8608    3.5077 H   0  0  0  0  0  0  0  0  0  0  0  0
    1.6734   -3.9285    3.9522 H   0  0  0  0  0  0  0  0  0  0  0  0
    1.5428   -5.6755    3.5556 H   0  0  0  0  0  0  0  0  0  0  0  0
  1  3  1  0  0  0  0
  1  7  1  0  0  0  0
  1  2  2  0  0  0  0
 28 29  1  0  0  0  0
 29 37  1  0  0  0  0
 29 30  2  0  0  0  0
 18 19  1  0  0  0  0
 19 27  1  0  0  0  0
 19 20  2  0  0  0  0
  8  9  1  0  0  0  0
  9 17  1  0  0  0  0
  9 10  2  0  0  0  0
 28 31  1  0  0  0  0
 18 21  1  0  0  0  0
  8 11  1  0  0  0  0
 37 38  1  0  0  0  0
 27 28  1  0  0  0  0
 17 18  1  0  0  0  0
  7  8  1  0  0  0  0
  3  4  1  0  0  0  0
  3  5  1  0  0  0  0
  3  6  1  0  0  0  0
 31 34  1  0  0  0  0
 31 35  1  0  0  0  0
 31 36  1  0  0  0  0
 21 24  1  0  0  0  0
 21 25  1  0  0  0  0
 21 26  1  0  0  0  0
 11 14  1  0  0  0  0
 11 15  1  0  0  0  0
 11 16  1  0  0  0  0
 38 40  1  0  0  0  0
 38 41  1  0  0  0  0
 38 42  1  0  0  0  0
 28 33  1  0  0  0  0
 18 23  1  0  0  0  0
  8 13  1  0  0  0  0
 37 39  1  0  0  0  0
  7 12  1  0  0  0  0
 27 32  1  0  0  0  0
 17 22  1  0  0  0  0
M  END
$$$$

  -OEChem-02062319033D

 42 41  0     1  0  0  0  0  0999 V2000
   -5.7851   -0.9580    0.6237 C   0  0  0  0  0  0  0  0  0  0  0  0
   -6.2213    0.1296    0.2652 O   0  0  0  0  0  0  0  0  0  0  0  0
   -6.7088   -2.1270    0.7168 C   0  0  0  0  0  0  0  0  0  0  0  0
   -7.1713   -2.2193    1.7126 H   0  0  0  0  0  0  0  0  0  0  0  0
   -7.5511   -2.0547    0.0101 H   0  0  0  0  0  0  0  0  0  0  0  0
   -6.2485   -3.1083    0.5191 H   0  0  0  0  0  0  0  0  0  0  0  0
   -4.4733   -1.2411    0.9668 N   0  0  0  0  0  0  0  0  0  0  0  0
   -3.4203   -0.2603    0.9449 C   0  0  2  0  0  0  0  0  0  0  0  0
   -2.1242   -0.9699    0.5759 C   0  0  0  0  0  0  0  0  0  0  0  0
   -1.8694   -2.1225    0.9189 O   0  0  0  0  0  0  0  0  0  0  0  0
   -3.2916    0.4435    2.2868 C   0  0  0  0  0  0  0  0  0  0  0  0
   -4.2421   -2.1920    1.2489 H   0  0  0  0  0  0  0  0  0  0  0  0
   -3.6772    0.4622    0.1625 H   0  0  0  0  0  0  0  0  0  0  0  0
   -3.0345   -0.2644    3.0832 H   0  0  0  0  0  0  0  0  0  0  0  0
   -2.5093    1.2092    2.2599 H   0  0  0  0  0  0  0  0  0  0  0  0
   -4.2338    0.9283    2.5645 H   0  0  0  0  0  0  0  0  0  0  0  0
   -1.2626   -0.1515   -0.1463 N   0  0  0  0  0  0  0  0  0  0  0  0
   -1.0559   -0.2934   -1.5636 C   0  0  2  0  0  0  0  0  0  0  0  0
   -0.5135   -1.6929   -1.8219 C   0  0  0  0  0  0  0  0  0  0  0  0
   -0.9526   -2.4306   -2.7017 O   0  0  0  0  0  0  0  0  0  0  0  0
   -0.1012    0.7657   -2.0923 C   0  0  0  0  0  0  0  0  0  0  0  0
   -0.7827    0.6071    0.3341 H   0  0  0  0  0  0  0  0  0  0  0  0
   -2.0374   -0.1881   -2.0385 H   0  0  0  0  0  0  0  0  0  0  0  0
    0.8876    0.6760   -1.6279 H   0  0  0  0  0  0  0  0  0  0  0  0
    0.0327    0.6741   -3.1752 H   0  0  0  0  0  0  0  0  0  0  0  0
   -0.4785    1.7717   -1.8792 H   0  0  0  0  0  0  0  0  0  0  0  0
    0.4917   -2.0420   -0.9266 N   0  0  0  0  0  0  0  0  0  0  0  0
    1.1347   -3.3295   -0.9381 C   0  0  2  0  0  0  0  0  0  0  0  0
    1.5122   -3.6794    0.4953 C   0  0  0  0  0  0  0  0  0  0  0  0
    1.8585   -2.8383    1.3221 O   0  0  0  0  0  0  0  0  0  0  0  0
    2.3606   -3.3278   -1.8381 C   0  0  0  0  0  0  0  0  0  0  0  0
    0.8184   -1.3493   -0.2558 H   0  0  0  0  0  0  0  0  0  0  0  0
    0.3958   -4.0488   -1.3077 H   0  0  0  0  0  0  0  0  0  0  0  0
    3.1122   -2.6130   -1.4835 H   0  0  0  0  0  0  0  0  0  0  0  0
    2.8321   -4.3156   -1.8681 H   0  0  0  0  0  0  0  0  0  0  0  0
    2.0918   -3.0469   -2.8621 H   0  0  0  0  0  0  0  0  0  0  0  0
    1.4585   -5.0462    0.7303 N   0  0  0  0  0  0  0  0  0  0  0  0
    1.8128   -5.6332    2.0015 C   0  0  0  0  0  0  0  0  0  0  0  0
    1.1220   -5.6660   -0.0007 H   0  0  0  0  0  0  0  0  0  0  0  0
    2.8754   -5.9174    1.9913 H   0  0  0  0  0  0  0  0  0  0  0  0
    1.6365   -4.9025    2.8045 H   0  0  0  0  0  0  0  0  0  0  0  0
    1.1960   -6.5270    2.1771 H   0  0  0  0  0  0  0  0  0  0  0  0
  1  3  1  0  0  0  0
  1  7  1  0  0  0  0
  1  2  2  0  0  0  0
 28 29  1  0  0  0  0
 29 37  1  0  0  0  0
 29 30  2  0  0  0  0
 18 19  1  0  0  0  0
 19 27  1  0  0  0  0
 19 20  2  0  0  0  0
  8  9  1  0  0  0  0
  9 17  1  0  0  0  0
  9 10  2  0  0  0  0
 28 31  1  0  0  0  0
 18 21  1  0  0  0  0
  8 11  1  0  0  0  0
 37 38  1  0  0  0  0
 27 28  1  0  0  0  0
 17 18  1  0  0  0  0
  7  8  1  0  0  0  0
  3  4  1  0  0  0  0
  3  5  1  0  0  0  0
  3  6  1  0  0  0  0
 31 34  1  0  0  0  0
 31 35  1  0  0  0  0
 31 36  1  0  0  0  0
 21 24  1  0  0  0  0
 21 25  1  0  0  0  0
 21 26  1  0  0  0  0
 11 14  1  0  0  0  0
 11 15  1  0  0  0  0
 11 16  1  0  0  0  0
 38 40  1  0  0  0  0
 38 41  1  0  0  0  0
 38 42  1  0  0  0  0
 28 33  1  0  0  0  0
 18 23  1  0  0  0  0
  8 13  1  0  0  0  0
 37 39  1  0  0  0  0
  7 12  1  0  0  0  0
 27 32  1  0  0  0  0
 17 22  1  0  0  0  0
M  END
$$$$

  -OEChem-02062319033D

 42 41  0     1  0  0  0  0  0999 V2000
   -5.7851   -0.9580    0.6237 C   0  0  0  0  0  0  0  0  0  0  0  0
   -6.2213    0.1296    0.2652 O   0  0  0  0  0  0  0  0  0  0  0  0
   -6.7088   -2.1270    0.7168 C   0  0  0  0  0  0  0  0  0  0  0  0
   -7.1713   -2.2193    1.7126 H   0  0  0  0  0  0  0  0  0  0  0  0
   -7.5511   -2.0547    0.0101 H   0  0  0  0  0  0  0  0  0  0  0  0
   -6.2485   -3.1083    0.5191 H   0  0  0  0  0  0  0  0  0  0  0  0
   -4.4733   -1.2411    0.9668 N   0  0  0  0  0  0  0  0  0  0  0  0
   -3.4203   -0.2603    0.9449 C   0  0  2  0  0  0  0  0  0  0  0  0
   -2.1242   -0.9699    0.5759 C   0  0  0  0  0  0  0  0  0  0  0  0
   -1.8694   -2.1225    0.9189 O   0  0  0  0  0  0  0  0  0  0  0  0
   -3.2916    0.4435    2.2868 C   0  0  0  0  0  0  0  0  0  0  0  0
   -4.2421   -2.1920    1.2489 H   0  0  0  0  0  0  0  0  0  0  0  0
   -3.6772    0.4622    0.1625 H   0  0  0  0  0  0  0  0  0  0  0  0
   -3.0345   -0.2644    3.0832 H   0  0  0  0  0  0  0  0  0  0  0  0
   -2.5093    1.2092    2.2599 H   0  0  0  0  0  0  0  0  0  0  0  0
   -4.2338    0.9283    2.5645 H   0  0  0  0  0  0  0  0  0  0  0  0
   -1.2626   -0.1515   -0.1463 N   0  0  0  0  0  0  0  0  0  0  0  0
   -1.2814   -0.0735   -1.5833 C   0  0  2  0  0  0  0  0  0  0  0  0
   -0.9924   -1.4638   -2.1337 C   0  0  0  0  0  0  0  0  0  0  0  0
   -1.6550   -1.9813   -3.0305 O   0  0  0  0  0  0  0  0  0  0  0  0
   -0.2660    0.9359   -2.0960 C   0  0  0  0  0  0  0  0  0  0  0  0
   -0.6135    0.4496    0.3576 H   0  0  0  0  0  0  0  0  0  0  0  0
   -2.2940    0.2304   -1.8703 H   0  0  0  0  0  0  0  0  0  0  0  0
    0.7546    0.6483   -1.8181 H   0  0  0  0  0  0  0  0  0  0  0  0
   -0.3014    1.0149   -3.1876 H   0  0  0  0  0  0  0  0  0  0  0  0
   -0.4575    1.9292   -1.6758 H   0  0  0  0  0  0  0  0  0  0  0  0
    0.0669   -2.0806   -1.4771 N   0  0  0  0  0  0  0  0  0  0  0  0
    0.5058   -3.4160   -1.7863 C   0  0  2  0  0  0  0  0  0  0  0  0
    1.0266   -4.0490   -0.5028 C   0  0  0  0  0  0  0  0  0  0  0  0
    1.6060   -3.4100    0.3731 O   0  0  0  0  0  0  0  0  0  0  0  0
    1.5789   -3.4101   -2.8638 C   0  0  0  0  0  0  0  0  0  0  0  0
    0.5834   -1.5578   -0.7724 H   0  0  0  0  0  0  0  0  0  0  0  0
   -0.3755   -3.9660   -2.1340 H   0  0  0  0  0  0  0  0  0  0  0  0
    2.4698   -2.8635   -2.5337 H   0  0  0  0  0  0  0  0  0  0  0  0
    1.8913   -4.4283   -3.1183 H   0  0  0  0  0  0  0  0  0  0  0  0
    1.2123   -2.9278   -3.7764 H   0  0  0  0  0  0  0  0  0  0  0  0
    0.8065   -5.4189   -0.4698 N   0  0  0  0  0  0  0  0  0  0  0  0
    1.2468   -6.2531    0.6239 C   0  0  0  0  0  0  0  0  0  0  0  0
    0.2827   -5.8590   -1.2205 H   0  0  0  0  0  0  0  0  0  0  0  0
    2.2440   -6.6589    0.3978 H   0  0  0  0  0  0  0  0  0  0  0  0
    1.2951   -5.6543    1.5453 H   0  0  0  0  0  0  0  0  0  0  0  0
    0.5366   -7.0817    0.7618 H   0  0  0  0  0  0  0  0  0  0  0  0
  1  3  1  0  0  0  0
  1  7  1  0  0  0  0
  1  2  2  0  0  0  0
 28 29  1  0  0  0  0
 29 37  1  0  0  0  0
 29 30  2  0  0  0  0
 18 19  1  0  0  0  0
 19 27  1  0  0  0  0
 19 20  2  0  0  0  0
  8  9  1  0  0  0  0
  9 17  1  0  0  0  0
  9 10  2  0  0  0  0
 28 31  1  0  0  0  0
 18 21  1  0  0  0  0
  8 11  1  0  0  0  0
 37 38  1  0  0  0  0
 27 28  1  0  0  0  0
 17 18  1  0  0  0  0
  7  8  1  0  0  0  0
  3  4  1  0  0  0  0
  3  5  1  0  0  0  0
  3  6  1  0  0  0  0
 31 34  1  0  0  0  0
 31 35  1  0  0  0  0
 31 36  1  0  0  0  0
 21 24  1  0  0  0  0
 21 25  1  0  0  0  0
 21 26  1  0  0  0  0
 11 14  1  0  0  0  0
 11 15  1  0  0  0  0
 11 16  1  0  0  0  0
 38 40  1  0  0  0  0
 38 41  1  0  0  0  0
 38 42  1  0  0  0  0
 28 33  1  0  0  0  0
 18 23  1  0  0  0  0
  8 13  1  0  0  0  0
 37 39  1  0  0  0  0
  7 12  1  0  0  0  0
 27 32  1  0  0  0  0
 17 22  1  0  0  0  0
M  END
$$$$

  -OEChem-02062319033D

 42 41  0     1  0  0  0  0  0999 V2000
   -5.7851   -0.9580    0.6237 C   0  0  0  0  0  0  0  0  0  0  0  0
   -6.2213    0.1296    0.2652 O   0  0  0  0  0  0  0  0  0  0  0  0
   -6.7088   -2.1270    0.7168 C   0  0  0  0  0  0  0  0  0  0  0  0
   -7.1713   -2.2193    1.7126 H   0  0  0  0  0  0  0  0  0  0  0  0
   -7.5511   -2.0547    0.0101 H   0  0  0  0  0  0  0  0  0  0  0  0
   -6.2485   -3.1083    0.5191 H   0  0  0  0  0  0  0  0  0  0  0  0
   -4.4733   -1.2411    0.9668 N   0  0  0  0  0  0  0  0  0  0  0  0
   -3.4203   -0.2603    0.9449 C   0  0  2  0  0  0  0  0  0  0  0  0
   -2.1242   -0.9699    0.5759 C   0  0  0  0  0  0  0  0  0  0  0  0
   -1.8694   -2.1225    0.9189 O   0  0  0  0  0  0  0  0  0  0  0  0
   -3.2916    0.4435    2.2868 C   0  0  0  0  0  0  0  0  0  0  0  0
   -4.2421   -2.1920    1.2489 H   0  0  0  0  0  0  0  0  0  0  0  0
   -3.6772    0.4622    0.1625 H   0  0  0  0  0  0  0  0  0  0  0  0
   -3.0345   -0.2644    3.0832 H   0  0  0  0  0  0  0  0  0  0  0  0
   -2.5093    1.2092    2.2599 H   0  0  0  0  0  0  0  0  0  0  0  0
   -4.2338    0.9283    2.5645 H   0  0  0  0  0  0  0  0  0  0  0  0
   -1.2626   -0.1515   -0.1463 N   0  0  0  0  0  0  0  0  0  0  0  0
   -1.4727    0.1725   -1.5328 C   0  0  2  0  0  0  0  0  0  0  0  0
   -1.4717   -1.1282   -2.3251 C   0  0  0  0  0  0  0  0  0  0  0  0
   -2.3232   -1.4002   -3.1690 O   0  0  0  0  0  0  0  0  0  0  0  0
   -0.4028    1.1231   -2.0472 C   0  0  0  0  0  0  0  0  0  0  0  0
   -0.4676    0.2709    0.3291 H   0  0  0  0  0  0  0  0  0  0  0  0
   -2.4600    0.6421   -1.6018 H   0  0  0  0  0  0  0  0  0  0  0  0
    0.5933    0.6699   -1.9859 H   0  0  0  0  0  0  0  0  0  0  0  0
   -0.5802    1.3910   -3.0940 H   0  0  0  0  0  0  0  0  0  0  0  0
   -0.3850    2.0458   -1.4572 H   0  0  0  0  0  0  0  0  0  0  0  0
   -0.4324   -1.9726   -1.9503 N   0  0  0  0  0  0  0  0  0  0  0  0
   -0.2426   -3.2789   -2.5238 C   0  0  2  0  0  0  0  0  0  0  0  0
    0.3558   -4.1806   -1.4521 C   0  0  0  0  0  0  0  0  0  0  0  0
    1.1407   -3.7761   -0.5969 O   0  0  0  0  0  0  0  0  0  0  0  0
    0.6566   -3.2201   -3.7488 C   0  0  0  0  0  0  0  0  0  0  0  0
    0.2496   -1.6448   -1.2692 H   0  0  0  0  0  0  0  0  0  0  0  0
   -1.2353   -3.6498   -2.8013 H   0  0  0  0  0  0  0  0  0  0  0  0
    1.6557   -2.8508   -3.4904 H   0  0  0  0  0  0  0  0  0  0  0  0
    0.7769   -4.2103   -4.2006 H   0  0  0  0  0  0  0  0  0  0  0  0
    0.2395   -2.5480   -4.5065 H   0  0  0  0  0  0  0  0  0  0  0  0
   -0.0561   -5.4987   -1.5894 N   0  0  0  0  0  0  0  0  0  0  0  0
    0.4070   -6.5549   -0.7199 C   0  0  0  0  0  0  0  0  0  0  0  0
   -0.7397   -5.7370   -2.3019 H   0  0  0  0  0  0  0  0  0  0  0  0
    1.2917   -7.0347   -1.1640 H   0  0  0  0  0  0  0  0  0  0  0  0
    0.6724   -6.1326    0.2605 H   0  0  0  0  0  0  0  0  0  0  0  0
   -0.3905   -7.3019   -0.5937 H   0  0  0  0  0  0  0  0  0  0  0  0
  1  3  1  0  0  0  0
  1  7  1  0  0  0  0
  1  2  2  0  0  0  0
 28 29  1  0  0  0  0
 29 37  1  0  0  0  0
 29 30  2  0  0  0  0
 18 19  1  0  0  0  0
 19 27  1  0  0  0  0
 19 20  2  0  0  0  0
  8  9  1  0  0  0  0
  9 17  1  0  0  0  0
  9 10  2  0  0  0  0
 28 31  1  0  0  0  0
 18 21  1  0  0  0  0
  8 11  1  0  0  0  0
 37 38  1  0  0  0  0
 27 28  1  0  0  0  0
 17 18  1  0  0  0  0
  7  8  1  0  0  0  0
  3  4  1  0  0  0  0
  3  5  1  0  0  0  0
  3  6  1  0  0  0  0
 31 34  1  0  0  0  0
 31 35  1  0  0  0  0
 31 36  1  0  0  0  0
 21 24  1  0  0  0  0
 21 25  1  0  0  0  0
 21 26  1  0  0  0  0
 11 14  1  0  0  0  0
 11 15  1  0  0  0  0
 11 16  1  0  0  0  0
 38 40  1  0  0  0  0
 38 41  1  0  0  0  0
 38 42  1  0  0  0  0
 28 33  1  0  0  0  0
 18 23  1  0  0  0  0
  8 13  1  0  0  0  0
 37 39  1  0  0  0  0
  7 12  1  0  0  0  0
 27 32  1  0  0  0  0
 17 22  1  0  0  0  0
M  END
$$$$

  -OEChem-02062319033D

 42 41  0     1  0  0  0  0  0999 V2000
   -5.7851   -0.9580    0.6237 C   0  0  0  0  0  0  0  0  0  0  0  0
   -6.2213    0.1296    0.2652 O   0  0  0  0  0  0  0  0  0  0  0  0
   -6.7088   -2.1270    0.7168 C   0  0  0  0  0  0  0  0  0  0  0  0
   -7.1713   -2.2193    1.7126 H   0  0  0  0  0  0  0  0  0  0  0  0
   -7.5511   -2.0547    0.0101 H   0  0  0  0  0  0  0  0  0  0  0  0
   -6.2485   -3.1083    0.5191 H   0  0  0  0  0  0  0  0  0  0  0  0
   -4.4733   -1.2411    0.9668 N   0  0  0  0  0  0  0  0  0  0  0  0
   -3.4203   -0.2603    0.9449 C   0  0  2  0  0  0  0  0  0  0  0  0
   -2.1242   -0.9699    0.5759 C   0  0  0  0  0  0  0  0  0  0  0  0
   -1.8694   -2.1225    0.9189 O   0  0  0  0  0  0  0  0  0  0  0  0
   -3.2916    0.4435    2.2868 C   0  0  0  0  0  0  0  0  0  0  0  0
   -4.2421   -2.1920    1.2489 H   0  0  0  0  0  0  0  0  0  0  0  0
   -3.6772    0.4622    0.1625 H   0  0  0  0  0  0  0  0  0  0  0  0
   -3.0345   -0.2644    3.0832 H   0  0  0  0  0  0  0  0  0  0  0  0
   -2.5093    1.2092    2.2599 H   0  0  0  0  0  0  0  0  0  0  0  0
   -4.2338    0.9283    2.5645 H   0  0  0  0  0  0  0  0  0  0  0  0
   -1.2626   -0.1515   -0.1463 N   0  0  0  0  0  0  0  0  0  0  0  0
   -1.6167    0.4277   -1.4154 C   0  0  2  0  0  0  0  0  0  0  0  0
   -1.9188   -0.7088   -2.3832 C   0  0  0  0  0  0  0  0  0  0  0  0
   -2.9115   -0.7268   -3.1079 O   0  0  0  0  0  0  0  0  0  0  0  0
   -0.5024    1.3144   -1.9492 C   0  0  0  0  0  0  0  0  0  0  0  0
   -0.3550    0.0833    0.2508 H   0  0  0  0  0  0  0  0  0  0  0  0
   -2.5240    1.0191   -1.2510 H   0  0  0  0  0  0  0  0  0  0  0  0
    0.4150    0.7393   -2.1201 H   0  0  0  0  0  0  0  0  0  0  0  0
   -0.7847    1.7768   -2.9007 H   0  0  0  0  0  0  0  0  0  0  0  0
   -0.2661    2.1137   -1.2384 H   0  0  0  0  0  0  0  0  0  0  0  0
   -0.9723   -1.7253   -2.3141 N   0  0  0  0  0  0  0  0  0  0  0  0
   -1.0593   -2.9277   -3.1001 C   0  0  2  0  0  0  0  0  0  0  0  0
   -0.4544   -4.0653   -2.2880 C   0  0  0  0  0  0  0  0  0  0  0  0
    0.4943   -3.9117   -1.5216 O   0  0  0  0  0  0  0  0  0  0  0  0
   -0.3436   -2.7707   -4.4327 C   0  0  0  0  0  0  0  0  0  0  0  0
   -0.1602   -1.6043   -1.7121 H   0  0  0  0  0  0  0  0  0  0  0  0
   -2.1249   -3.1218   -3.2643 H   0  0  0  0  0  0  0  0  0  0  0  0
    0.7254   -2.5756   -4.2885 H   0  0  0  0  0  0  0  0  0  0  0  0
   -0.4350   -3.6764   -5.0413 H   0  0  0  0  0  0  0  0  0  0  0  0
   -0.7603   -1.9333   -5.0026 H   0  0  0  0  0  0  0  0  0  0  0  0
   -1.0707   -5.2804   -2.5523 N   0  0  0  0  0  0  0  0  0  0  0  0
   -0.6495   -6.5180   -1.9385 C   0  0  0  0  0  0  0  0  0  0  0  0
   -1.8756   -5.3082   -3.1712 H   0  0  0  0  0  0  0  0  0  0  0  0
    0.0834   -7.0192   -2.5879 H   0  0  0  0  0  0  0  0  0  0  0  0
   -0.1890   -6.3050   -0.9624 H   0  0  0  0  0  0  0  0  0  0  0  0
   -1.5221   -7.1727   -1.7971 H   0  0  0  0  0  0  0  0  0  0  0  0
  1  3  1  0  0  0  0
  1  7  1  0  0  0  0
  1  2  2  0  0  0  0
 28 29  1  0  0  0  0
 29 37  1  0  0  0  0
 29 30  2  0  0  0  0
 18 19  1  0  0  0  0
 19 27  1  0  0  0  0
 19 20  2  0  0  0  0
  8  9  1  0  0  0  0
  9 17  1  0  0  0  0
  9 10  2  0  0  0  0
 28 31  1  0  0  0  0
 18 21  1  0  0  0  0
  8 11  1  0  0  0  0
 37 38  1  0  0  0  0
 27 28  1  0  0  0  0
 17 18  1  0  0  0  0
  7  8  1  0  0  0  0
  3  4  1  0  0  0  0
  3  5  1  0  0  0  0
  3  6  1  0  0  0  0
 31 34  1  0  0  0  0
 31 35  1  0  0  0  0
 31 36  1  0  0  0  0
 21 24  1  0  0  0  0
 21 25  1  0  0  0  0
 21 26  1  0  0  0  0
 11 14  1  0  0  0  0
 11 15  1  0  0  0  0
 11 16  1  0  0  0  0
 38 40  1  0  0  0  0
 38 41  1  0  0  0  0
 38 42  1  0  0  0  0
 28 33  1  0  0  0  0
 18 23  1  0  0  0  0
  8 13  1  0  0  0  0
 37 39  1  0  0  0  0
  7 12  1  0  0  0  0
 27 32  1  0  0  0  0
 17 22  1  0  0  0  0
M  END
$$$$

  -OEChem-02062319033D

 42 41  0     1  0  0  0  0  0999 V2000
   -5.7851   -0.9580    0.6237 C   0  0  0  0  0  0  0  0  0  0  0  0
   -6.2213    0.1296    0.2652 O   0  0  0  0  0  0  0  0  0  0  0  0
   -6.7088   -2.1270    0.7168 C   0  0  0  0  0  0  0  0  0  0  0  0
   -7.1713   -2.2193    1.7126 H   0  0  0  0  0  0  0  0  0  0  0  0
   -7.5511   -2.0547    0.0101 H   0  0  0  0  0  0  0  0  0  0  0  0
   -6.2485   -3.1083    0.5191 H   0  0  0  0  0  0  0  0  0  0  0  0
   -4.4733   -1.2411    0.9668 N   0  0  0  0  0  0  0  0  0  0  0  0
   -3.4203   -0.2603    0.9449 C   0  0  2  0  0  0  0  0  0  0  0  0
   -2.1242   -0.9699    0.5759 C   0  0  0  0  0  0  0  0  0  0  0  0
   -1.8694   -2.1225    0.9189 O   0  0  0  0  0  0  0  0  0  0  0  0
   -3.2916    0.4435    2.2868 C   0  0  0  0  0  0  0  0  0  0  0  0
   -4.2421   -2.1920    1.2489 H   0  0  0  0  0  0  0  0  0  0  0  0
   -3.6772    0.4622    0.1625 H   0  0  0  0  0  0  0  0  0  0  0  0
   -3.0345   -0.2644    3.0832 H   0  0  0  0  0  0  0  0  0  0  0  0
   -2.5093    1.2092    2.2599 H   0  0  0  0  0  0  0  0  0  0  0  0
   -4.2338    0.9283    2.5645 H   0  0  0  0  0  0  0  0  0  0  0  0
   -1.2626   -0.1515   -0.1463 N   0  0  0  0  0  0  0  0  0  0  0  0
   -1.7036    0.6747   -1.2392 C   0  0  2  0  0  0  0  0  0  0  0  0
   -2.3030   -0.2344   -2.3039 C   0  0  0  0  0  0  0  0  0  0  0  0
   -3.3800   -0.0070   -2.8512 O   0  0  0  0  0  0  0  0  0  0  0  0
   -0.5580    1.4969   -1.8086 C   0  0  0  0  0  0  0  0  0  0  0  0
   -0.2835   -0.1005    0.1280 H   0  0  0  0  0  0  0  0  0  0  0  0
   -2.4818    1.3355   -0.8421 H   0  0  0  0  0  0  0  0  0  0  0  0
    0.2316    0.8519   -2.2113 H   0  0  0  0  0  0  0  0  0  0  0  0
   -0.9009    2.1459   -2.6211 H   0  0  0  0  0  0  0  0  0  0  0  0
   -0.1087    2.1281   -1.0343 H   0  0  0  0  0  0  0  0  0  0  0  0
   -1.5159   -1.3554   -2.5435 N   0  0  0  0  0  0  0  0  0  0  0  0
   -1.8888   -2.3863   -3.4761 C   0  0  2  0  0  0  0  0  0  0  0  0
   -1.3488   -3.7110   -2.9535 C   0  0  0  0  0  0  0  0  0  0  0  0
   -0.2892   -3.8074   -2.3381 O   0  0  0  0  0  0  0  0  0  0  0  0
   -1.3534   -2.0925   -4.8689 C   0  0  0  0  0  0  0  0  0  0  0  0
   -0.6180   -1.4390   -2.0709 H   0  0  0  0  0  0  0  0  0  0  0  0
   -2.9837   -2.4180   -3.4913 H   0  0  0  0  0  0  0  0  0  0  0  0
   -0.2579   -2.0568   -4.8735 H   0  0  0  0  0  0  0  0  0  0  0  0
   -1.6620   -2.8629   -5.5832 H   0  0  0  0  0  0  0  0  0  0  0  0
   -1.7189   -1.1256   -5.2310 H   0  0  0  0  0  0  0  0  0  0  0  0
   -2.1680   -4.7787   -3.2928 N   0  0  0  0  0  0  0  0  0  0  0  0
   -1.8506   -6.1450   -2.9486 C   0  0  0  0  0  0  0  0  0  0  0  0
   -3.0476   -4.6020   -3.7690 H   0  0  0  0  0  0  0  0  0  0  0  0
   -1.2985   -6.6135   -3.7767 H   0  0  0  0  0  0  0  0  0  0  0  0
   -1.2306   -6.1595   -2.0401 H   0  0  0  0  0  0  0  0  0  0  0  0
   -2.7810   -6.7027   -2.7665 H   0  0  0  0  0  0  0  0  0  0  0  0
  1  3  1  0  0  0  0
  1  7  1  0  0  0  0
  1  2  2  0  0  0  0
 28 29  1  0  0  0  0
 29 37  1  0  0  0  0
 29 30  2  0  0  0  0
 18 19  1  0  0  0  0
 19 27  1  0  0  0  0
 19 20  2  0  0  0  0
  8  9  1  0  0  0  0
  9 17  1  0  0  0  0
  9 10  2  0  0  0  0
 28 31  1  0  0  0  0
 18 21  1  0  0  0  0
  8 11  1  0  0  0  0
 37 38  1  0  0  0  0
 27 28  1  0  0  0  0
 17 18  1  0  0  0  0
  7  8  1  0  0  0  0
  3  4  1  0  0  0  0
  3  5  1  0  0  0  0
  3  6  1  0  0  0  0
 31 34  1  0  0  0  0
 31 35  1  0  0  0  0
 31 36  1  0  0  0  0
 21 24  1  0  0  0  0
 21 25  1  0  0  0  0
 21 26  1  0  0  0  0
 11 14  1  0  0  0  0
 11 15  1  0  0  0  0
 11 16  1  0  0  0  0
 38 40  1  0  0  0  0
 38 41  1  0  0  0  0
 38 42  1  0  0  0  0
 28 33  1  0  0  0  0
 18 23  1  0  0  0  0
  8 13  1  0  0  0  0
 37 39  1  0  0  0  0
  7 12  1  0  0  0  0
 27 32  1  0  0  0  0
 17 22  1  0  0  0  0
M  END
$$$$

  -OEChem-02062319033D

 42 41  0     1  0  0  0  0  0999 V2000
   -5.7851   -0.9580    0.6237 C   0  0  0  0  0  0  0  0  0  0  0  0
   -6.2213    0.1296    0.2652 O   0  0  0  0  0  0  0  0  0  0  0  0
   -6.7088   -2.1270    0.7168 C   0  0  0  0  0  0  0  0  0  0  0  0
   -7.1713   -2.2193    1.7126 H   0  0  0  0  0  0  0  0  0  0  0  0
   -7.5511   -2.0547    0.0101 H   0  0  0  0  0  0  0  0  0  0  0  0
   -6.2485   -3.1083    0.5191 H   0  0  0  0  0  0  0  0  0  0  0  0
   -4.4733   -1.2411    0.9668 N   0  0  0  0  0  0  0  0  0  0  0  0
   -3.4203   -0.2603    0.9449 C   0  0  2  0  0  0  0  0  0  0  0  0
   -2.1242   -0.9699    0.5759 C   0  0  0  0  0  0  0  0  0  0  0  0
   -1.8694   -2.1225    0.9189 O   0  0  0  0  0  0  0  0  0  0  0  0
   -3.2916    0.4435    2.2868 C   0  0  0  0  0  0  0  0  0  0  0  0
   -4.2421   -2.1920    1.2489 H   0  0  0  0  0  0  0  0  0  0  0  0
   -3.6772    0.4622    0.1625 H   0  0  0  0  0  0  0  0  0  0  0  0
   -3.0345   -0.2644    3.0832 H   0  0  0  0  0  0  0  0  0  0  0  0
   -2.5093    1.2092    2.2599 H   0  0  0  0  0  0  0  0  0  0  0  0
   -4.2338    0.9283    2.5645 H   0  0  0  0  0  0  0  0  0  0  0  0
   -1.2626   -0.1515   -0.1463 N   0  0  0  0  0  0  0  0  0  0  0  0
   -1.7275    0.8967   -1.0161 C   0  0  2  0  0  0  0  0  0  0  0  0
   -2.5984    0.2629   -2.0928 C   0  0  0  0  0  0  0  0  0  0  0  0
   -3.6967    0.7100   -2.4165 O   0  0  0  0  0  0  0  0  0  0  0  0
   -0.5657    1.6581   -1.6352 C   0  0  0  0  0  0  0  0  0  0  0  0
   -0.2577   -0.2679   -0.0311 H   0  0  0  0  0  0  0  0  0  0  0  0
   -2.3362    1.5700   -0.4027 H   0  0  0  0  0  0  0  0  0  0  0  0
    0.0556    0.9999   -2.2534 H   0  0  0  0  0  0  0  0  0  0  0  0
   -0.9210    2.4733   -2.2741 H   0  0  0  0  0  0  0  0  0  0  0  0
    0.0763    2.0882   -0.8588 H   0  0  0  0  0  0  0  0  0  0  0  0
   -2.0262   -0.8883   -2.6230 N   0  0  0  0  0  0  0  0  0  0  0  0
   -2.6745   -1.6915   -3.6261 C   0  0  2  0  0  0  0  0  0  0  0  0
   -2.2666   -3.1418   -3.4033 C   0  0  0  0  0  0  0  0  0  0  0  0
   -1.1563   -3.4705   -2.9907 O   0  0  0  0  0  0  0  0  0  0  0  0
   -2.3041   -1.2317   -5.0276 C   0  0  0  0  0  0  0  0  0  0  0  0
   -1.0926   -1.1603   -2.3214 H   0  0  0  0  0  0  0  0  0  0  0  0
   -3.7532   -1.5863   -3.4669 H   0  0  0  0  0  0  0  0  0  0  0  0
   -1.2270   -1.3297   -5.2056 H   0  0  0  0  0  0  0  0  0  0  0  0
   -2.8203   -1.8253   -5.7893 H   0  0  0  0  0  0  0  0  0  0  0  0
   -2.5712   -0.1799   -5.1760 H   0  0  0  0  0  0  0  0  0  0  0  0
   -3.2733   -4.0278   -3.7605 N   0  0  0  0  0  0  0  0  0  0  0  0
   -3.1145   -5.4612   -3.6816 C   0  0  0  0  0  0  0  0  0  0  0  0
   -4.1758   -3.6665   -4.0548 H   0  0  0  0  0  0  0  0  0  0  0  0
   -2.7599   -5.8452   -4.6494 H   0  0  0  0  0  0  0  0  0  0  0  0
   -2.3812   -5.7062   -2.8991 H   0  0  0  0  0  0  0  0  0  0  0  0
   -4.0816   -5.9241   -3.4357 H   0  0  0  0  0  0  0  0  0  0  0  0
  1  3  1  0  0  0  0
  1  7  1  0  0  0  0
  1  2  2  0  0  0  0
 28 29  1  0  0  0  0
 29 37  1  0  0  0  0
 29 30  2  0  0  0  0
 18 19  1  0  0  0  0
 19 27  1  0  0  0  0
 19 20  2  0  0  0  0
  8  9  1  0  0  0  0
  9 17  1  0  0  0  0
  9 10  2  0  0  0  0
 28 31  1  0  0  0  0
 18 21  1  0  0  0  0
  8 11  1  0  0  0  0
 37 38  1  0  0  0  0
 27 28  1  0  0  0  0
 17 18  1  0  0  0  0
  7  8  1  0  0  0  0
  3  4  1  0  0  0  0
  3  5  1  0  0  0  0
  3  6  1  0  0  0  0
 31 34  1  0  0  0  0
 31 35  1  0  0  0  0
 31 36  1  0  0  0  0
 21 24  1  0  0  0  0
 21 25  1  0  0  0  0
 21 26  1  0  0  0  0
 11 14  1  0  0  0  0
 11 15  1  0  0  0  0
 11 16  1  0  0  0  0
 38 40  1  0  0  0  0
 38 41  1  0  0  0  0
 38 42  1  0  0  0  0
 28 33  1  0  0  0  0
 18 23  1  0  0  0  0
  8 13  1  0  0  0  0
 37 39  1  0  0  0  0
  7 12  1  0  0  0  0
 27 32  1  0  0  0  0
 17 22  1  0  0  0  0
M  END
$$$$

  -OEChem-02062319033D

 42 41  0     1  0  0  0  0  0999 V2000
   -5.7851   -0.9580    0.6237 C   0  0  0  0  0  0  0  0  0  0  0  0
   -6.2213    0.1296    0.2652 O   0  0  0  0  0  0  0  0  0  0  0  0
   -6.7088   -2.1270    0.7168 C   0  0  0  0  0  0  0  0  0  0  0  0
   -7.1713   -2.2193    1.7126 H   0  0  0  0  0  0  0  0  0  0  0  0
   -7.5511   -2.0547    0.0101 H   0  0  0  0  0  0  0  0  0  0  0  0
   -6.2485   -3.1083    0.5191 H   0  0  0  0  0  0  0  0  0  0  0  0
   -4.4733   -1.2411    0.9668 N   0  0  0  0  0  0  0  0  0  0  0  0
   -3.4203   -0.2603    0.9449 C   0  0  2  0  0  0  0  0  0  0  0  0
   -2.1242   -0.9699    0.5759 C   0  0  0  0  0  0  0  0  0  0  0  0
   -1.8694   -2.1225    0.9189 O   0  0  0  0  0  0  0  0  0  0  0  0
   -3.2916    0.4435    2.2868 C   0  0  0  0  0  0  0  0  0  0  0  0
   -4.2421   -2.1920    1.2489 H   0  0  0  0  0  0  0  0  0  0  0  0
   -3.6772    0.4622    0.1625 H   0  0  0  0  0  0  0  0  0  0  0  0
   -3.0345   -0.2644    3.0832 H   0  0  0  0  0  0  0  0  0  0  0  0
   -2.5093    1.2092    2.2599 H   0  0  0  0  0  0  0  0  0  0  0  0
   -4.2338    0.9283    2.5645 H   0  0  0  0  0  0  0  0  0  0  0  0
   -1.2626   -0.1515   -0.1463 N   0  0  0  0  0  0  0  0  0  0  0  0
   -1.6867    1.0786   -0.7614 C   0  0  2  0  0  0  0  0  0  0  0  0
   -2.7846    0.7490   -1.7641 C   0  0  0  0  0  0  0  0  0  0  0  0
   -3.8400    1.3754   -1.8333 O   0  0  0  0  0  0  0  0  0  0  0  0
   -0.5250    1.7870   -1.4406 C   0  0  0  0  0  0  0  0  0  0  0  0
   -0.2796   -0.4076   -0.2155 H   0  0  0  0  0  0  0  0  0  0  0  0
   -2.0971    1.7064    0.0371 H   0  0  0  0  0  0  0  0  0  0  0  0
   -0.1008    1.1733   -2.2436 H   0  0  0  0  0  0  0  0  0  0  0  0
   -0.8435    2.7365   -1.8834 H   0  0  0  0  0  0  0  0  0  0  0  0
    0.2763    1.9967   -0.7239 H   0  0  0  0  0  0  0  0  0  0  0  0
   -2.4685   -0.3558   -2.5472 N   0  0  0  0  0  0  0  0  0  0  0  0
   -3.3629   -0.8907   -3.5399 C   0  0  2  0  0  0  0  0  0  0  0  0
   -3.1450   -2.3965   -3.6067 C   0  0  0  0  0  0  0  0  0  0  0  0
   -2.0480   -2.9238   -3.4349 O   0  0  0  0  0  0  0  0  0  0  0  0
   -3.1308   -0.2470   -4.8980 C   0  0  0  0  0  0  0  0  0  0  0  0
   -1.5518   -0.7871   -2.4463 H   0  0  0  0  0  0  0  0  0  0  0  0
   -4.3810   -0.6834   -3.1927 H   0  0  0  0  0  0  0  0  0  0  0  0
   -2.1159   -0.4438   -5.2622 H   0  0  0  0  0  0  0  0  0  0  0  0
   -3.8311   -0.6343   -5.6455 H   0  0  0  0  0  0  0  0  0  0  0  0
   -3.2588    0.8394   -4.8414 H   0  0  0  0  0  0  0  0  0  0  0  0
   -4.3112   -3.0790   -3.9235 N   0  0  0  0  0  0  0  0  0  0  0  0
   -4.3551   -4.5133   -4.0874 C   0  0  0  0  0  0  0  0  0  0  0  0
   -5.1833   -2.5653   -4.0089 H   0  0  0  0  0  0  0  0  0  0  0  0
   -4.2011   -4.7667   -5.1466 H   0  0  0  0  0  0  0  0  0  0  0  0
   -3.5626   -4.9759   -3.4808 H   0  0  0  0  0  0  0  0  0  0  0  0
   -5.3351   -4.8899   -3.7591 H   0  0  0  0  0  0  0  0  0  0  0  0
  1  3  1  0  0  0  0
  1  7  1  0  0  0  0
  1  2  2  0  0  0  0
 28 29  1  0  0  0  0
 29 37  1  0  0  0  0
 29 30  2  0  0  0  0
 18 19  1  0  0  0  0
 19 27  1  0  0  0  0
 19 20  2  0  0  0  0
  8  9  1  0  0  0  0
  9 17  1  0  0  0  0
  9 10  2  0  0  0  0
 28 31  1  0  0  0  0
 18 21  1  0  0  0  0
  8 11  1  0  0  0  0
 37 38  1  0  0  0  0
 27 28  1  0  0  0  0
 17 18  1  0  0  0  0
  7  8  1  0  0  0  0
  3  4  1  0  0  0  0
  3  5  1  0  0  0  0
  3  6  1  0  0  0  0
 31 34  1  0  0  0  0
 31 35  1  0  0  0  0
 31 36  1  0  0  0  0
 21 24  1  0  0  0  0
 21 25  1  0  0  0  0
 21 26  1  0  0  0  0
 11 14  1  0  0  0  0
 11 15  1  0  0  0  0
 11 16  1  0  0  0  0
 38 40  1  0  0  0  0
 38 41  1  0  0  0  0
 38 42  1  0  0  0  0
 28 33  1  0  0  0  0
 18 23  1  0  0  0  0
  8 13  1  0  0  0  0
 37 39  1  0  0  0  0
  7 12  1  0  0  0  0
 27 32  1  0  0  0  0
 17 22  1  0  0  0  0
M  END
$$$$

  -OEChem-02062319033D

 42 41  0     1  0  0  0  0  0999 V2000
   -5.7851   -0.9580    0.6237 C   0  0  0  0  0  0  0  0  0  0  0  0
   -6.2213    0.1296    0.2652 O   0  0  0  0  0  0  0  0  0  0  0  0
   -6.7088   -2.1270    0.7168 C   0  0  0  0  0  0  0  0  0  0  0  0
   -7.1713   -2.2193    1.7126 H   0  0  0  0  0  0  0  0  0  0  0  0
   -7.5511   -2.0547    0.0101 H   0  0  0  0  0  0  0  0  0  0  0  0
   -6.2485   -3.1083    0.5191 H   0  0  0  0  0  0  0  0  0  0  0  0
   -4.4733   -1.2411    0.9668 N   0  0  0  0  0  0  0  0  0  0  0  0
   -3.4203   -0.2603    0.9449 C   0  0  2  0  0  0  0  0  0  0  0  0
   -2.1242   -0.9699    0.5759 C   0  0  0  0  0  0  0  0  0  0  0  0
   -1.8694   -2.1225    0.9189 O   0  0  0  0  0  0  0  0  0  0  0  0
   -3.2916    0.4435    2.2868 C   0  0  0  0  0  0  0  0  0  0  0  0
   -4.2421   -2.1920    1.2489 H   0  0  0  0  0  0  0  0  0  0  0  0
   -3.6772    0.4622    0.1625 H   0  0  0  0  0  0  0  0  0  0  0  0
   -3.0345   -0.2644    3.0832 H   0  0  0  0  0  0  0  0  0  0  0  0
   -2.5093    1.2092    2.2599 H   0  0  0  0  0  0  0  0  0  0  0  0
   -4.2338    0.9283    2.5645 H   0  0  0  0  0  0  0  0  0  0  0  0
   -1.2626   -0.1515   -0.1463 N   0  0  0  0  0  0  0  0  0  0  0  0
   -1.5841    1.2080   -0.4924 C   0  0  2  0  0  0  0  0  0  0  0  0
   -2.8491    1.1909   -1.3403 C   0  0  0  0  0  0  0  0  0  0  0  0
   -3.8001    1.9440   -1.1416 O   0  0  0  0  0  0  0  0  0  0  0  0
   -0.4388    1.8749   -1.2382 C   0  0  0  0  0  0  0  0  0  0  0  0
   -0.3477   -0.5100   -0.4127 H   0  0  0  0  0  0  0  0  0  0  0  0
   -1.7808    1.7355    0.4474 H   0  0  0  0  0  0  0  0  0  0  0  0
   -0.2271    1.3602   -2.1825 H   0  0  0  0  0  0  0  0  0  0  0  0
   -0.6737    2.9177   -1.4756 H   0  0  0  0  0  0  0  0  0  0  0  0
    0.4779    1.8597   -0.6387 H   0  0  0  0  0  0  0  0  0  0  0  0
   -2.8126    0.2059   -2.3212 N   0  0  0  0  0  0  0  0  0  0  0  0
   -3.9071   -0.0384   -3.2233 C   0  0  2  0  0  0  0  0  0  0  0  0
   -3.9243   -1.5259   -3.5499 C   0  0  0  0  0  0  0  0  0  0  0  0
   -2.9035   -2.2046   -3.6405 O   0  0  0  0  0  0  0  0  0  0  0  0
   -3.7773    0.7945   -4.4890 C   0  0  0  0  0  0  0  0  0  0  0  0
   -1.9642   -0.3449   -2.4371 H   0  0  0  0  0  0  0  0  0  0  0  0
   -4.8243    0.2291   -2.6875 H   0  0  0  0  0  0  0  0  0  0  0  0
   -2.8641    0.5405   -5.0394 H   0  0  0  0  0  0  0  0  0  0  0  0
   -4.6254    0.6289   -5.1617 H   0  0  0  0  0  0  0  0  0  0  0  0
   -3.7351    1.8626   -4.2501 H   0  0  0  0  0  0  0  0  0  0  0  0
   -5.2110   -1.9968   -3.7707 N   0  0  0  0  0  0  0  0  0  0  0  0
   -5.4878   -3.3659   -4.1384 C   0  0  0  0  0  0  0  0  0  0  0  0
   -6.0015   -1.3736   -3.6345 H   0  0  0  0  0  0  0  0  0  0  0  0
   -5.5240   -3.4515   -5.2344 H   0  0  0  0  0  0  0  0  0  0  0  0
   -4.6941   -4.0185   -3.7457 H   0  0  0  0  0  0  0  0  0  0  0  0
   -6.4561   -3.6706   -3.7147 H   0  0  0  0  0  0  0  0  0  0  0  0
  1  3  1  0  0  0  0
  1  7  1  0  0  0  0
  1  2  2  0  0  0  0
 28 29  1  0  0  0  0
 29 37  1  0  0  0  0
 29 30  2  0  0  0  0
 18 19  1  0  0  0  0
 19 27  1  0  0  0  0
 19 20  2  0  0  0  0
  8  9  1  0  0  0  0
  9 17  1  0  0  0  0
  9 10  2  0  0  0  0
 28 31  1  0  0  0  0
 18 21  1  0  0  0  0
  8 11  1  0  0  0  0
 37 38  1  0  0  0  0
 27 28  1  0  0  0  0
 17 18  1  0  0  0  0
  7  8  1  0  0  0  0
  3  4  1  0  0  0  0
  3  5  1  0  0  0  0
  3  6  1  0  0  0  0
 31 34  1  0  0  0  0
 31 35  1  0  0  0  0
 31 36  1  0  0  0  0
 21 24  1  0  0  0  0
 21 25  1  0  0  0  0
 21 26  1  0  0  0  0
 11 14  1  0  0  0  0
 11 15  1  0  0  0  0
 11 16  1  0  0  0  0
 38 40  1  0  0  0  0
 38 41  1  0  0  0  0
 38 42  1  0  0  0  0
 28 33  1  0  0  0  0
 18 23  1  0  0  0  0
  8 13  1  0  0  0  0
 37 39  1  0  0  0  0
  7 12  1  0  0  0  0
 27 32  1  0  0  0  0
 17 22  1  0  0  0  0
M  END
$$$$

  -OEChem-02062319033D

 42 41  0     1  0  0  0  0  0999 V2000
   -5.7851   -0.9580    0.6237 C   0  0  0  0  0  0  0  0  0  0  0  0
   -6.2213    0.1296    0.2652 O   0  0  0  0  0  0  0  0  0  0  0  0
   -6.7088   -2.1270    0.7168 C   0  0  0  0  0  0  0  0  0  0  0  0
   -7.1713   -2.2193    1.7126 H   0  0  0  0  0  0  0  0  0  0  0  0
   -7.5511   -2.0547    0.0101 H   0  0  0  0  0  0  0  0  0  0  0  0
   -6.2485   -3.1083    0.5191 H   0  0  0  0  0  0  0  0  0  0  0  0
   -4.4733   -1.2411    0.9668 N   0  0  0  0  0  0  0  0  0  0  0  0
   -3.4203   -0.2603    0.9449 C   0  0  2  0  0  0  0  0  0  0  0  0
   -2.1242   -0.9699    0.5759 C   0  0  0  0  0  0  0  0  0  0  0  0
   -1.8694   -2.1225    0.9189 O   0  0  0  0  0  0  0  0  0  0  0  0
   -3.2916    0.4435    2.2868 C   0  0  0  0  0  0  0  0  0  0  0  0
   -4.2421   -2.1920    1.2489 H   0  0  0  0  0  0  0  0  0  0  0  0
   -3.6772    0.4622    0.1625 H   0  0  0  0  0  0  0  0  0  0  0  0
   -3.0345   -0.2644    3.0832 H   0  0  0  0  0  0  0  0  0  0  0  0
   -2.5093    1.2092    2.2599 H   0  0  0  0  0  0  0  0  0  0  0  0
   -4.2338    0.9283    2.5645 H   0  0  0  0  0  0  0  0  0  0  0  0
   -1.2626   -0.1515   -0.1463 N   0  0  0  0  0  0  0  0  0  0  0  0
   -1.4266    1.2761   -0.2274 C   0  0  2  0  0  0  0  0  0  0  0  0
   -2.7874    1.5585   -0.8503 C   0  0  0  0  0  0  0  0  0  0  0  0
   -3.5798    2.3768   -0.3882 O   0  0  0  0  0  0  0  0  0  0  0  0
   -0.3129    1.9157   -1.0417 C   0  0  0  0  0  0  0  0  0  0  0  0
   -0.4572   -0.5681   -0.6092 H   0  0  0  0  0  0  0  0  0  0  0  0
   -1.4089    1.6553    0.8002 H   0  0  0  0  0  0  0  0  0  0  0  0
   -0.3147    1.5479   -2.0743 H   0  0  0  0  0  0  0  0  0  0  0  0
   -0.4232    3.0045   -1.0784 H   0  0  0  0  0  0  0  0  0  0  0  0
    0.6671    1.6867   -0.6091 H   0  0  0  0  0  0  0  0  0  0  0  0
   -3.0350    0.7584   -1.9604 N   0  0  0  0  0  0  0  0  0  0  0  0
   -4.2699    0.8072   -2.6980 C   0  0  2  0  0  0  0  0  0  0  0  0
   -4.5514   -0.5893   -3.2366 C   0  0  0  0  0  0  0  0  0  0  0  0
   -3.6644   -1.3620   -3.5935 O   0  0  0  0  0  0  0  0  0  0  0  0
   -4.1995    1.8219   -3.8285 C   0  0  0  0  0  0  0  0  0  0  0  0
   -2.3017    0.1362   -2.2946 H   0  0  0  0  0  0  0  0  0  0  0  0
   -5.0529    1.0891   -1.9856 H   0  0  0  0  0  0  0  0  0  0  0  0
   -3.4205    1.5561   -4.5524 H   0  0  0  0  0  0  0  0  0  0  0  0
   -5.1492    1.8783   -4.3707 H   0  0  0  0  0  0  0  0  0  0  0  0
   -3.9675    2.8202   -3.4422 H   0  0  0  0  0  0  0  0  0  0  0  0
   -5.9114   -0.8551   -3.3125 N   0  0  0  0  0  0  0  0  0  0  0  0
   -6.4354   -2.0971   -3.8311 C   0  0  0  0  0  0  0  0  0  0  0  0
   -6.5745   -0.1726   -2.9572 H   0  0  0  0  0  0  0  0  0  0  0  0
   -6.6384   -1.9892   -4.9068 H   0  0  0  0  0  0  0  0  0  0  0  0
   -5.6987   -2.8990   -3.6757 H   0  0  0  0  0  0  0  0  0  0  0  0
   -7.3683   -2.3492   -3.3055 H   0  0  0  0  0  0  0  0  0  0  0  0
  1  3  1  0  0  0  0
  1  7  1  0  0  0  0
  1  2  2  0  0  0  0
 28 29  1  0  0  0  0
 29 37  1  0  0  0  0
 29 30  2  0  0  0  0
 18 19  1  0  0  0  0
 19 27  1  0  0  0  0
 19 20  2  0  0  0  0
  8  9  1  0  0  0  0
  9 17  1  0  0  0  0
  9 10  2  0  0  0  0
 28 31  1  0  0  0  0
 18 21  1  0  0  0  0
  8 11  1  0  0  0  0
 37 38  1  0  0  0  0
 27 28  1  0  0  0  0
 17 18  1  0  0  0  0
  7  8  1  0  0  0  0
  3  4  1  0  0  0  0
  3  5  1  0  0  0  0
  3  6  1  0  0  0  0
 31 34  1  0  0  0  0
 31 35  1  0  0  0  0
 31 36  1  0  0  0  0
 21 24  1  0  0  0  0
 21 25  1  0  0  0  0
 21 26  1  0  0  0  0
 11 14  1  0  0  0  0
 11 15  1  0  0  0  0
 11 16  1  0  0  0  0
 38 40  1  0  0  0  0
 38 41  1  0  0  0  0
 38 42  1  0  0  0  0
 28 33  1  0  0  0  0
 18 23  1  0  0  0  0
  8 13  1  0  0  0  0
 37 39  1  0  0  0  0
  7 12  1  0  0  0  0
 27 32  1  0  0  0  0
 17 22  1  0  0  0  0
M  END
$$$$

  -OEChem-02062319033D

 42 41  0     1  0  0  0  0  0999 V2000
   -5.7851   -0.9580    0.6237 C   0  0  0  0  0  0  0  0  0  0  0  0
   -6.2213    0.1296    0.2652 O   0  0  0  0  0  0  0  0  0  0  0  0
   -6.7088   -2.1270    0.7168 C   0  0  0  0  0  0  0  0  0  0  0  0
   -7.1713   -2.2193    1.7126 H   0  0  0  0  0  0  0  0  0  0  0  0
   -7.5511   -2.0547    0.0101 H   0  0  0  0  0  0  0  0  0  0  0  0
   -6.2485   -3.1083    0.5191 H   0  0  0  0  0  0  0  0  0  0  0  0
   -4.4733   -1.2411    0.9668 N   0  0  0  0  0  0  0  0  0  0  0  0
   -3.4203   -0.2603    0.9449 C   0  0  2  0  0  0  0  0  0  0  0  0
   -2.1242   -0.9699    0.5759 C   0  0  0  0  0  0  0  0  0  0  0  0
   -1.8694   -2.1225    0.9189 O   0  0  0  0  0  0  0  0  0  0  0  0
   -3.2916    0.4435    2.2868 C   0  0  0  0  0  0  0  0  0  0  0  0
   -4.2421   -2.1920    1.2489 H   0  0  0  0  0  0  0  0  0  0  0  0
   -3.6772    0.4622    0.1625 H   0  0  0  0  0  0  0  0  0  0  0  0
   -3.0345   -0.2644    3.0832 H   0  0  0  0  0  0  0  0  0  0  0  0
   -2.5093    1.2092    2.2599 H   0  0  0  0  0  0  0  0  0  0  0  0
   -4.2338    0.9283    2.5645 H   0  0  0  0  0  0  0  0  0  0  0  0
   -1.2626   -0.1515   -0.1463 N   0  0  0  0  0  0  0  0  0  0  0  0
   -1.2250    1.2781    0.0155 C   0  0  2  0  0  0  0  0  0  0  0  0
   -2.6038    1.8266   -0.3274 C   0  0  0  0  0  0  0  0  0  0  0  0
   -3.1941    2.6445    0.3753 O   0  0  0  0  0  0  0  0  0  0  0  0
   -0.1558    1.9067   -0.8645 C   0  0  0  0  0  0  0  0  0  0  0  0
   -0.6007   -0.5781   -0.7917 H   0  0  0  0  0  0  0  0  0  0  0  0
   -1.0067    1.4713    1.0714 H   0  0  0  0  0  0  0  0  0  0  0  0
   -0.3576    1.7237   -1.9262 H   0  0  0  0  0  0  0  0  0  0  0  0
   -0.1092    2.9910   -0.7191 H   0  0  0  0  0  0  0  0  0  0  0  0
    0.8311    1.4893   -0.6370 H   0  0  0  0  0  0  0  0  0  0  0  0
   -3.1206    1.2642   -1.4894 N   0  0  0  0  0  0  0  0  0  0  0  0
   -4.4267    1.5884   -1.9997 C   0  0  2  0  0  0  0  0  0  0  0  0
   -4.9835    0.3494   -2.6884 C   0  0  0  0  0  0  0  0  0  0  0  0
   -4.2791   -0.4533   -3.2971 O   0  0  0  0  0  0  0  0  0  0  0  0
   -4.3686    2.7650   -2.9614 C   0  0  0  0  0  0  0  0  0  0  0  0
   -2.5413    0.6234   -2.0283 H   0  0  0  0  0  0  0  0  0  0  0  0
   -5.0511    1.8380   -1.1349 H   0  0  0  0  0  0  0  0  0  0  0  0
   -3.7473    2.5337   -3.8344 H   0  0  0  0  0  0  0  0  0  0  0  0
   -5.3666    3.0286   -3.3266 H   0  0  0  0  0  0  0  0  0  0  0  0
   -3.9402    3.6469   -2.4730 H   0  0  0  0  0  0  0  0  0  0  0  0
   -6.3647    0.2684   -2.5801 N   0  0  0  0  0  0  0  0  0  0  0  0
   -7.1334   -0.7934   -3.1865 C   0  0  0  0  0  0  0  0  0  0  0  0
   -6.8634    0.9560   -2.0230 H   0  0  0  0  0  0  0  0  0  0  0  0
   -7.4683   -0.4795   -4.1861 H   0  0  0  0  0  0  0  0  0  0  0  0
   -6.5080   -1.6939   -3.2754 H   0  0  0  0  0  0  0  0  0  0  0  0
   -8.0094   -1.0159   -2.5595 H   0  0  0  0  0  0  0  0  0  0  0  0
  1  3  1  0  0  0  0
  1  7  1  0  0  0  0
  1  2  2  0  0  0  0
 28 29  1  0  0  0  0
 29 37  1  0  0  0  0
 29 30  2  0  0  0  0
 18 19  1  0  0  0  0
 19 27  1  0  0  0  0
 19 20  2  0  0  0  0
  8  9  1  0  0  0  0
  9 17  1  0  0  0  0
  9 10  2  0  0  0  0
 28 31  1  0  0  0  0
 18 21  1  0  0  0  0
  8 11  1  0  0  0  0
 37 38  1  0  0  0  0
 27 28  1  0  0  0  0
 17 18  1  0  0  0  0
  7  8  1  0  0  0  0
  3  4  1  0  0  0  0
  3  5  1  0  0  0  0
  3  6  1  0  0  0  0
 31 34  1  0  0  0  0
 31 35  1  0  0  0  0
 31 36  1  0  0  0  0
 21 24  1  0  0  0  0
 21 25  1  0  0  0  0
 21 26  1  0  0  0  0
 11 14  1  0  0  0  0
 11 15  1  0  0  0  0
 11 16  1  0  0  0  0
 38 40  1  0  0  0  0
 38 41  1  0  0  0  0
 38 42  1  0  0  0  0
 28 33  1  0  0  0  0
 18 23  1  0  0  0  0
  8 13  1  0  0  0  0
 37 39  1  0  0  0  0
  7 12  1  0  0  0  0
 27 32  1  0  0  0  0
 17 22  1  0  0  0  0
M  END
$$$$

  -OEChem-02062319033D

 42 41  0     1  0  0  0  0  0999 V2000
   -5.7851   -0.9580    0.6237 C   0  0  0  0  0  0  0  0  0  0  0  0
   -6.2213    0.1296    0.2652 O   0  0  0  0  0  0  0  0  0  0  0  0
   -6.7088   -2.1270    0.7168 C   0  0  0  0  0  0  0  0  0  0  0  0
   -7.1713   -2.2193    1.7126 H   0  0  0  0  0  0  0  0  0  0  0  0
   -7.5511   -2.0547    0.0101 H   0  0  0  0  0  0  0  0  0  0  0  0
   -6.2485   -3.1083    0.5191 H   0  0  0  0  0  0  0  0  0  0  0  0
   -4.4733   -1.2411    0.9668 N   0  0  0  0  0  0  0  0  0  0  0  0
   -3.4203   -0.2603    0.9449 C   0  0  2  0  0  0  0  0  0  0  0  0
   -2.1242   -0.9699    0.5759 C   0  0  0  0  0  0  0  0  0  0  0  0
   -1.8694   -2.1225    0.9189 O   0  0  0  0  0  0  0  0  0  0  0  0
   -3.2916    0.4435    2.2868 C   0  0  0  0  0  0  0  0  0  0  0  0
   -4.2421   -2.1920    1.2489 H   0  0  0  0  0  0  0  0  0  0  0  0
   -3.6772    0.4622    0.1625 H   0  0  0  0  0  0  0  0  0  0  0  0
   -3.0345   -0.2644    3.0832 H   0  0  0  0  0  0  0  0  0  0  0  0
   -2.5093    1.2092    2.2599 H   0  0  0  0  0  0  0  0  0  0  0  0
   -4.2338    0.9283    2.5645 H   0  0  0  0  0  0  0  0  0  0  0  0
   -1.2626   -0.1515   -0.1463 N   0  0  0  0  0  0  0  0  0  0  0  0
   -0.9930    1.2141    0.2197 C   0  0  2  0  0  0  0  0  0  0  0  0
   -2.3108    1.9771    0.1927 C   0  0  0  0  0  0  0  0  0  0  0  0
   -2.6692    2.7288    1.0969 O   0  0  0  0  0  0  0  0  0  0  0  0
    0.0217    1.8484   -0.7188 C   0  0  0  0  0  0  0  0  0  0  0  0
   -0.7684   -0.5391   -0.9477 H   0  0  0  0  0  0  0  0  0  0  0  0
   -0.6016    1.1959    1.2427 H   0  0  0  0  0  0  0  0  0  0  0  0
   -0.3528    1.8754   -1.7486 H   0  0  0  0  0  0  0  0  0  0  0  0
    0.2471    2.8781   -0.4220 H   0  0  0  0  0  0  0  0  0  0  0  0
    0.9587    1.2812   -0.7207 H   0  0  0  0  0  0  0  0  0  0  0  0
   -3.0636    1.6887   -0.9403 N   0  0  0  0  0  0  0  0  0  0  0  0
   -4.3667    2.2522   -1.1760 C   0  0  2  0  0  0  0  0  0  0  0  0
   -5.1911    1.2263   -1.9424 C   0  0  0  0  0  0  0  0  0  0  0  0
   -4.7054    0.4595   -2.7714 O   0  0  0  0  0  0  0  0  0  0  0  0
   -4.2730    3.5597   -1.9469 C   0  0  0  0  0  0  0  0  0  0  0  0
   -2.6667    1.0835   -1.6565 H   0  0  0  0  0  0  0  0  0  0  0  0
   -4.8192    2.4247   -0.1934 H   0  0  0  0  0  0  0  0  0  0  0  0
   -3.8221    3.4069   -2.9342 H   0  0  0  0  0  0  0  0  0  0  0  0
   -5.2631    4.0016   -2.1005 H   0  0  0  0  0  0  0  0  0  0  0  0
   -3.6551    4.2863   -1.4083 H   0  0  0  0  0  0  0  0  0  0  0  0
   -6.5400    1.2972   -1.6234 N   0  0  0  0  0  0  0  0  0  0  0  0
   -7.5341    0.4563   -2.2484 C   0  0  0  0  0  0  0  0  0  0  0  0
   -6.8485    1.9351   -0.8957 H   0  0  0  0  0  0  0  0  0  0  0  0
   -7.9572    0.9748   -3.1215 H   0  0  0  0  0  0  0  0  0  0  0  0
   -7.0667   -0.4852   -2.5724 H   0  0  0  0  0  0  0  0  0  0  0  0
   -8.3358    0.2386   -1.5274 H   0  0  0  0  0  0  0  0  0  0  0  0
  1  3  1  0  0  0  0
  1  7  1  0  0  0  0
  1  2  2  0  0  0  0
 28 29  1  0  0  0  0
 29 37  1  0  0  0  0
 29 30  2  0  0  0  0
 18 19  1  0  0  0  0
 19 27  1  0  0  0  0
 19 20  2  0  0  0  0
  8  9  1  0  0  0  0
  9 17  1  0  0  0  0
  9 10  2  0  0  0  0
 28 31  1  0  0  0  0
 18 21  1  0  0  0  0
  8 11  1  0  0  0  0
 37 38  1  0  0  0  0
 27 28  1  0  0  0  0
 17 18  1  0  0  0  0
  7  8  1  0  0  0  0
  3  4  1  0  0  0  0
  3  5  1  0  0  0  0
  3  6  1  0  0  0  0
 31 34  1  0  0  0  0
 31 35  1  0  0  0  0
 31 36  1  0  0  0  0
 21 24  1  0  0  0  0
 21 25  1  0  0  0  0
 21 26  1  0  0  0  0
 11 14  1  0  0  0  0
 11 15  1  0  0  0  0
 11 16  1  0  0  0  0
 38 40  1  0  0  0  0
 38 41  1  0  0  0  0
 38 42  1  0  0  0  0
 28 33  1  0  0  0  0
 18 23  1  0  0  0  0
  8 13  1  0  0  0  0
 37 39  1  0  0  0  0
  7 12  1  0  0  0  0
 27 32  1  0  0  0  0
 17 22  1  0  0  0  0
M  END
$$$$

  -OEChem-02062319033D

 42 41  0     1  0  0  0  0  0999 V2000
   -5.7851   -0.9580    0.6237 C   0  0  0  0  0  0  0  0  0  0  0  0
   -6.2213    0.1296    0.2652 O   0  0  0  0  0  0  0  0  0  0  0  0
   -6.7088   -2.1270    0.7168 C   0  0  0  0  0  0  0  0  0  0  0  0
   -7.1713   -2.2193    1.7126 H   0  0  0  0  0  0  0  0  0  0  0  0
   -7.5511   -2.0547    0.0101 H   0  0  0  0  0  0  0  0  0  0  0  0
   -6.2485   -3.1083    0.5191 H   0  0  0  0  0  0  0  0  0  0  0  0
   -4.4733   -1.2411    0.9668 N   0  0  0  0  0  0  0  0  0  0  0  0
   -3.4203   -0.2603    0.9449 C   0  0  2  0  0  0  0  0  0  0  0  0
   -2.1242   -0.9699    0.5759 C   0  0  0  0  0  0  0  0  0  0  0  0
   -1.8694   -2.1225    0.9189 O   0  0  0  0  0  0  0  0  0  0  0  0
   -3.2916    0.4435    2.2868 C   0  0  0  0  0  0  0  0  0  0  0  0
   -4.2421   -2.1920    1.2489 H   0  0  0  0  0  0  0  0  0  0  0  0
   -3.6772    0.4622    0.1625 H   0  0  0  0  0  0  0  0  0  0  0  0
   -3.0345   -0.2644    3.0832 H   0  0  0  0  0  0  0  0  0  0  0  0
   -2.5093    1.2092    2.2599 H   0  0  0  0  0  0  0  0  0  0  0  0
   -4.2338    0.9283    2.5645 H   0  0  0  0  0  0  0  0  0  0  0  0
   -1.2626   -0.1515   -0.1463 N   0  0  0  0  0  0  0  0  0  0  0  0
   -0.7464    1.0883    0.3713 C   0  0  2  0  0  0  0  0  0  0  0  0
   -1.9283    1.9997    0.6746 C   0  0  0  0  0  0  0  0  0  0  0  0
   -2.0410    2.6240    1.7276 O   0  0  0  0  0  0  0  0  0  0  0  0
    0.2075    1.7450   -0.6144 C   0  0  0  0  0  0  0  0  0  0  0  0
   -0.9490   -0.4539   -1.0665 H   0  0  0  0  0  0  0  0  0  0  0  0
   -0.2213    0.8481    1.3022 H   0  0  0  0  0  0  0  0  0  0  0  0
   -0.3007    1.9929   -1.5533 H   0  0  0  0  0  0  0  0  0  0  0  0
    0.6213    2.6735   -0.2074 H   0  0  0  0  0  0  0  0  0  0  0  0
    1.0413    1.0763   -0.8543 H   0  0  0  0  0  0  0  0  0  0  0  0
   -2.8678    2.0030   -0.3506 N   0  0  0  0  0  0  0  0  0  0  0  0
   -4.0941    2.7532   -0.2831 C   0  0  2  0  0  0  0  0  0  0  0  0
   -5.1602    1.9816   -1.0497 C   0  0  0  0  0  0  0  0  0  0  0  0
   -4.9145    1.3142   -2.0523 O   0  0  0  0  0  0  0  0  0  0  0  0
   -3.9193    4.1518   -0.8541 C   0  0  0  0  0  0  0  0  0  0  0  0
   -2.6693    1.4852   -1.2045 H   0  0  0  0  0  0  0  0  0  0  0  0
   -4.3728    2.8092    0.7748 H   0  0  0  0  0  0  0  0  0  0  0  0
   -3.6400    4.1160   -1.9134 H   0  0  0  0  0  0  0  0  0  0  0  0
   -4.8454    4.7309   -0.7759 H   0  0  0  0  0  0  0  0  0  0  0  0
   -3.1316    4.6949   -0.3208 H   0  0  0  0  0  0  0  0  0  0  0  0
   -6.4253    2.1610   -0.5077 N   0  0  0  0  0  0  0  0  0  0  0  0
   -7.6104    1.5669   -1.0809 C   0  0  0  0  0  0  0  0  0  0  0  0
   -6.5307    2.6981    0.3479 H   0  0  0  0  0  0  0  0  0  0  0  0
   -8.0719    2.2745   -1.7854 H   0  0  0  0  0  0  0  0  0  0  0  0
   -7.3368    0.6446   -1.6143 H   0  0  0  0  0  0  0  0  0  0  0  0
   -8.3253    1.3287   -0.2796 H   0  0  0  0  0  0  0  0  0  0  0  0
  1  3  1  0  0  0  0
  1  7  1  0  0  0  0
  1  2  2  0  0  0  0
 28 29  1  0  0  0  0
 29 37  1  0  0  0  0
 29 30  2  0  0  0  0
 18 19  1  0  0  0  0
 19 27  1  0  0  0  0
 19 20  2  0  0  0  0
  8  9  1  0  0  0  0
  9 17  1  0  0  0  0
  9 10  2  0  0  0  0
 28 31  1  0  0  0  0
 18 21  1  0  0  0  0
  8 11  1  0  0  0  0
 37 38  1  0  0  0  0
 27 28  1  0  0  0  0
 17 18  1  0  0  0  0
  7  8  1  0  0  0  0
  3  4  1  0  0  0  0
  3  5  1  0  0  0  0
  3  6  1  0  0  0  0
 31 34  1  0  0  0  0
 31 35  1  0  0  0  0
 31 36  1  0  0  0  0
 21 24  1  0  0  0  0
 21 25  1  0  0  0  0
 21 26  1  0  0  0  0
 11 14  1  0  0  0  0
 11 15  1  0  0  0  0
 11 16  1  0  0  0  0
 38 40  1  0  0  0  0
 38 41  1  0  0  0  0
 38 42  1  0  0  0  0
 28 33  1  0  0  0  0
 18 23  1  0  0  0  0
  8 13  1  0  0  0  0
 37 39  1  0  0  0  0
  7 12  1  0  0  0  0
 27 32  1  0  0  0  0
 17 22  1  0  0  0  0
M  END
$$$$

  -OEChem-02062319033D

 42 41  0     1  0  0  0  0  0999 V2000
   -5.7851   -0.9580    0.6237 C   0  0  0  0  0  0  0  0  0  0  0  0
   -6.2213    0.1296    0.2652 O   0  0  0  0  0  0  0  0  0  0  0  0
   -6.7088   -2.1270    0.7168 C   0  0  0  0  0  0  0  0  0  0  0  0
   -7.1713   -2.2193    1.7126 H   0  0  0  0  0  0  0  0  0  0  0  0
   -7.5511   -2.0547    0.0101 H   0  0  0  0  0  0  0  0  0  0  0  0
   -6.2485   -3.1083    0.5191 H   0  0  0  0  0  0  0  0  0  0  0  0
   -4.4733   -1.2411    0.9668 N   0  0  0  0  0  0  0  0  0  0  0  0
   -3.4203   -0.2603    0.9449 C   0  0  2  0  0  0  0  0  0  0  0  0
   -2.1242   -0.9699    0.5759 C   0  0  0  0  0  0  0  0  0  0  0  0
   -1.8694   -2.1225    0.9189 O   0  0  0  0  0  0  0  0  0  0  0  0
   -3.2916    0.4435    2.2868 C   0  0  0  0  0  0  0  0  0  0  0  0
   -4.2421   -2.1920    1.2489 H   0  0  0  0  0  0  0  0  0  0  0  0
   -3.6772    0.4622    0.1625 H   0  0  0  0  0  0  0  0  0  0  0  0
   -3.0345   -0.2644    3.0832 H   0  0  0  0  0  0  0  0  0  0  0  0
   -2.5093    1.2092    2.2599 H   0  0  0  0  0  0  0  0  0  0  0  0
   -4.2338    0.9283    2.5645 H   0  0  0  0  0  0  0  0  0  0  0  0
   -1.2626   -0.1515   -0.1463 N   0  0  0  0  0  0  0  0  0  0  0  0
   -0.5020    0.9093    0.4600 C   0  0  2  0  0  0  0  0  0  0  0  0
   -1.4823    1.8928    1.0855 C   0  0  0  0  0  0  0  0  0  0  0  0
   -1.3522    2.3371    2.2242 O   0  0  0  0  0  0  0  0  0  0  0  0
    0.3890    1.6033   -0.5584 C   0  0  0  0  0  0  0  0  0  0  0  0
   -1.1301   -0.3283   -1.1402 H   0  0  0  0  0  0  0  0  0  0  0  0
    0.1084    0.4514    1.2460 H   0  0  0  0  0  0  0  0  0  0  0  0
   -0.2049    2.0681   -1.3538 H   0  0  0  0  0  0  0  0  0  0  0  0
    0.9880    2.3911   -0.0899 H   0  0  0  0  0  0  0  0  0  0  0  0
    1.0731    0.8888   -1.0287 H   0  0  0  0  0  0  0  0  0  0  0  0
   -2.5465    2.1857    0.2396 N   0  0  0  0  0  0  0  0  0  0  0  0
   -3.6275    3.0573    0.6182 C   0  0  2  0  0  0  0  0  0  0  0  0
   -4.8928    2.5639   -0.0709 C   0  0  0  0  0  0  0  0  0  0  0  0
   -4.8920    2.0525   -1.1888 O   0  0  0  0  0  0  0  0  0  0  0  0
   -3.3317    4.5010    0.2426 C   0  0  0  0  0  0  0  0  0  0  0  0
   -2.5490    1.8011   -0.7030 H   0  0  0  0  0  0  0  0  0  0  0  0
   -3.7425    2.9654    1.7037 H   0  0  0  0  0  0  0  0  0  0  0  0
   -3.2132    4.6128   -0.8413 H   0  0  0  0  0  0  0  0  0  0  0  0
   -4.1422    5.1668    0.5568 H   0  0  0  0  0  0  0  0  0  0  0  0
   -2.4053    4.8447    0.7154 H   0  0  0  0  0  0  0  0  0  0  0  0
   -6.0284    2.8010    0.6910 N   0  0  0  0  0  0  0  0  0  0  0  0
   -7.3569    2.4627    0.2365 C   0  0  0  0  0  0  0  0  0  0  0  0
   -5.9318    3.1929    1.6231 H   0  0  0  0  0  0  0  0  0  0  0  0
   -7.8043    3.3311   -0.2690 H   0  0  0  0  0  0  0  0  0  0  0  0
   -7.2998    1.6186   -0.4666 H   0  0  0  0  0  0  0  0  0  0  0  0
   -7.9785    2.1801    1.0989 H   0  0  0  0  0  0  0  0  0  0  0  0
  1  3  1  0  0  0  0
  1  7  1  0  0  0  0
  1  2  2  0  0  0  0
 28 29  1  0  0  0  0
 29 37  1  0  0  0  0
 29 30  2  0  0  0  0
 18 19  1  0  0  0  0
 19 27  1  0  0  0  0
 19 20  2  0  0  0  0
  8  9  1  0  0  0  0
  9 17  1  0  0  0  0
  9 10  2  0  0  0  0
 28 31  1  0  0  0  0
 18 21  1  0  0  0  0
  8 11  1  0  0  0  0
 37 38  1  0  0  0  0
 27 28  1  0  0  0  0
 17 18  1  0  0  0  0
  7  8  1  0  0  0  0
  3  4  1  0  0  0  0
  3  5  1  0  0  0  0
  3  6  1  0  0  0  0
 31 34  1  0  0  0  0
 31 35  1  0  0  0  0
 31 36  1  0  0  0  0
 21 24  1  0  0  0  0
 21 25  1  0  0  0  0
 21 26  1  0  0  0  0
 11 14  1  0  0  0  0
 11 15  1  0  0  0  0
 11 16  1  0  0  0  0
 38 40  1  0  0  0  0
 38 41  1  0  0  0  0
 38 42  1  0  0  0  0
 28 33  1  0  0  0  0
 18 23  1  0  0  0  0
  8 13  1  0  0  0  0
 37 39  1  0  0  0  0
  7 12  1  0  0  0  0
 27 32  1  0  0  0  0
 17 22  1  0  0  0  0
M  END
$$$$

  -OEChem-02062319033D

 42 41  0     1  0  0  0  0  0999 V2000
   -5.7851   -0.9580    0.6237 C   0  0  0  0  0  0  0  0  0  0  0  0
   -6.2213    0.1296    0.2652 O   0  0  0  0  0  0  0  0  0  0  0  0
   -6.7088   -2.1270    0.7168 C   0  0  0  0  0  0  0  0  0  0  0  0
   -7.1713   -2.2193    1.7126 H   0  0  0  0  0  0  0  0  0  0  0  0
   -7.5511   -2.0547    0.0101 H   0  0  0  0  0  0  0  0  0  0  0  0
   -6.2485   -3.1083    0.5191 H   0  0  0  0  0  0  0  0  0  0  0  0
   -4.4733   -1.2411    0.9668 N   0  0  0  0  0  0  0  0  0  0  0  0
   -3.4203   -0.2603    0.9449 C   0  0  2  0  0  0  0  0  0  0  0  0
   -2.1242   -0.9699    0.5759 C   0  0  0  0  0  0  0  0  0  0  0  0
   -1.8694   -2.1225    0.9189 O   0  0  0  0  0  0  0  0  0  0  0  0
   -3.2916    0.4435    2.2868 C   0  0  0  0  0  0  0  0  0  0  0  0
   -4.2421   -2.1920    1.2489 H   0  0  0  0  0  0  0  0  0  0  0  0
   -3.6772    0.4622    0.1625 H   0  0  0  0  0  0  0  0  0  0  0  0
   -3.0345   -0.2644    3.0832 H   0  0  0  0  0  0  0  0  0  0  0  0
   -2.5093    1.2092    2.2599 H   0  0  0  0  0  0  0  0  0  0  0  0
   -4.2338    0.9283    2.5645 H   0  0  0  0  0  0  0  0  0  0  0  0
   -1.2626   -0.1515   -0.1463 N   0  0  0  0  0  0  0  0  0  0  0  0
   -0.2765    0.6893    0.4798 C   0  0  2  0  0  0  0  0  0  0  0  0
   -1.0034    1.6637    1.3972 C   0  0  0  0  0  0  0  0  0  0  0  0
   -0.6497    1.8878    2.5530 O   0  0  0  0  0  0  0  0  0  0  0  0
    0.5537    1.4331   -0.5547 C   0  0  0  0  0  0  0  0  0  0  0  0
   -1.2993   -0.1708   -1.1636 H   0  0  0  0  0  0  0  0  0  0  0  0
    0.3650    0.0329    1.0779 H   0  0  0  0  0  0  0  0  0  0  0  0
   -0.0719    2.0958   -1.1637 H   0  0  0  0  0  0  0  0  0  0  0  0
    1.3221    2.0503   -0.0775 H   0  0  0  0  0  0  0  0  0  0  0  0
    1.0521    0.7314   -1.2322 H   0  0  0  0  0  0  0  0  0  0  0  0
   -2.1218    2.2244    0.7901 N   0  0  0  0  0  0  0  0  0  0  0  0
   -2.9985    3.1438    1.4665 C   0  0  2  0  0  0  0  0  0  0  0  0
   -4.4072    2.9334    0.9271 C   0  0  0  0  0  0  0  0  0  0  0  0
   -4.6395    2.6243   -0.2397 O   0  0  0  0  0  0  0  0  0  0  0  0
   -2.5500    4.5834    1.2684 C   0  0  0  0  0  0  0  0  0  0  0  0
   -2.3140    2.0096   -0.1863 H   0  0  0  0  0  0  0  0  0  0  0  0
   -2.9712    2.8826    2.5300 H   0  0  0  0  0  0  0  0  0  0  0  0
   -2.5708    4.8633    0.2088 H   0  0  0  0  0  0  0  0  0  0  0  0
   -3.2014    5.2796    1.8070 H   0  0  0  0  0  0  0  0  0  0  0  0
   -1.5258    4.7257    1.6297 H   0  0  0  0  0  0  0  0  0  0  0  0
   -5.3764    3.1737    1.8911 N   0  0  0  0  0  0  0  0  0  0  0  0
   -6.7909    3.0825    1.6141 C   0  0  0  0  0  0  0  0  0  0  0  0
   -5.0925    3.3859    2.8430 H   0  0  0  0  0  0  0  0  0  0  0  0
   -7.1729    4.0726    1.3245 H   0  0  0  0  0  0  0  0  0  0  0  0
   -6.9584    2.3704    0.7926 H   0  0  0  0  0  0  0  0  0  0  0  0
   -7.3190    2.7348    2.5142 H   0  0  0  0  0  0  0  0  0  0  0  0
  1  3  1  0  0  0  0
  1  7  1  0  0  0  0
  1  2  2  0  0  0  0
 28 29  1  0  0  0  0
 29 37  1  0  0  0  0
 29 30  2  0  0  0  0
 18 19  1  0  0  0  0
 19 27  1  0  0  0  0
 19 20  2  0  0  0  0
  8  9  1  0  0  0  0
  9 17  1  0  0  0  0
  9 10  2  0  0  0  0
 28 31  1  0  0  0  0
 18 21  1  0  0  0  0
  8 11  1  0  0  0  0
 37 38  1  0  0  0  0
 27 28  1  0  0  0  0
 17 18  1  0  0  0  0
  7  8  1  0  0  0  0
  3  4  1  0  0  0  0
  3  5  1  0  0  0  0
  3  6  1  0  0  0  0
 31 34  1  0  0  0  0
 31 35  1  0  0  0  0
 31 36  1  0  0  0  0
 21 24  1  0  0  0  0
 21 25  1  0  0  0  0
 21 26  1  0  0  0  0
 11 14  1  0  0  0  0
 11 15  1  0  0  0  0
 11 16  1  0  0  0  0
 38 40  1  0  0  0  0
 38 41  1  0  0  0  0
 38 42  1  0  0  0  0
 28 33  1  0  0  0  0
 18 23  1  0  0  0  0
  8 13  1  0  0  0  0
 37 39  1  0  0  0  0
  7 12  1  0  0  0  0
 27 32  1  0  0  0  0
 17 22  1  0  0  0  0
M  END
$$$$

  -OEChem-02062319033D

 42 41  0     1  0  0  0  0  0999 V2000
   -5.7851   -0.9580    0.6237 C   0  0  0  0  0  0  0  0  0  0  0  0
   -6.2213    0.1296    0.2652 O   0  0  0  0  0  0  0  0  0  0  0  0
   -6.7088   -2.1270    0.7168 C   0  0  0  0  0  0  0  0  0  0  0  0
   -7.1713   -2.2193    1.7126 H   0  0  0  0  0  0  0  0  0  0  0  0
   -7.5511   -2.0547    0.0101 H   0  0  0  0  0  0  0  0  0  0  0  0
   -6.2485   -3.1083    0.5191 H   0  0  0  0  0  0  0  0  0  0  0  0
   -4.4733   -1.2411    0.9668 N   0  0  0  0  0  0  0  0  0  0  0  0
   -3.4203   -0.2603    0.9449 C   0  0  2  0  0  0  0  0  0  0  0  0
   -2.1242   -0.9699    0.5759 C   0  0  0  0  0  0  0  0  0  0  0  0
   -1.8694   -2.1225    0.9189 O   0  0  0  0  0  0  0  0  0  0  0  0
   -3.2916    0.4435    2.2868 C   0  0  0  0  0  0  0  0  0  0  0  0
   -4.2421   -2.1920    1.2489 H   0  0  0  0  0  0  0  0  0  0  0  0
   -3.6772    0.4622    0.1625 H   0  0  0  0  0  0  0  0  0  0  0  0
   -3.0345   -0.2644    3.0832 H   0  0  0  0  0  0  0  0  0  0  0  0
   -2.5093    1.2092    2.2599 H   0  0  0  0  0  0  0  0  0  0  0  0
   -4.2338    0.9283    2.5645 H   0  0  0  0  0  0  0  0  0  0  0  0
   -1.2626   -0.1515   -0.1463 N   0  0  0  0  0  0  0  0  0  0  0  0
   -0.0852    0.4433    0.4293 C   0  0  2  0  0  0  0  0  0  0  0  0
   -0.5241    1.3280    1.5886 C   0  0  0  0  0  0  0  0  0  0  0  0
    0.0184    1.3066    2.6915 O   0  0  0  0  0  0  0  0  0  0  0  0
    0.6906    1.2460   -0.6035 C   0  0  0  0  0  0  0  0  0  0  0  0
   -1.4452    0.0078   -1.1352 H   0  0  0  0  0  0  0  0  0  0  0  0
    0.5309   -0.3788    0.8093 H   0  0  0  0  0  0  0  0  0  0  0  0
    0.0893    2.0743   -0.9958 H   0  0  0  0  0  0  0  0  0  0  0  0
    1.6009    1.6742   -0.1712 H   0  0  0  0  0  0  0  0  0  0  0  0
    0.9797    0.6148   -1.4508 H   0  0  0  0  0  0  0  0  0  0  0  0
   -1.6225    2.1164    1.2634 N   0  0  0  0  0  0  0  0  0  0  0  0
   -2.2502    3.0068    2.2039 C   0  0  2  0  0  0  0  0  0  0  0  0
   -3.7364    3.0651    1.8765 C   0  0  0  0  0  0  0  0  0  0  0  0
   -4.1742    2.9904    0.7302 O   0  0  0  0  0  0  0  0  0  0  0  0
   -1.6277    4.3934    2.1534 C   0  0  0  0  0  0  0  0  0  0  0  0
   -1.9802    2.0966    0.3104 H   0  0  0  0  0  0  0  0  0  0  0  0
   -2.1115    2.5664    3.1973 H   0  0  0  0  0  0  0  0  0  0  0  0
   -1.7567    4.8506    1.1655 H   0  0  0  0  0  0  0  0  0  0  0  0
   -2.0870    5.0616    2.8893 H   0  0  0  0  0  0  0  0  0  0  0  0
   -0.5530    4.3459    2.3598 H   0  0  0  0  0  0  0  0  0  0  0  0
   -4.5137    3.2536    3.0107 N   0  0  0  0  0  0  0  0  0  0  0  0
   -5.9511    3.3843    2.9579 C   0  0  0  0  0  0  0  0  0  0  0  0
   -4.0701    3.2638    3.9244 H   0  0  0  0  0  0  0  0  0  0  0  0
   -6.2206    4.4484    2.8863 H   0  0  0  0  0  0  0  0  0  0  0  0
   -6.3358    2.8488    2.0774 H   0  0  0  0  0  0  0  0  0  0  0  0
   -6.3919    2.9551    3.8697 H   0  0  0  0  0  0  0  0  0  0  0  0
  1  3  1  0  0  0  0
  1  7  1  0  0  0  0
  1  2  2  0  0  0  0
 28 29  1  0  0  0  0
 29 37  1  0  0  0  0
 29 30  2  0  0  0  0
 18 19  1  0  0  0  0
 19 27  1  0  0  0  0
 19 20  2  0  0  0  0
  8  9  1  0  0  0  0
  9 17  1  0  0  0  0
  9 10  2  0  0  0  0
 28 31  1  0  0  0  0
 18 21  1  0  0  0  0
  8 11  1  0  0  0  0
 37 38  1  0  0  0  0
 27 28  1  0  0  0  0
 17 18  1  0  0  0  0
  7  8  1  0  0  0  0
  3  4  1  0  0  0  0
  3  5  1  0  0  0  0
  3  6  1  0  0  0  0
 31 34  1  0  0  0  0
 31 35  1  0  0  0  0
 31 36  1  0  0  0  0
 21 24  1  0  0  0  0
 21 25  1  0  0  0  0
 21 26  1  0  0  0  0
 11 14  1  0  0  0  0
 11 15  1  0  0  0  0
 11 16  1  0  0  0  0
 38 40  1  0  0  0  0
 38 41  1  0  0  0  0
 38 42  1  0  0  0  0
 28 33  1  0  0  0  0
 18 23  1  0  0  0  0
  8 13  1  0  0  0  0
 37 39  1  0  0  0  0
  7 12  1  0  0  0  0
 27 32  1  0  0  0  0
 17 22  1  0  0  0  0
M  END
$$$$

  -OEChem-02062319033D

 42 41  0     1  0  0  0  0  0999 V2000
   -5.7851   -0.9580    0.6237 C   0  0  0  0  0  0  0  0  0  0  0  0
   -6.2213    0.1296    0.2652 O   0  0  0  0  0  0  0  0  0  0  0  0
   -6.7088   -2.1270    0.7168 C   0  0  0  0  0  0  0  0  0  0  0  0
   -7.1713   -2.2193    1.7126 H   0  0  0  0  0  0  0  0  0  0  0  0
   -7.5511   -2.0547    0.0101 H   0  0  0  0  0  0  0  0  0  0  0  0
   -6.2485   -3.1083    0.5191 H   0  0  0  0  0  0  0  0  0  0  0  0
   -4.4733   -1.2411    0.9668 N   0  0  0  0  0  0  0  0  0  0  0  0
   -3.4203   -0.2603    0.9449 C   0  0  2  0  0  0  0  0  0  0  0  0
   -2.1242   -0.9699    0.5759 C   0  0  0  0  0  0  0  0  0  0  0  0
   -1.8694   -2.1225    0.9189 O   0  0  0  0  0  0  0  0  0  0  0  0
   -3.2916    0.4435    2.2868 C   0  0  0  0  0  0  0  0  0  0  0  0
   -4.2421   -2.1920    1.2489 H   0  0  0  0  0  0  0  0  0  0  0  0
   -3.6772    0.4622    0.1625 H   0  0  0  0  0  0  0  0  0  0  0  0
   -3.0345   -0.2644    3.0832 H   0  0  0  0  0  0  0  0  0  0  0  0
   -2.5093    1.2092    2.2599 H   0  0  0  0  0  0  0  0  0  0  0  0
   -4.2338    0.9283    2.5645 H   0  0  0  0  0  0  0  0  0  0  0  0
   -1.2626   -0.1515   -0.1463 N   0  0  0  0  0  0  0  0  0  0  0  0
    0.0588    0.1882    0.3119 C   0  0  2  0  0  0  0  0  0  0  0  0
   -0.0771    0.9087    1.6467 C   0  0  0  0  0  0  0  0  0  0  0  0
    0.6068    0.6332    2.6303 O   0  0  0  0  0  0  0  0  0  0  0  0
    0.7902    1.0546   -0.7016 C   0  0  0  0  0  0  0  0  0  0  0  0
   -1.5578    0.1954   -1.0569 H   0  0  0  0  0  0  0  0  0  0  0  0
    0.5950   -0.7558    0.4586 H   0  0  0  0  0  0  0  0  0  0  0  0
    0.2677    2.0048   -0.8617 H   0  0  0  0  0  0  0  0  0  0  0  0
    1.8054    1.2884   -0.3644 H   0  0  0  0  0  0  0  0  0  0  0  0
    0.8608    0.5469   -1.6696 H   0  0  0  0  0  0  0  0  0  0  0  0
   -1.0826    1.8690    1.6271 N   0  0  0  0  0  0  0  0  0  0  0  0
   -1.4335    2.6556    2.7802 C   0  0  2  0  0  0  0  0  0  0  0  0
   -2.9262    2.9498    2.7124 C   0  0  0  0  0  0  0  0  0  0  0  0
   -3.5278    3.1259    1.6550 O   0  0  0  0  0  0  0  0  0  0  0  0
   -0.6276    3.9440    2.8372 C   0  0  0  0  0  0  0  0  0  0  0  0
   -1.5704    2.0561    0.7533 H   0  0  0  0  0  0  0  0  0  0  0  0
   -1.2219    2.0385    3.6603 H   0  0  0  0  0  0  0  0  0  0  0  0
   -0.8264    4.5754    1.9636 H   0  0  0  0  0  0  0  0  0  0  0  0
   -0.8751    4.5276    3.7301 H   0  0  0  0  0  0  0  0  0  0  0  0
    0.4468    3.7312    2.8559 H   0  0  0  0  0  0  0  0  0  0  0  0
   -3.4992    3.0352    3.9736 N   0  0  0  0  0  0  0  0  0  0  0  0
   -4.8946    3.3475    4.1764 C   0  0  0  0  0  0  0  0  0  0  0  0
   -2.9342    2.8351    4.7937 H   0  0  0  0  0  0  0  0  0  0  0  0
   -5.0124    4.4329    4.3102 H   0  0  0  0  0  0  0  0  0  0  0  0
   -5.4743    3.0211    3.3004 H   0  0  0  0  0  0  0  0  0  0  0  0
   -5.2604    2.8258    5.0732 H   0  0  0  0  0  0  0  0  0  0  0  0
  1  3  1  0  0  0  0
  1  7  1  0  0  0  0
  1  2  2  0  0  0  0
 28 29  1  0  0  0  0
 29 37  1  0  0  0  0
 29 30  2  0  0  0  0
 18 19  1  0  0  0  0
 19 27  1  0  0  0  0
 19 20  2  0  0  0  0
  8  9  1  0  0  0  0
  9 17  1  0  0  0  0
  9 10  2  0  0  0  0
 28 31  1  0  0  0  0
 18 21  1  0  0  0  0
  8 11  1  0  0  0  0
 37 38  1  0  0  0  0
 27 28  1  0  0  0  0
 17 18  1  0  0  0  0
  7  8  1  0  0  0  0
  3  4  1  0  0  0  0
  3  5  1  0  0  0  0
  3  6  1  0  0  0  0
 31 34  1  0  0  0  0
 31 35  1  0  0  0  0
 31 36  1  0  0  0  0
 21 24  1  0  0  0  0
 21 25  1  0  0  0  0
 21 26  1  0  0  0  0
 11 14  1  0  0  0  0
 11 15  1  0  0  0  0
 11 16  1  0  0  0  0
 38 40  1  0  0  0  0
 38 41  1  0  0  0  0
 38 42  1  0  0  0  0
 28 33  1  0  0  0  0
 18 23  1  0  0  0  0
  8 13  1  0  0  0  0
 37 39  1  0  0  0  0
  7 12  1  0  0  0  0
 27 32  1  0  0  0  0
 17 22  1  0  0  0  0
M  END
$$$$

  -OEChem-02062319033D

 42 41  0     1  0  0  0  0  0999 V2000
   -5.7851   -0.9580    0.6237 C   0  0  0  0  0  0  0  0  0  0  0  0
   -6.2213    0.1296    0.2652 O   0  0  0  0  0  0  0  0  0  0  0  0
   -6.7088   -2.1270    0.7168 C   0  0  0  0  0  0  0  0  0  0  0  0
   -7.1713   -2.2193    1.7126 H   0  0  0  0  0  0  0  0  0  0  0  0
   -7.5511   -2.0547    0.0101 H   0  0  0  0  0  0  0  0  0  0  0  0
   -6.2485   -3.1083    0.5191 H   0  0  0  0  0  0  0  0  0  0  0  0
   -4.4733   -1.2411    0.9668 N   0  0  0  0  0  0  0  0  0  0  0  0
   -3.4203   -0.2603    0.9449 C   0  0  2  0  0  0  0  0  0  0  0  0
   -2.1242   -0.9699    0.5759 C   0  0  0  0  0  0  0  0  0  0  0  0
   -1.8694   -2.1225    0.9189 O   0  0  0  0  0  0  0  0  0  0  0  0
   -3.2916    0.4435    2.2868 C   0  0  0  0  0  0  0  0  0  0  0  0
   -4.2421   -2.1920    1.2489 H   0  0  0  0  0  0  0  0  0  0  0  0
   -3.6772    0.4622    0.1625 H   0  0  0  0  0  0  0  0  0  0  0  0
   -3.0345   -0.2644    3.0832 H   0  0  0  0  0  0  0  0  0  0  0  0
   -2.5093    1.2092    2.2599 H   0  0  0  0  0  0  0  0  0  0  0  0
   -4.2338    0.9283    2.5645 H   0  0  0  0  0  0  0  0  0  0  0  0
   -1.2626   -0.1515   -0.1463 N   0  0  0  0  0  0  0  0  0  0  0  0
    0.1457   -0.0589    0.1356 C   0  0  2  0  0  0  0  0  0  0  0  0
    0.3072    0.4342    1.5675 C   0  0  0  0  0  0  0  0  0  0  0  0
    1.0753   -0.0865    2.3737 O   0  0  0  0  0  0  0  0  0  0  0  0
    0.8457    0.8721   -0.8421 C   0  0  0  0  0  0  0  0  0  0  0  0
   -1.6293    0.3792   -0.9340 H   0  0  0  0  0  0  0  0  0  0  0  0
    0.5528   -1.0722    0.0496 H   0  0  0  0  0  0  0  0  0  0  0  0
    0.4511    1.8923   -0.7705 H   0  0  0  0  0  0  0  0  0  0  0  0
    1.9216    0.9193   -0.6440 H   0  0  0  0  0  0  0  0  0  0  0  0
    0.7034    0.5324   -1.8737 H   0  0  0  0  0  0  0  0  0  0  0  0
   -0.5390    1.4992    1.8566 N   0  0  0  0  0  0  0  0  0  0  0  0
   -0.6040    2.1141    3.1562 C   0  0  2  0  0  0  0  0  0  0  0  0
   -2.0318    2.5955    3.3779 C   0  0  0  0  0  0  0  0  0  0  0  0
   -2.7443    3.0216    2.4714 O   0  0  0  0  0  0  0  0  0  0  0  0
    0.3823    3.2658    3.2734 C   0  0  0  0  0  0  0  0  0  0  0  0
   -1.1126    1.8908    1.1122 H   0  0  0  0  0  0  0  0  0  0  0  0
   -0.3631    1.3346    3.8873 H   0  0  0  0  0  0  0  0  0  0  0  0
    0.1569    4.0566    2.5486 H   0  0  0  0  0  0  0  0  0  0  0  0
    0.3519    3.7141    4.2719 H   0  0  0  0  0  0  0  0  0  0  0  0
    1.4054    2.9234    3.0843 H   0  0  0  0  0  0  0  0  0  0  0  0
   -2.4018    2.5335    4.7141 N   0  0  0  0  0  0  0  0  0  0  0  0
   -3.6935    2.9744    5.1866 C   0  0  0  0  0  0  0  0  0  0  0  0
   -1.7622    2.1289    5.3915 H   0  0  0  0  0  0  0  0  0  0  0  0
   -3.6304    4.0272    5.4990 H   0  0  0  0  0  0  0  0  0  0  0  0
   -4.4328    2.8757    4.3780 H   0  0  0  0  0  0  0  0  0  0  0  0
   -4.0014    2.3559    6.0425 H   0  0  0  0  0  0  0  0  0  0  0  0
  1  3  1  0  0  0  0
  1  7  1  0  0  0  0
  1  2  2  0  0  0  0
 28 29  1  0  0  0  0
 29 37  1  0  0  0  0
 29 30  2  0  0  0  0
 18 19  1  0  0  0  0
 19 27  1  0  0  0  0
 19 20  2  0  0  0  0
  8  9  1  0  0  0  0
  9 17  1  0  0  0  0
  9 10  2  0  0  0  0
 28 31  1  0  0  0  0
 18 21  1  0  0  0  0
  8 11  1  0  0  0  0
 37 38  1  0  0  0  0
 27 28  1  0  0  0  0
 17 18  1  0  0  0  0
  7  8  1  0  0  0  0
  3  4  1  0  0  0  0
  3  5  1  0  0  0  0
  3  6  1  0  0  0  0
 31 34  1  0  0  0  0
 31 35  1  0  0  0  0
 31 36  1  0  0  0  0
 21 24  1  0  0  0  0
 21 25  1  0  0  0  0
 21 26  1  0  0  0  0
 11 14  1  0  0  0  0
 11 15  1  0  0  0  0
 11 16  1  0  0  0  0
 38 40  1  0  0  0  0
 38 41  1  0  0  0  0
 38 42  1  0  0  0  0
 28 33  1  0  0  0  0
 18 23  1  0  0  0  0
  8 13  1  0  0  0  0
 37 39  1  0  0  0  0
  7 12  1  0  0  0  0
 27 32  1  0  0  0  0
 17 22  1  0  0  0  0
M  END
$$$$

  -OEChem-02062319033D

 42 41  0     1  0  0  0  0  0999 V2000
   -5.7851   -0.9580    0.6237 C   0  0  0  0  0  0  0  0  0  0  0  0
   -6.2213    0.1296    0.2652 O   0  0  0  0  0  0  0  0  0  0  0  0
   -6.7088   -2.1270    0.7168 C   0  0  0  0  0  0  0  0  0  0  0  0
   -7.1713   -2.2193    1.7126 H   0  0  0  0  0  0  0  0  0  0  0  0
   -7.5511   -2.0547    0.0101 H   0  0  0  0  0  0  0  0  0  0  0  0
   -6.2485   -3.1083    0.5191 H   0  0  0  0  0  0  0  0  0  0  0  0
   -4.4733   -1.2411    0.9668 N   0  0  0  0  0  0  0  0  0  0  0  0
   -3.4203   -0.2603    0.9449 C   0  0  2  0  0  0  0  0  0  0  0  0
   -2.1242   -0.9699    0.5759 C   0  0  0  0  0  0  0  0  0  0  0  0
   -1.8694   -2.1225    0.9189 O   0  0  0  0  0  0  0  0  0  0  0  0
   -3.2916    0.4435    2.2868 C   0  0  0  0  0  0  0  0  0  0  0  0
   -4.2421   -2.1920    1.2489 H   0  0  0  0  0  0  0  0  0  0  0  0
   -3.6772    0.4622    0.1625 H   0  0  0  0  0  0  0  0  0  0  0  0
   -3.0345   -0.2644    3.0832 H   0  0  0  0  0  0  0  0  0  0  0  0
   -2.5093    1.2092    2.2599 H   0  0  0  0  0  0  0  0  0  0  0  0
   -4.2338    0.9283    2.5645 H   0  0  0  0  0  0  0  0  0  0  0  0
   -1.2626   -0.1515   -0.1463 N   0  0  0  0  0  0  0  0  0  0  0  0
    0.1696   -0.2809   -0.0875 C   0  0  2  0  0  0  0  0  0  0  0  0
    0.6025   -0.0630    1.3564 C   0  0  0  0  0  0  0  0  0  0  0  0
    1.3920   -0.8035    1.9390 O   0  0  0  0  0  0  0  0  0  0  0  0
    0.8534    0.7109   -1.0155 C   0  0  0  0  0  0  0  0  0  0  0  0
   -1.6550    0.5466   -0.7750 H   0  0  0  0  0  0  0  0  0  0  0  0
    0.4071   -1.3067   -0.3897 H   0  0  0  0  0  0  0  0  0  0  0  0
    0.6270    1.7443   -0.7283 H   0  0  0  0  0  0  0  0  0  0  0  0
    1.9417    0.5919   -0.9910 H   0  0  0  0  0  0  0  0  0  0  0  0
    0.5184    0.5723   -2.0492 H   0  0  0  0  0  0  0  0  0  0  0  0
   -0.0286    1.0321    1.9361 N   0  0  0  0  0  0  0  0  0  0  0  0
    0.1818    1.4193    3.3062 C   0  0  2  0  0  0  0  0  0  0  0  0
   -1.1140    2.0263    3.8277 C   0  0  0  0  0  0  0  0  0  0  0  0
   -1.8772    2.6847    3.1240 O   0  0  0  0  0  0  0  0  0  0  0  0
    1.3330    2.4050    3.4321 C   0  0  0  0  0  0  0  0  0  0  0  0
   -0.6380    1.6121    1.3626 H   0  0  0  0  0  0  0  0  0  0  0  0
    0.4065    0.5030    3.8629 H   0  0  0  0  0  0  0  0  0  0  0  0
    1.1260    3.3294    2.8808 H   0  0  0  0  0  0  0  0  0  0  0  0
    1.5102    2.6765    4.4780 H   0  0  0  0  0  0  0  0  0  0  0  0
    2.2577    1.9777    3.0293 H   0  0  0  0  0  0  0  0  0  0  0  0
   -1.2966    1.7827    5.1818 N   0  0  0  0  0  0  0  0  0  0  0  0
   -2.4296    2.2906    5.9195 C   0  0  0  0  0  0  0  0  0  0  0  0
   -0.6340    1.1933    5.6772 H   0  0  0  0  0  0  0  0  0  0  0  0
   -2.1691    3.2590    6.3717 H   0  0  0  0  0  0  0  0  0  0  0  0
   -3.2822    2.4224    5.2370 H   0  0  0  0  0  0  0  0  0  0  0  0
   -2.7008    1.5773    6.7117 H   0  0  0  0  0  0  0  0  0  0  0  0
  1  3  1  0  0  0  0
  1  7  1  0  0  0  0
  1  2  2  0  0  0  0
 28 29  1  0  0  0  0
 29 37  1  0  0  0  0
 29 30  2  0  0  0  0
 18 19  1  0  0  0  0
 19 27  1  0  0  0  0
 19 20  2  0  0  0  0
  8  9  1  0  0  0  0
  9 17  1  0  0  0  0
  9 10  2  0  0  0  0
 28 31  1  0  0  0  0
 18 21  1  0  0  0  0
  8 11  1  0  0  0  0
 37 38  1  0  0  0  0
 27 28  1  0  0  0  0
 17 18  1  0  0  0  0
  7  8  1  0  0  0  0
  3  4  1  0  0  0  0
  3  5  1  0  0  0  0
  3  6  1  0  0  0  0
 31 34  1  0  0  0  0
 31 35  1  0  0  0  0
 31 36  1  0  0  0  0
 21 24  1  0  0  0  0
 21 25  1  0  0  0  0
 21 26  1  0  0  0  0
 11 14  1  0  0  0  0
 11 15  1  0  0  0  0
 11 16  1  0  0  0  0
 38 40  1  0  0  0  0
 38 41  1  0  0  0  0
 38 42  1  0  0  0  0
 28 33  1  0  0  0  0
 18 23  1  0  0  0  0
  8 13  1  0  0  0  0
 37 39  1  0  0  0  0
  7 12  1  0  0  0  0
 27 32  1  0  0  0  0
 17 22  1  0  0  0  0
M  END
$$$$

  -OEChem-02062319033D

 42 41  0     1  0  0  0  0  0999 V2000
   -5.7851   -0.9580    0.6237 C   0  0  0  0  0  0  0  0  0  0  0  0
   -6.2213    0.1296    0.2652 O   0  0  0  0  0  0  0  0  0  0  0  0
   -6.7088   -2.1270    0.7168 C   0  0  0  0  0  0  0  0  0  0  0  0
   -7.1713   -2.2193    1.7126 H   0  0  0  0  0  0  0  0  0  0  0  0
   -7.5511   -2.0547    0.0101 H   0  0  0  0  0  0  0  0  0  0  0  0
   -6.2485   -3.1083    0.5191 H   0  0  0  0  0  0  0  0  0  0  0  0
   -4.4733   -1.2411    0.9668 N   0  0  0  0  0  0  0  0  0  0  0  0
   -3.4203   -0.2603    0.9449 C   0  0  2  0  0  0  0  0  0  0  0  0
   -2.1242   -0.9699    0.5759 C   0  0  0  0  0  0  0  0  0  0  0  0
   -1.8694   -2.1225    0.9189 O   0  0  0  0  0  0  0  0  0  0  0  0
   -3.2916    0.4435    2.2868 C   0  0  0  0  0  0  0  0  0  0  0  0
   -4.2421   -2.1920    1.2489 H   0  0  0  0  0  0  0  0  0  0  0  0
   -3.6772    0.4622    0.1625 H   0  0  0  0  0  0  0  0  0  0  0  0
   -3.0345   -0.2644    3.0832 H   0  0  0  0  0  0  0  0  0  0  0  0
   -2.5093    1.2092    2.2599 H   0  0  0  0  0  0  0  0  0  0  0  0
   -4.2338    0.9283    2.5645 H   0  0  0  0  0  0  0  0  0  0  0  0
   -1.2626   -0.1515   -0.1463 N   0  0  0  0  0  0  0  0  0  0  0  0
    0.1288   -0.4628   -0.3422 C   0  0  2  0  0  0  0  0  0  0  0  0
    0.7888   -0.5491    1.0277 C   0  0  0  0  0  0  0  0  0  0  0  0
    1.5353   -1.4690    1.3558 O   0  0  0  0  0  0  0  0  0  0  0  0
    0.8128    0.5820   -1.2101 C   0  0  0  0  0  0  0  0  0  0  0  0
   -1.6331    0.6863   -0.5906 H   0  0  0  0  0  0  0  0  0  0  0  0
    0.1681   -1.4431   -0.8295 H   0  0  0  0  0  0  0  0  0  0  0  0
    0.7835    1.5709   -0.7381 H   0  0  0  0  0  0  0  0  0  0  0  0
    1.8642    0.3287   -1.3817 H   0  0  0  0  0  0  0  0  0  0  0  0
    0.3183    0.6639   -2.1841 H   0  0  0  0  0  0  0  0  0  0  0  0
    0.4136    0.4996    1.8603 N   0  0  0  0  0  0  0  0  0  0  0  0
    0.8702    0.6185    3.2200 C   0  0  2  0  0  0  0  0  0  0  0  0
   -0.2356    1.2810    4.0311 C   0  0  0  0  0  0  0  0  0  0  0  0
   -0.9855    2.1380    3.5683 O   0  0  0  0  0  0  0  0  0  0  0  0
    2.1597    1.4203    3.3026 C   0  0  0  0  0  0  0  0  0  0  0  0
   -0.1788    1.2389    1.4875 H   0  0  0  0  0  0  0  0  0  0  0  0
    1.0343   -0.3999    3.5887 H   0  0  0  0  0  0  0  0  0  0  0  0
    2.0149    2.4435    2.9374 H   0  0  0  0  0  0  0  0  0  0  0  0
    2.5210    1.4855    4.3342 H   0  0  0  0  0  0  0  0  0  0  0  0
    2.9453    0.9585    2.6948 H   0  0  0  0  0  0  0  0  0  0  0  0
   -0.2587    0.8338    5.3448 N   0  0  0  0  0  0  0  0  0  0  0  0
   -1.1890    1.3427    6.3253 C   0  0  0  0  0  0  0  0  0  0  0  0
    0.3735    0.0922    5.6313 H   0  0  0  0  0  0  0  0  0  0  0  0
   -0.7279    2.1805    6.8689 H   0  0  0  0  0  0  0  0  0  0  0  0
   -2.1008    1.6921    5.8188 H   0  0  0  0  0  0  0  0  0  0  0  0
   -1.4473    0.5431    7.0351 H   0  0  0  0  0  0  0  0  0  0  0  0
  1  3  1  0  0  0  0
  1  7  1  0  0  0  0
  1  2  2  0  0  0  0
 28 29  1  0  0  0  0
 29 37  1  0  0  0  0
 29 30  2  0  0  0  0
 18 19  1  0  0  0  0
 19 27  1  0  0  0  0
 19 20  2  0  0  0  0
  8  9  1  0  0  0  0
  9 17  1  0  0  0  0
  9 10  2  0  0  0  0
 28 31  1  0  0  0  0
 18 21  1  0  0  0  0
  8 11  1  0  0  0  0
 37 38  1  0  0  0  0
 27 28  1  0  0  0  0
 17 18  1  0  0  0  0
  7  8  1  0  0  0  0
  3  4  1  0  0  0  0
  3  5  1  0  0  0  0
  3  6  1  0  0  0  0
 31 34  1  0  0  0  0
 31 35  1  0  0  0  0
 31 36  1  0  0  0  0
 21 24  1  0  0  0  0
 21 25  1  0  0  0  0
 21 26  1  0  0  0  0
 11 14  1  0  0  0  0
 11 15  1  0  0  0  0
 11 16  1  0  0  0  0
 38 40  1  0  0  0  0
 38 41  1  0  0  0  0
 38 42  1  0  0  0  0
 28 33  1  0  0  0  0
 18 23  1  0  0  0  0
  8 13  1  0  0  0  0
 37 39  1  0  0  0  0
  7 12  1  0  0  0  0
 27 32  1  0  0  0  0
 17 22  1  0  0  0  0
M  END
$$$$
