
  -OEChem-02062319043D

 42 41  0     1  0  0  0  0  0999 V2000
   -4.5671   -0.7906   -1.2508 C   0  0  0  0  0  0  0  0  0  0  0  0
   -4.9243    0.1304   -1.9685 O   0  0  0  0  0  0  0  0  0  0  0  0
   -5.4516   -2.0126   -1.0890 C   0  0  0  0  0  0  0  0  0  0  0  0
   -5.5816   -2.2432   -0.0289 H   0  0  0  0  0  0  0  0  0  0  0  0
   -6.4348   -1.8287   -1.5313 H   0  0  0  0  0  0  0  0  0  0  0  0
   -4.9944   -2.8706   -1.5879 H   0  0  0  0  0  0  0  0  0  0  0  0
   -3.3532   -0.7363   -0.5985 N   0  0  0  0  0  0  0  0  0  0  0  0
   -2.3202    0.2757   -0.8580 C   0  0  2  0  0  0  0  0  0  0  0  0
   -0.9796   -0.3783   -1.2485 C   0  0  0  0  0  0  0  0  0  0  0  0
   -0.7121   -1.5068   -0.8554 O   0  0  0  0  0  0  0  0  0  0  0  0
   -2.1531    1.1146    0.4109 C   0  0  0  0  0  0  0  0  0  0  0  0
   -3.0357   -1.6005   -0.1618 H   0  0  0  0  0  0  0  0  0  0  0  0
   -2.6207    0.9337   -1.6797 H   0  0  0  0  0  0  0  0  0  0  0  0
   -1.8326    0.4855    1.2480 H   0  0  0  0  0  0  0  0  0  0  0  0
   -1.4019    1.8960    0.2597 H   0  0  0  0  0  0  0  0  0  0  0  0
   -3.1010    1.5929    0.6762 H   0  0  0  0  0  0  0  0  0  0  0  0
   -0.0729    0.2951   -2.0491 N   0  0  0  0  0  0  0  0  0  0  0  0
    1.2284   -0.2563   -2.4674 C   0  0  2  0  0  0  0  0  0  0  0  0
    2.1522   -0.5959   -1.2787 C   0  0  0  0  0  0  0  0  0  0  0  0
    2.8833   -1.5770   -1.3080 O   0  0  0  0  0  0  0  0  0  0  0  0
    1.9060    0.7509   -3.3992 C   0  0  0  0  0  0  0  0  0  0  0  0
   -0.3595    1.2010   -2.4089 H   0  0  0  0  0  0  0  0  0  0  0  0
    1.0574   -1.1869   -3.0202 H   0  0  0  0  0  0  0  0  0  0  0  0
    2.0877    1.6982   -2.8816 H   0  0  0  0  0  0  0  0  0  0  0  0
    2.8666    0.3547   -3.7447 H   0  0  0  0  0  0  0  0  0  0  0  0
    1.2779    0.9433   -4.2745 H   0  0  0  0  0  0  0  0  0  0  0  0
    2.2716    0.3137   -0.2470 N   0  0  0  0  0  0  0  0  0  0  0  0
    2.8010   -0.0413    1.0726 C   0  0  2  0  0  0  0  0  0  0  0  0
    1.8436    0.4463    2.1811 C   0  0  0  0  0  0  0  0  0  0  0  0
    0.9542    1.2514    1.9153 O   0  0  0  0  0  0  0  0  0  0  0  0
    4.1847    0.5945    1.2209 C   0  0  0  0  0  0  0  0  0  0  0  0
    1.5478    1.0305   -0.2364 H   0  0  0  0  0  0  0  0  0  0  0  0
    2.8900   -1.1292    1.1683 H   0  0  0  0  0  0  0  0  0  0  0  0
    4.1155    1.6846    1.1502 H   0  0  0  0  0  0  0  0  0  0  0  0
    4.6253    0.3340    2.1875 H   0  0  0  0  0  0  0  0  0  0  0  0
    4.8500    0.2353    0.4295 H   0  0  0  0  0  0  0  0  0  0  0  0
    1.9773   -0.0097    3.4792 N   0  0  0  0  0  0  0  0  0  0  0  0
    1.0933    0.3982    4.5643 C   0  0  0  0  0  0  0  0  0  0  0  0
    2.6920   -0.7088    3.6611 H   0  0  0  0  0  0  0  0  0  0  0  0
    1.1115    1.4867    4.6843 H   0  0  0  0  0  0  0  0  0  0  0  0
    0.0648    0.0830    4.3591 H   0  0  0  0  0  0  0  0  0  0  0  0
    1.4141   -0.0575    5.5059 H   0  0  0  0  0  0  0  0  0  0  0  0
  1  2  2  0  0  0  0
  1  3  1  0  0  0  0
  1  7  1  0  0  0  0
  3  4  1  0  0  0  0
  3  5  1  0  0  0  0
  3  6  1  0  0  0  0
  7  8  1  0  0  0  0
  7 12  1  0  0  0  0
  8  9  1  0  0  0  0
  8 11  1  0  0  0  0
  8 13  1  0  0  0  0
  9 10  2  0  0  0  0
  9 17  1  0  0  0  0
 11 14  1  0  0  0  0
 11 15  1  0  0  0  0
 11 16  1  0  0  0  0
 17 18  1  0  0  0  0
 17 22  1  0  0  0  0
 18 19  1  0  0  0  0
 18 21  1  0  0  0  0
 18 23  1  0  0  0  0
 19 20  2  0  0  0  0
 19 27  1  0  0  0  0
 21 24  1  0  0  0  0
 21 25  1  0  0  0  0
 21 26  1  0  0  0  0
 27 28  1  0  0  0  0
 27 32  1  0  0  0  0
 28 29  1  0  0  0  0
 28 31  1  0  0  0  0
 28 33  1  0  0  0  0
 29 30  2  0  0  0  0
 29 37  1  0  0  0  0
 31 34  1  0  0  0  0
 31 35  1  0  0  0  0
 31 36  1  0  0  0  0
 37 38  1  0  0  0  0
 37 39  1  0  0  0  0
 38 40  1  0  0  0  0
 38 41  1  0  0  0  0
 38 42  1  0  0  0  0
M  END
$$$$

  -OEChem-02062319043D

 42 41  0     1  0  0  0  0  0999 V2000
   -4.5608   -0.7655   -1.2023 C   0  0  0  0  0  0  0  0  0  0  0  0
   -4.9367    0.2158   -1.8244 O   0  0  0  0  0  0  0  0  0  0  0  0
   -5.4545   -1.9873   -1.1007 C   0  0  0  0  0  0  0  0  0  0  0  0
   -5.6226   -2.2420   -0.0513 H   0  0  0  0  0  0  0  0  0  0  0  0
   -6.4202   -1.7879   -1.5740 H   0  0  0  0  0  0  0  0  0  0  0  0
   -4.9834   -2.8352   -1.6040 H   0  0  0  0  0  0  0  0  0  0  0  0
   -3.3190   -0.7755   -0.6025 N   0  0  0  0  0  0  0  0  0  0  0  0
   -2.2884    0.2484   -0.8219 C   0  0  2  0  0  0  0  0  0  0  0  0
   -0.9398   -0.3814   -1.2233 C   0  0  0  0  0  0  0  0  0  0  0  0
   -0.6946   -1.5413   -0.9167 O   0  0  0  0  0  0  0  0  0  0  0  0
   -2.1288    1.0475    0.4732 C   0  0  0  0  0  0  0  0  0  0  0  0
   -2.9930   -1.6733   -0.2465 H   0  0  0  0  0  0  0  0  0  0  0  0
   -2.5883    0.9289   -1.6255 H   0  0  0  0  0  0  0  0  0  0  0  0
   -1.8087    0.3932    1.2910 H   0  0  0  0  0  0  0  0  0  0  0  0
   -1.3794    1.8353    0.3485 H   0  0  0  0  0  0  0  0  0  0  0  0
   -3.0799    1.5136    0.7500 H   0  0  0  0  0  0  0  0  0  0  0  0
   -0.0605    0.3117   -2.0384 N   0  0  0  0  0  0  0  0  0  0  0  0
    1.0866   -0.3095   -2.7255 C   0  0  2  0  0  0  0  0  0  0  0  0
    2.1006   -0.9522   -1.7553 C   0  0  0  0  0  0  0  0  0  0  0  0
    2.6842   -1.9868   -2.0512 O   0  0  0  0  0  0  0  0  0  0  0  0
    1.7709    0.7542   -3.5870 C   0  0  0  0  0  0  0  0  0  0  0  0
   -0.3746    1.2218   -2.3628 H   0  0  0  0  0  0  0  0  0  0  0  0
    0.7171   -1.1076   -3.3794 H   0  0  0  0  0  0  0  0  0  0  0  0
    2.1505    1.5710   -2.9650 H   0  0  0  0  0  0  0  0  0  0  0  0
    2.6127    0.3133   -4.1310 H   0  0  0  0  0  0  0  0  0  0  0  0
    1.0666    1.1652   -4.3169 H   0  0  0  0  0  0  0  0  0  0  0  0
    2.4786   -0.2511   -0.6274 N   0  0  0  0  0  0  0  0  0  0  0  0
    3.1351   -0.8817    0.5205 C   0  0  2  0  0  0  0  0  0  0  0  0
    2.4386   -0.4667    1.8344 C   0  0  0  0  0  0  0  0  0  0  0  0
    1.6647    0.4874    1.8484 O   0  0  0  0  0  0  0  0  0  0  0  0
    4.6065   -0.4624    0.5211 C   0  0  0  0  0  0  0  0  0  0  0  0
    1.8595    0.5234   -0.3911 H   0  0  0  0  0  0  0  0  0  0  0  0
    3.0693   -1.9725    0.4433 H   0  0  0  0  0  0  0  0  0  0  0  0
    4.6948    0.6250    0.6096 H   0  0  0  0  0  0  0  0  0  0  0  0
    5.1376   -0.9257    1.3578 H   0  0  0  0  0  0  0  0  0  0  0  0
    5.0873   -0.7770   -0.4107 H   0  0  0  0  0  0  0  0  0  0  0  0
    2.6798   -1.1601    3.0059 N   0  0  0  0  0  0  0  0  0  0  0  0
    2.0385   -0.8357    4.2740 C   0  0  0  0  0  0  0  0  0  0  0  0
    3.2844   -1.9749    2.9531 H   0  0  0  0  0  0  0  0  0  0  0  0
    2.3024    0.1799    4.5877 H   0  0  0  0  0  0  0  0  0  0  0  0
    0.9496   -0.9046    4.1814 H   0  0  0  0  0  0  0  0  0  0  0  0
    2.3635   -1.5330    5.0520 H   0  0  0  0  0  0  0  0  0  0  0  0
  1  2  2  0  0  0  0
  1  3  1  0  0  0  0
  1  7  1  0  0  0  0
  3  4  1  0  0  0  0
  3  5  1  0  0  0  0
  3  6  1  0  0  0  0
  7  8  1  0  0  0  0
  7 12  1  0  0  0  0
  8  9  1  0  0  0  0
  8 11  1  0  0  0  0
  8 13  1  0  0  0  0
  9 10  2  0  0  0  0
  9 17  1  0  0  0  0
 11 14  1  0  0  0  0
 11 15  1  0  0  0  0
 11 16  1  0  0  0  0
 17 18  1  0  0  0  0
 17 22  1  0  0  0  0
 18 19  1  0  0  0  0
 18 21  1  0  0  0  0
 18 23  1  0  0  0  0
 19 20  2  0  0  0  0
 19 27  1  0  0  0  0
 21 24  1  0  0  0  0
 21 25  1  0  0  0  0
 21 26  1  0  0  0  0
 27 28  1  0  0  0  0
 27 32  1  0  0  0  0
 28 29  1  0  0  0  0
 28 31  1  0  0  0  0
 28 33  1  0  0  0  0
 29 30  2  0  0  0  0
 29 37  1  0  0  0  0
 31 34  1  0  0  0  0
 31 35  1  0  0  0  0
 31 36  1  0  0  0  0
 37 38  1  0  0  0  0
 37 39  1  0  0  0  0
 38 40  1  0  0  0  0
 38 41  1  0  0  0  0
 38 42  1  0  0  0  0
M  END
$$$$

  -OEChem-02062319043D

 42 41  0     1  0  0  0  0  0999 V2000
   -4.5840   -0.7632   -1.1563 C   0  0  0  0  0  0  0  0  0  0  0  0
   -4.9969    0.2519   -1.6950 O   0  0  0  0  0  0  0  0  0  0  0  0
   -5.4684   -1.9928   -1.0706 C   0  0  0  0  0  0  0  0  0  0  0  0
   -5.6127   -2.2763   -0.0252 H   0  0  0  0  0  0  0  0  0  0  0  0
   -6.4449   -1.7874   -1.5185 H   0  0  0  0  0  0  0  0  0  0  0  0
   -5.0032   -2.8244   -1.6056 H   0  0  0  0  0  0  0  0  0  0  0  0
   -3.3085   -0.8024   -0.6346 N   0  0  0  0  0  0  0  0  0  0  0  0
   -2.2963    0.2404   -0.8471 C   0  0  2  0  0  0  0  0  0  0  0  0
   -0.9289   -0.3648   -1.2264 C   0  0  0  0  0  0  0  0  0  0  0  0
   -0.7065   -1.5458   -0.9909 O   0  0  0  0  0  0  0  0  0  0  0  0
   -2.1786    1.0582    0.4408 C   0  0  0  0  0  0  0  0  0  0  0  0
   -2.9608   -1.7160   -0.3453 H   0  0  0  0  0  0  0  0  0  0  0  0
   -2.6008    0.9026   -1.6642 H   0  0  0  0  0  0  0  0  0  0  0  0
   -1.8618    0.4200    1.2723 H   0  0  0  0  0  0  0  0  0  0  0  0
   -1.4458    1.8619    0.3209 H   0  0  0  0  0  0  0  0  0  0  0  0
   -3.1450    1.5062    0.6933 H   0  0  0  0  0  0  0  0  0  0  0  0
   -0.0561    0.3505   -2.0302 N   0  0  0  0  0  0  0  0  0  0  0  0
    0.9098   -0.2876   -2.9444 C   0  0  2  0  0  0  0  0  0  0  0  0
    1.9307   -1.2094   -2.2433 C   0  0  0  0  0  0  0  0  0  0  0  0
    2.3184   -2.2358   -2.7872 O   0  0  0  0  0  0  0  0  0  0  0  0
    1.6426    0.8153   -3.7114 C   0  0  0  0  0  0  0  0  0  0  0  0
   -0.3678    1.2860   -2.2750 H   0  0  0  0  0  0  0  0  0  0  0  0
    0.3597   -0.9091   -3.6594 H   0  0  0  0  0  0  0  0  0  0  0  0
    2.1968    1.4617   -3.0232 H   0  0  0  0  0  0  0  0  0  0  0  0
    2.3519    0.3744   -4.4197 H   0  0  0  0  0  0  0  0  0  0  0  0
    0.9311    1.4275   -4.2735 H   0  0  0  0  0  0  0  0  0  0  0  0
    2.5430   -0.7745   -1.0851 N   0  0  0  0  0  0  0  0  0  0  0  0
    3.2775   -1.6678   -0.1859 C   0  0  2  0  0  0  0  0  0  0  0  0
    2.8864   -1.3991    1.2821 C   0  0  0  0  0  0  0  0  0  0  0  0
    2.3178   -0.3548    1.5890 O   0  0  0  0  0  0  0  0  0  0  0  0
    4.7761   -1.4482   -0.4042 C   0  0  0  0  0  0  0  0  0  0  0  0
    2.0734    0.0066   -0.6279 H   0  0  0  0  0  0  0  0  0  0  0  0
    3.0287   -2.7116   -0.4058 H   0  0  0  0  0  0  0  0  0  0  0  0
    5.0489   -0.4127   -0.1770 H   0  0  0  0  0  0  0  0  0  0  0  0
    5.3594   -2.1127    0.2399 H   0  0  0  0  0  0  0  0  0  0  0  0
    5.0393   -1.6578   -1.4458 H   0  0  0  0  0  0  0  0  0  0  0  0
    3.1728   -2.3287    2.2643 N   0  0  0  0  0  0  0  0  0  0  0  0
    2.7907   -2.1579    3.6604 C   0  0  0  0  0  0  0  0  0  0  0  0
    3.5946   -3.2053    1.9715 H   0  0  0  0  0  0  0  0  0  0  0  0
    3.2417   -1.2491    4.0729 H   0  0  0  0  0  0  0  0  0  0  0  0
    1.7019   -2.0840    3.7529 H   0  0  0  0  0  0  0  0  0  0  0  0
    3.1320   -3.0119    4.2534 H   0  0  0  0  0  0  0  0  0  0  0  0
  1  2  2  0  0  0  0
  1  3  1  0  0  0  0
  1  7  1  0  0  0  0
  3  4  1  0  0  0  0
  3  5  1  0  0  0  0
  3  6  1  0  0  0  0
  7  8  1  0  0  0  0
  7 12  1  0  0  0  0
  8  9  1  0  0  0  0
  8 11  1  0  0  0  0
  8 13  1  0  0  0  0
  9 10  2  0  0  0  0
  9 17  1  0  0  0  0
 11 14  1  0  0  0  0
 11 15  1  0  0  0  0
 11 16  1  0  0  0  0
 17 18  1  0  0  0  0
 17 22  1  0  0  0  0
 18 19  1  0  0  0  0
 18 21  1  0  0  0  0
 18 23  1  0  0  0  0
 19 20  2  0  0  0  0
 19 27  1  0  0  0  0
 21 24  1  0  0  0  0
 21 25  1  0  0  0  0
 21 26  1  0  0  0  0
 27 28  1  0  0  0  0
 27 32  1  0  0  0  0
 28 29  1  0  0  0  0
 28 31  1  0  0  0  0
 28 33  1  0  0  0  0
 29 30  2  0  0  0  0
 29 37  1  0  0  0  0
 31 34  1  0  0  0  0
 31 35  1  0  0  0  0
 31 36  1  0  0  0  0
 37 38  1  0  0  0  0
 37 39  1  0  0  0  0
 38 40  1  0  0  0  0
 38 41  1  0  0  0  0
 38 42  1  0  0  0  0
M  END
$$$$

  -OEChem-02062319043D

 42 41  0     1  0  0  0  0  0999 V2000
   -4.5788   -0.7523   -1.1321 C   0  0  0  0  0  0  0  0  0  0  0  0
   -5.0009    0.2934   -1.6005 O   0  0  0  0  0  0  0  0  0  0  0  0
   -5.4596   -1.9871   -1.1102 C   0  0  0  0  0  0  0  0  0  0  0  0
   -5.5884   -2.3355   -0.0827 H   0  0  0  0  0  0  0  0  0  0  0  0
   -6.4430   -1.7574   -1.5300 H   0  0  0  0  0  0  0  0  0  0  0  0
   -5.0010   -2.7827   -1.7028 H   0  0  0  0  0  0  0  0  0  0  0  0
   -3.2931   -0.8214   -0.6394 N   0  0  0  0  0  0  0  0  0  0  0  0
   -2.2852    0.2317   -0.8191 C   0  0  2  0  0  0  0  0  0  0  0  0
   -0.9067   -0.3539   -1.1917 C   0  0  0  0  0  0  0  0  0  0  0  0
   -0.7039   -1.5503   -1.0263 O   0  0  0  0  0  0  0  0  0  0  0  0
   -2.1905    1.0326    0.4811 C   0  0  0  0  0  0  0  0  0  0  0  0
   -2.9388   -1.7503   -0.4130 H   0  0  0  0  0  0  0  0  0  0  0  0
   -2.5855    0.9030   -1.6306 H   0  0  0  0  0  0  0  0  0  0  0  0
   -1.8797    0.3854    1.3078 H   0  0  0  0  0  0  0  0  0  0  0  0
   -1.4627    1.8436    0.3809 H   0  0  0  0  0  0  0  0  0  0  0  0
   -3.1637    1.4696    0.7270 H   0  0  0  0  0  0  0  0  0  0  0  0
   -0.0480    0.3819   -1.9927 N   0  0  0  0  0  0  0  0  0  0  0  0
    0.6914   -0.2165   -3.1211 C   0  0  2  0  0  0  0  0  0  0  0  0
    1.6488   -1.3647   -2.7323 C   0  0  0  0  0  0  0  0  0  0  0  0
    1.7974   -2.3245   -3.4783 O   0  0  0  0  0  0  0  0  0  0  0  0
    1.4712    0.8990   -3.8213 C   0  0  0  0  0  0  0  0  0  0  0  0
   -0.3335    1.3485   -2.1210 H   0  0  0  0  0  0  0  0  0  0  0  0
   -0.0313   -0.6366   -3.8293 H   0  0  0  0  0  0  0  0  0  0  0  0
    2.2033    1.3443   -3.1399 H   0  0  0  0  0  0  0  0  0  0  0  0
    2.0046    0.4980   -4.6896 H   0  0  0  0  0  0  0  0  0  0  0  0
    0.7910    1.6830   -4.1677 H   0  0  0  0  0  0  0  0  0  0  0  0
    2.4686   -1.2190   -1.6311 N   0  0  0  0  0  0  0  0  0  0  0  0
    3.2012   -2.3321   -1.0224 C   0  0  2  0  0  0  0  0  0  0  0  0
    3.1231   -2.2591    0.5170 C   0  0  0  0  0  0  0  0  0  0  0  0
    2.8532   -1.1981    1.0725 O   0  0  0  0  0  0  0  0  0  0  0  0
    4.6543   -2.2738   -1.4988 C   0  0  0  0  0  0  0  0  0  0  0  0
    2.1881   -0.4799   -0.9871 H   0  0  0  0  0  0  0  0  0  0  0  0
    2.7568   -3.2849   -1.3295 H   0  0  0  0  0  0  0  0  0  0  0  0
    5.1161   -1.3265   -1.2025 H   0  0  0  0  0  0  0  0  0  0  0  0
    5.2333   -3.0956   -1.0667 H   0  0  0  0  0  0  0  0  0  0  0  0
    4.6966   -2.3566   -2.5896 H   0  0  0  0  0  0  0  0  0  0  0  0
    3.3535   -3.3857    1.2849 N   0  0  0  0  0  0  0  0  0  0  0  0
    3.2200   -3.4007    2.7363 C   0  0  0  0  0  0  0  0  0  0  0  0
    3.5062   -4.2626    0.7954 H   0  0  0  0  0  0  0  0  0  0  0  0
    3.9069   -2.6796    3.1919 H   0  0  0  0  0  0  0  0  0  0  0  0
    2.1958   -3.1455    3.0286 H   0  0  0  0  0  0  0  0  0  0  0  0
    3.4542   -4.3952    3.1281 H   0  0  0  0  0  0  0  0  0  0  0  0
  1  2  2  0  0  0  0
  1  3  1  0  0  0  0
  1  7  1  0  0  0  0
  3  4  1  0  0  0  0
  3  5  1  0  0  0  0
  3  6  1  0  0  0  0
  7  8  1  0  0  0  0
  7 12  1  0  0  0  0
  8  9  1  0  0  0  0
  8 11  1  0  0  0  0
  8 13  1  0  0  0  0
  9 10  2  0  0  0  0
  9 17  1  0  0  0  0
 11 14  1  0  0  0  0
 11 15  1  0  0  0  0
 11 16  1  0  0  0  0
 17 18  1  0  0  0  0
 17 22  1  0  0  0  0
 18 19  1  0  0  0  0
 18 21  1  0  0  0  0
 18 23  1  0  0  0  0
 19 20  2  0  0  0  0
 19 27  1  0  0  0  0
 21 24  1  0  0  0  0
 21 25  1  0  0  0  0
 21 26  1  0  0  0  0
 27 28  1  0  0  0  0
 27 32  1  0  0  0  0
 28 29  1  0  0  0  0
 28 31  1  0  0  0  0
 28 33  1  0  0  0  0
 29 30  2  0  0  0  0
 29 37  1  0  0  0  0
 31 34  1  0  0  0  0
 31 35  1  0  0  0  0
 31 36  1  0  0  0  0
 37 38  1  0  0  0  0
 37 39  1  0  0  0  0
 38 40  1  0  0  0  0
 38 41  1  0  0  0  0
 38 42  1  0  0  0  0
M  END
$$$$

  -OEChem-02062319043D

 42 41  0     1  0  0  0  0  0999 V2000
   -4.5643   -0.7548   -1.1076 C   0  0  0  0  0  0  0  0  0  0  0  0
   -5.0008    0.3130   -1.5082 O   0  0  0  0  0  0  0  0  0  0  0  0
   -5.4434   -1.9910   -1.1215 C   0  0  0  0  0  0  0  0  0  0  0  0
   -5.5547   -2.3818   -0.1072 H   0  0  0  0  0  0  0  0  0  0  0  0
   -6.4334   -1.7448   -1.5154 H   0  0  0  0  0  0  0  0  0  0  0  0
   -4.9942   -2.7610   -1.7535 H   0  0  0  0  0  0  0  0  0  0  0  0
   -3.2645   -0.8435   -0.6568 N   0  0  0  0  0  0  0  0  0  0  0  0
   -2.2684    0.2247   -0.8084 C   0  0  2  0  0  0  0  0  0  0  0  0
   -0.8771   -0.3382   -1.1689 C   0  0  0  0  0  0  0  0  0  0  0  0
   -0.6821   -1.5424   -1.0628 O   0  0  0  0  0  0  0  0  0  0  0  0
   -2.2033    1.0130    0.5019 C   0  0  0  0  0  0  0  0  0  0  0  0
   -2.8984   -1.7806   -0.4894 H   0  0  0  0  0  0  0  0  0  0  0  0
   -2.5677    0.8997   -1.6175 H   0  0  0  0  0  0  0  0  0  0  0  0
   -1.8992    0.3601    1.3268 H   0  0  0  0  0  0  0  0  0  0  0  0
   -1.4836    1.8334    0.4232 H   0  0  0  0  0  0  0  0  0  0  0  0
   -3.1852    1.4366    0.7366 H   0  0  0  0  0  0  0  0  0  0  0  0
   -0.0239    0.4195   -1.9547 N   0  0  0  0  0  0  0  0  0  0  0  0
    0.4704   -0.0784   -3.2537 C   0  0  2  0  0  0  0  0  0  0  0  0
    1.2859   -1.3894   -3.1922 C   0  0  0  0  0  0  0  0  0  0  0  0
    1.1762   -2.2215   -4.0842 O   0  0  0  0  0  0  0  0  0  0  0  0
    1.3181    1.0268   -3.8879 C   0  0  0  0  0  0  0  0  0  0  0  0
   -0.2619    1.4073   -1.9519 H   0  0  0  0  0  0  0  0  0  0  0  0
   -0.3903   -0.2757   -3.9024 H   0  0  0  0  0  0  0  0  0  0  0  0
    2.1857    1.2552   -3.2605 H   0  0  0  0  0  0  0  0  0  0  0  0
    1.6763    0.7088   -4.8725 H   0  0  0  0  0  0  0  0  0  0  0  0
    0.7275    1.9388   -4.0158 H   0  0  0  0  0  0  0  0  0  0  0  0
    2.2557   -1.5455   -2.2221 N   0  0  0  0  0  0  0  0  0  0  0  0
    2.8955   -2.8299   -1.9250 C   0  0  2  0  0  0  0  0  0  0  0  0
    3.0874   -3.0105   -0.4048 C   0  0  0  0  0  0  0  0  0  0  0  0
    3.1267   -2.0325    0.3356 O   0  0  0  0  0  0  0  0  0  0  0  0
    4.2406   -2.8847   -2.6525 C   0  0  0  0  0  0  0  0  0  0  0  0
    2.1771   -0.9034   -1.4334 H   0  0  0  0  0  0  0  0  0  0  0  0
    2.2609   -3.6508   -2.2757 H   0  0  0  0  0  0  0  0  0  0  0  0
    4.8928   -2.0733   -2.3137 H   0  0  0  0  0  0  0  0  0  0  0  0
    4.7408   -3.8386   -2.4613 H   0  0  0  0  0  0  0  0  0  0  0  0
    4.0893   -2.7837   -3.7318 H   0  0  0  0  0  0  0  0  0  0  0  0
    3.2179   -4.2761    0.1368 N   0  0  0  0  0  0  0  0  0  0  0  0
    3.3194   -4.5234    1.5697 C   0  0  0  0  0  0  0  0  0  0  0  0
    3.1090   -5.0658   -0.4926 H   0  0  0  0  0  0  0  0  0  0  0  0
    4.1928   -4.0111    1.9868 H   0  0  0  0  0  0  0  0  0  0  0  0
    2.4214   -4.1653    2.0842 H   0  0  0  0  0  0  0  0  0  0  0  0
    3.4249   -5.5953    1.7614 H   0  0  0  0  0  0  0  0  0  0  0  0
  1  2  2  0  0  0  0
  1  3  1  0  0  0  0
  1  7  1  0  0  0  0
  3  4  1  0  0  0  0
  3  5  1  0  0  0  0
  3  6  1  0  0  0  0
  7  8  1  0  0  0  0
  7 12  1  0  0  0  0
  8  9  1  0  0  0  0
  8 11  1  0  0  0  0
  8 13  1  0  0  0  0
  9 10  2  0  0  0  0
  9 17  1  0  0  0  0
 11 14  1  0  0  0  0
 11 15  1  0  0  0  0
 11 16  1  0  0  0  0
 17 18  1  0  0  0  0
 17 22  1  0  0  0  0
 18 19  1  0  0  0  0
 18 21  1  0  0  0  0
 18 23  1  0  0  0  0
 19 20  2  0  0  0  0
 19 27  1  0  0  0  0
 21 24  1  0  0  0  0
 21 25  1  0  0  0  0
 21 26  1  0  0  0  0
 27 28  1  0  0  0  0
 27 32  1  0  0  0  0
 28 29  1  0  0  0  0
 28 31  1  0  0  0  0
 28 33  1  0  0  0  0
 29 30  2  0  0  0  0
 29 37  1  0  0  0  0
 31 34  1  0  0  0  0
 31 35  1  0  0  0  0
 31 36  1  0  0  0  0
 37 38  1  0  0  0  0
 37 39  1  0  0  0  0
 38 40  1  0  0  0  0
 38 41  1  0  0  0  0
 38 42  1  0  0  0  0
M  END
$$$$

  -OEChem-02062319043D

 42 41  0     1  0  0  0  0  0999 V2000
   -4.5378   -0.7602   -1.1066 C   0  0  0  0  0  0  0  0  0  0  0  0
   -4.9855    0.3199   -1.4589 O   0  0  0  0  0  0  0  0  0  0  0  0
   -5.4070   -2.0020   -1.1631 C   0  0  0  0  0  0  0  0  0  0  0  0
   -5.5045   -2.4337   -0.1642 H   0  0  0  0  0  0  0  0  0  0  0  0
   -6.4030   -1.7495   -1.5375 H   0  0  0  0  0  0  0  0  0  0  0  0
   -4.9574   -2.7420   -1.8299 H   0  0  0  0  0  0  0  0  0  0  0  0
   -3.2333   -0.8583   -0.6714 N   0  0  0  0  0  0  0  0  0  0  0  0
   -2.2434    0.2198   -0.7928 C   0  0  2  0  0  0  0  0  0  0  0  0
   -0.8426   -0.3277   -1.1415 C   0  0  0  0  0  0  0  0  0  0  0  0
   -0.6486   -1.5351   -1.0808 O   0  0  0  0  0  0  0  0  0  0  0  0
   -2.2025    0.9937    0.5269 C   0  0  0  0  0  0  0  0  0  0  0  0
   -2.8608   -1.7991   -0.5432 H   0  0  0  0  0  0  0  0  0  0  0  0
   -2.5369    0.9020   -1.5980 H   0  0  0  0  0  0  0  0  0  0  0  0
   -1.9024    0.3346    1.3482 H   0  0  0  0  0  0  0  0  0  0  0  0
   -1.4905    1.8224    0.4660 H   0  0  0  0  0  0  0  0  0  0  0  0
   -3.1915    1.4050    0.7537 H   0  0  0  0  0  0  0  0  0  0  0  0
    0.0154    0.4461   -1.9043 N   0  0  0  0  0  0  0  0  0  0  0  0
    0.2512    0.1066   -3.3209 C   0  0  2  0  0  0  0  0  0  0  0  0
    0.8504   -1.2941   -3.5799 C   0  0  0  0  0  0  0  0  0  0  0  0
    0.4741   -1.9475   -4.5450 O   0  0  0  0  0  0  0  0  0  0  0  0
    1.1732    1.1779   -3.9086 C   0  0  0  0  0  0  0  0  0  0  0  0
   -0.1340    1.4398   -1.7549 H   0  0  0  0  0  0  0  0  0  0  0  0
   -0.7059    0.1392   -3.8534 H   0  0  0  0  0  0  0  0  0  0  0  0
    2.1409    1.1776   -3.3962 H   0  0  0  0  0  0  0  0  0  0  0  0
    1.3444    0.9852   -4.9729 H   0  0  0  0  0  0  0  0  0  0  0  0
    0.7232    2.1701   -3.8070 H   0  0  0  0  0  0  0  0  0  0  0  0
    1.9031   -1.7464   -2.8095 N   0  0  0  0  0  0  0  0  0  0  0  0
    2.3831   -3.1312   -2.8314 C   0  0  2  0  0  0  0  0  0  0  0  0
    2.8003   -3.5953   -1.4203 C   0  0  0  0  0  0  0  0  0  0  0  0
    3.1618   -2.7763   -0.5813 O   0  0  0  0  0  0  0  0  0  0  0  0
    3.5636   -3.2213   -3.8015 C   0  0  0  0  0  0  0  0  0  0  0  0
    2.0343   -1.2479   -1.9287 H   0  0  0  0  0  0  0  0  0  0  0  0
    1.5818   -3.7952   -3.1726 H   0  0  0  0  0  0  0  0  0  0  0  0
    4.3752   -2.5620   -3.4774 H   0  0  0  0  0  0  0  0  0  0  0  0
    3.9438   -4.2460   -3.8496 H   0  0  0  0  0  0  0  0  0  0  0  0
    3.2501   -2.9213   -4.8065 H   0  0  0  0  0  0  0  0  0  0  0  0
    2.7781   -4.9381   -1.0897 N   0  0  0  0  0  0  0  0  0  0  0  0
    3.0798   -5.4329    0.2480 C   0  0  0  0  0  0  0  0  0  0  0  0
    2.4031   -5.5824   -1.7796 H   0  0  0  0  0  0  0  0  0  0  0  0
    4.0867   -5.1278    0.5524 H   0  0  0  0  0  0  0  0  0  0  0  0
    2.3586   -5.0401    0.9727 H   0  0  0  0  0  0  0  0  0  0  0  0
    3.0312   -6.5259    0.2681 H   0  0  0  0  0  0  0  0  0  0  0  0
  1  2  2  0  0  0  0
  1  3  1  0  0  0  0
  1  7  1  0  0  0  0
  3  4  1  0  0  0  0
  3  5  1  0  0  0  0
  3  6  1  0  0  0  0
  7  8  1  0  0  0  0
  7 12  1  0  0  0  0
  8  9  1  0  0  0  0
  8 11  1  0  0  0  0
  8 13  1  0  0  0  0
  9 10  2  0  0  0  0
  9 17  1  0  0  0  0
 11 14  1  0  0  0  0
 11 15  1  0  0  0  0
 11 16  1  0  0  0  0
 17 18  1  0  0  0  0
 17 22  1  0  0  0  0
 18 19  1  0  0  0  0
 18 21  1  0  0  0  0
 18 23  1  0  0  0  0
 19 20  2  0  0  0  0
 19 27  1  0  0  0  0
 21 24  1  0  0  0  0
 21 25  1  0  0  0  0
 21 26  1  0  0  0  0
 27 28  1  0  0  0  0
 27 32  1  0  0  0  0
 28 29  1  0  0  0  0
 28 31  1  0  0  0  0
 28 33  1  0  0  0  0
 29 30  2  0  0  0  0
 29 37  1  0  0  0  0
 31 34  1  0  0  0  0
 31 35  1  0  0  0  0
 31 36  1  0  0  0  0
 37 38  1  0  0  0  0
 37 39  1  0  0  0  0
 38 40  1  0  0  0  0
 38 41  1  0  0  0  0
 38 42  1  0  0  0  0
M  END
$$$$

  -OEChem-02062319043D

 42 41  0     1  0  0  0  0  0999 V2000
   -4.5670   -0.9711   -1.2457 C   0  0  0  0  0  0  0  0  0  0  0  0
   -4.9924   -0.1753   -2.0674 O   0  0  0  0  0  0  0  0  0  0  0  0
   -5.3717   -2.2118   -0.9046 C   0  0  0  0  0  0  0  0  0  0  0  0
   -5.6408   -2.2031    0.1543 H   0  0  0  0  0  0  0  0  0  0  0  0
   -6.2883   -2.2419   -1.5004 H   0  0  0  0  0  0  0  0  0  0  0  0
   -4.7849   -3.1086   -1.1171 H   0  0  0  0  0  0  0  0  0  0  0  0
   -3.3559   -0.7493   -0.6239 N   0  0  0  0  0  0  0  0  0  0  0  0
   -2.4100    0.3101   -1.0013 C   0  0  2  0  0  0  0  0  0  0  0  0
   -0.9953   -0.2624   -1.2205 C   0  0  0  0  0  0  0  0  0  0  0  0
   -0.5948   -1.2031   -0.5517 O   0  0  0  0  0  0  0  0  0  0  0  0
   -2.4109    1.3598    0.1130 C   0  0  0  0  0  0  0  0  0  0  0  0
   -2.9903   -1.5046   -0.0466 H   0  0  0  0  0  0  0  0  0  0  0  0
   -2.7162    0.7877   -1.9382 H   0  0  0  0  0  0  0  0  0  0  0  0
   -2.0885    0.9160    1.0603 H   0  0  0  0  0  0  0  0  0  0  0  0
   -1.7328    2.1820   -0.1357 H   0  0  0  0  0  0  0  0  0  0  0  0
   -3.4172    1.7701    0.2433 H   0  0  0  0  0  0  0  0  0  0  0  0
    0.0190    0.4856   -1.7655 N   0  0  0  0  0  0  0  0  0  0  0  0
    0.1509    0.4451   -3.2286 C   0  0  2  0  0  0  0  0  0  0  0  0
    0.4126   -0.9662   -3.8020 C   0  0  0  0  0  0  0  0  0  0  0  0
   -0.1888   -1.3320   -4.8013 O   0  0  0  0  0  0  0  0  0  0  0  0
    1.2901    1.3888   -3.6206 C   0  0  0  0  0  0  0  0  0  0  0  0
    0.8845    0.2631   -1.2796 H   0  0  0  0  0  0  0  0  0  0  0  0
   -0.7750    0.8159   -3.6833 H   0  0  0  0  0  0  0  0  0  0  0  0
    2.2398    1.0501   -3.1943 H   0  0  0  0  0  0  0  0  0  0  0  0
    1.3922    1.4255   -4.7101 H   0  0  0  0  0  0  0  0  0  0  0  0
    1.0870    2.4016   -3.2591 H   0  0  0  0  0  0  0  0  0  0  0  0
    1.3394   -1.8093   -3.2192 N   0  0  0  0  0  0  0  0  0  0  0  0
    1.5704   -3.2001   -3.6240 C   0  0  2  0  0  0  0  0  0  0  0  0
    2.1969   -4.0128   -2.4716 C   0  0  0  0  0  0  0  0  0  0  0  0
    2.7470   -3.4348   -1.5402 O   0  0  0  0  0  0  0  0  0  0  0  0
    2.4952   -3.2195   -4.8460 C   0  0  0  0  0  0  0  0  0  0  0  0
    1.6960   -1.5484   -2.3000 H   0  0  0  0  0  0  0  0  0  0  0  0
    0.6145   -3.6679   -3.8820 H   0  0  0  0  0  0  0  0  0  0  0  0
    3.4549   -2.7512   -4.6057 H   0  0  0  0  0  0  0  0  0  0  0  0
    2.6800   -4.2475   -5.1711 H   0  0  0  0  0  0  0  0  0  0  0  0
    2.0406   -2.6739   -5.6784 H   0  0  0  0  0  0  0  0  0  0  0  0
    2.1527   -5.3946   -2.4802 N   0  0  0  0  0  0  0  0  0  0  0  0
    2.7086   -6.2166   -1.4121 C   0  0  0  0  0  0  0  0  0  0  0  0
    1.6707   -5.8464   -3.2517 H   0  0  0  0  0  0  0  0  0  0  0  0
    3.7864   -6.0462   -1.3188 H   0  0  0  0  0  0  0  0  0  0  0  0
    2.2296   -5.9772   -0.4566 H   0  0  0  0  0  0  0  0  0  0  0  0
    2.5443   -7.2770   -1.6253 H   0  0  0  0  0  0  0  0  0  0  0  0
  1  2  2  0  0  0  0
  1  3  1  0  0  0  0
  1  7  1  0  0  0  0
  3  4  1  0  0  0  0
  3  5  1  0  0  0  0
  3  6  1  0  0  0  0
  7  8  1  0  0  0  0
  7 12  1  0  0  0  0
  8  9  1  0  0  0  0
  8 11  1  0  0  0  0
  8 13  1  0  0  0  0
  9 10  2  0  0  0  0
  9 17  1  0  0  0  0
 11 14  1  0  0  0  0
 11 15  1  0  0  0  0
 11 16  1  0  0  0  0
 17 18  1  0  0  0  0
 17 22  1  0  0  0  0
 18 19  1  0  0  0  0
 18 21  1  0  0  0  0
 18 23  1  0  0  0  0
 19 20  2  0  0  0  0
 19 27  1  0  0  0  0
 21 24  1  0  0  0  0
 21 25  1  0  0  0  0
 21 26  1  0  0  0  0
 27 28  1  0  0  0  0
 27 32  1  0  0  0  0
 28 29  1  0  0  0  0
 28 31  1  0  0  0  0
 28 33  1  0  0  0  0
 29 30  2  0  0  0  0
 29 37  1  0  0  0  0
 31 34  1  0  0  0  0
 31 35  1  0  0  0  0
 31 36  1  0  0  0  0
 37 38  1  0  0  0  0
 37 39  1  0  0  0  0
 38 40  1  0  0  0  0
 38 41  1  0  0  0  0
 38 42  1  0  0  0  0
M  END
$$$$

  -OEChem-02062319043D

 42 41  0     1  0  0  0  0  0999 V2000
   -4.8036   -0.8775   -0.8748 C   0  0  0  0  0  0  0  0  0  0  0  0
   -5.3146   -0.0381   -1.5987 O   0  0  0  0  0  0  0  0  0  0  0  0
   -5.6453   -2.0038   -0.3049 C   0  0  0  0  0  0  0  0  0  0  0  0
   -5.6919   -1.9193    0.7836 H   0  0  0  0  0  0  0  0  0  0  0  0
   -6.6614   -1.9555   -0.7072 H   0  0  0  0  0  0  0  0  0  0  0  0
   -5.2073   -2.9692   -0.5701 H   0  0  0  0  0  0  0  0  0  0  0  0
   -3.4606   -0.8038   -0.5711 N   0  0  0  0  0  0  0  0  0  0  0  0
   -2.5275    0.1717   -1.1499 C   0  0  2  0  0  0  0  0  0  0  0  0
   -1.1052   -0.4183   -1.2735 C   0  0  0  0  0  0  0  0  0  0  0  0
   -0.7718   -1.3909   -0.6132 O   0  0  0  0  0  0  0  0  0  0  0  0
   -2.5314    1.4234   -0.2659 C   0  0  0  0  0  0  0  0  0  0  0  0
   -3.0544   -1.5713   -0.0373 H   0  0  0  0  0  0  0  0  0  0  0  0
   -2.8559    0.4436   -2.1589 H   0  0  0  0  0  0  0  0  0  0  0  0
   -2.1880    1.1802    0.7448 H   0  0  0  0  0  0  0  0  0  0  0  0
   -1.8727    2.1903   -0.6844 H   0  0  0  0  0  0  0  0  0  0  0  0
   -3.5424    1.8382   -0.2010 H   0  0  0  0  0  0  0  0  0  0  0  0
   -0.0358    0.3103   -1.7356 N   0  0  0  0  0  0  0  0  0  0  0  0
    0.0417    0.5786   -3.1780 C   0  0  2  0  0  0  0  0  0  0  0  0
    0.1086   -0.6935   -4.0517 C   0  0  0  0  0  0  0  0  0  0  0  0
   -0.5822   -0.7695   -5.0568 O   0  0  0  0  0  0  0  0  0  0  0  0
    1.2756    1.4499   -3.4241 C   0  0  0  0  0  0  0  0  0  0  0  0
    0.8210   -0.0559   -1.3269 H   0  0  0  0  0  0  0  0  0  0  0  0
   -0.8443    1.1438   -3.4893 H   0  0  0  0  0  0  0  0  0  0  0  0
    2.1885    0.9245   -3.1260 H   0  0  0  0  0  0  0  0  0  0  0  0
    1.3531    1.7047   -4.4861 H   0  0  0  0  0  0  0  0  0  0  0  0
    1.2048    2.3797   -2.8508 H   0  0  0  0  0  0  0  0  0  0  0  0
    0.9425   -1.7435   -3.7187 N   0  0  0  0  0  0  0  0  0  0  0  0
    1.0004   -3.0240   -4.4328 C   0  0  2  0  0  0  0  0  0  0  0  0
    1.5686   -4.1363   -3.5271 C   0  0  0  0  0  0  0  0  0  0  0  0
    2.2000   -3.8427   -2.5175 O   0  0  0  0  0  0  0  0  0  0  0  0
    1.8753   -2.8614   -5.6811 C   0  0  0  0  0  0  0  0  0  0  0  0
    1.3901   -1.7189   -2.8026 H   0  0  0  0  0  0  0  0  0  0  0  0
   -0.0105   -3.3207   -4.7324 H   0  0  0  0  0  0  0  0  0  0  0  0
    2.8887   -2.5577   -5.3998 H   0  0  0  0  0  0  0  0  0  0  0  0
    1.9344   -3.8038   -6.2339 H   0  0  0  0  0  0  0  0  0  0  0  0
    1.4555   -2.1000   -6.3460 H   0  0  0  0  0  0  0  0  0  0  0  0
    1.3764   -5.4679   -3.8453 N   0  0  0  0  0  0  0  0  0  0  0  0
    1.8658   -6.5649   -3.0192 C   0  0  0  0  0  0  0  0  0  0  0  0
    0.8271   -5.6806   -4.6729 H   0  0  0  0  0  0  0  0  0  0  0  0
    2.9544   -6.5092   -2.9138 H   0  0  0  0  0  0  0  0  0  0  0  0
    1.4130   -6.5259   -2.0227 H   0  0  0  0  0  0  0  0  0  0  0  0
    1.6127   -7.5257   -3.4774 H   0  0  0  0  0  0  0  0  0  0  0  0
  1  2  2  0  0  0  0
  1  3  1  0  0  0  0
  1  7  1  0  0  0  0
  3  4  1  0  0  0  0
  3  5  1  0  0  0  0
  3  6  1  0  0  0  0
  7  8  1  0  0  0  0
  7 12  1  0  0  0  0
  8  9  1  0  0  0  0
  8 11  1  0  0  0  0
  8 13  1  0  0  0  0
  9 10  2  0  0  0  0
  9 17  1  0  0  0  0
 11 14  1  0  0  0  0
 11 15  1  0  0  0  0
 11 16  1  0  0  0  0
 17 18  1  0  0  0  0
 17 22  1  0  0  0  0
 18 19  1  0  0  0  0
 18 21  1  0  0  0  0
 18 23  1  0  0  0  0
 19 20  2  0  0  0  0
 19 27  1  0  0  0  0
 21 24  1  0  0  0  0
 21 25  1  0  0  0  0
 21 26  1  0  0  0  0
 27 28  1  0  0  0  0
 27 32  1  0  0  0  0
 28 29  1  0  0  0  0
 28 31  1  0  0  0  0
 28 33  1  0  0  0  0
 29 30  2  0  0  0  0
 29 37  1  0  0  0  0
 31 34  1  0  0  0  0
 31 35  1  0  0  0  0
 31 36  1  0  0  0  0
 37 38  1  0  0  0  0
 37 39  1  0  0  0  0
 38 40  1  0  0  0  0
 38 41  1  0  0  0  0
 38 42  1  0  0  0  0
M  END
$$$$

  -OEChem-02062319043D

 42 41  0     1  0  0  0  0  0999 V2000
   -4.7728   -0.9355   -0.7803 C   0  0  0  0  0  0  0  0  0  0  0  0
   -5.3054   -0.0968   -1.4892 O   0  0  0  0  0  0  0  0  0  0  0  0
   -5.5882   -2.0878   -0.2234 C   0  0  0  0  0  0  0  0  0  0  0  0
   -5.6253   -2.0258    0.8669 H   0  0  0  0  0  0  0  0  0  0  0  0
   -6.6092   -2.0499   -0.6137 H   0  0  0  0  0  0  0  0  0  0  0  0
   -5.1370   -3.0402   -0.5125 H   0  0  0  0  0  0  0  0  0  0  0  0
   -3.4279   -0.8447   -0.4910 N   0  0  0  0  0  0  0  0  0  0  0  0
   -2.5105    0.1290   -1.0971 C   0  0  2  0  0  0  0  0  0  0  0  0
   -1.0898   -0.4614   -1.2425 C   0  0  0  0  0  0  0  0  0  0  0  0
   -0.7579   -1.4590   -0.6198 O   0  0  0  0  0  0  0  0  0  0  0  0
   -2.4997    1.3908   -0.2283 C   0  0  0  0  0  0  0  0  0  0  0  0
   -3.0041   -1.6195    0.0180 H   0  0  0  0  0  0  0  0  0  0  0  0
   -2.8600    0.3879   -2.1024 H   0  0  0  0  0  0  0  0  0  0  0  0
   -2.1400    1.1593    0.7792 H   0  0  0  0  0  0  0  0  0  0  0  0
   -1.8480    2.1531   -0.6659 H   0  0  0  0  0  0  0  0  0  0  0  0
   -3.5095    1.8061   -0.1517 H   0  0  0  0  0  0  0  0  0  0  0  0
   -0.0230    0.2486   -1.7408 N   0  0  0  0  0  0  0  0  0  0  0  0
   -0.0936    0.7903   -3.1043 C   0  0  2  0  0  0  0  0  0  0  0  0
   -0.2867   -0.2877   -4.1925 C   0  0  0  0  0  0  0  0  0  0  0  0
   -1.1303   -0.1210   -5.0603 O   0  0  0  0  0  0  0  0  0  0  0  0
    1.1971    1.5707   -3.3611 C   0  0  0  0  0  0  0  0  0  0  0  0
    0.8521   -0.2022   -1.4839 H   0  0  0  0  0  0  0  0  0  0  0  0
   -0.9352    1.4884   -3.1768 H   0  0  0  0  0  0  0  0  0  0  0  0
    2.0691    0.9124   -3.2953 H   0  0  0  0  0  0  0  0  0  0  0  0
    1.1756    2.0194   -4.3597 H   0  0  0  0  0  0  0  0  0  0  0  0
    1.3083    2.3729   -2.6248 H   0  0  0  0  0  0  0  0  0  0  0  0
    0.4519   -1.4546   -4.1784 N   0  0  0  0  0  0  0  0  0  0  0  0
    0.2051   -2.6057   -5.0544 C   0  0  2  0  0  0  0  0  0  0  0  0
    0.7066   -3.9096   -4.4004 C   0  0  0  0  0  0  0  0  0  0  0  0
    1.5206   -3.8602   -3.4844 O   0  0  0  0  0  0  0  0  0  0  0  0
    0.9135   -2.3746   -6.3931 C   0  0  0  0  0  0  0  0  0  0  0  0
    1.0442   -1.6274   -3.3661 H   0  0  0  0  0  0  0  0  0  0  0  0
   -0.8712   -2.7126   -5.2266 H   0  0  0  0  0  0  0  0  0  0  0  0
    1.9910   -2.2562   -6.2400 H   0  0  0  0  0  0  0  0  0  0  0  0
    0.7477   -3.2213   -7.0659 H   0  0  0  0  0  0  0  0  0  0  0  0
    0.5291   -1.4712   -6.8769 H   0  0  0  0  0  0  0  0  0  0  0  0
    0.2417   -5.1385   -4.8305 N   0  0  0  0  0  0  0  0  0  0  0  0
    0.6575   -6.4013   -4.2322 C   0  0  0  0  0  0  0  0  0  0  0  0
   -0.4474   -5.1485   -5.5769 H   0  0  0  0  0  0  0  0  0  0  0  0
    1.7325   -6.5560   -4.3729 H   0  0  0  0  0  0  0  0  0  0  0  0
    0.4387   -6.4073   -3.1589 H   0  0  0  0  0  0  0  0  0  0  0  0
    0.1240   -7.2356   -4.6977 H   0  0  0  0  0  0  0  0  0  0  0  0
  1  2  2  0  0  0  0
  1  3  1  0  0  0  0
  1  7  1  0  0  0  0
  3  4  1  0  0  0  0
  3  5  1  0  0  0  0
  3  6  1  0  0  0  0
  7  8  1  0  0  0  0
  7 12  1  0  0  0  0
  8  9  1  0  0  0  0
  8 11  1  0  0  0  0
  8 13  1  0  0  0  0
  9 10  2  0  0  0  0
  9 17  1  0  0  0  0
 11 14  1  0  0  0  0
 11 15  1  0  0  0  0
 11 16  1  0  0  0  0
 17 18  1  0  0  0  0
 17 22  1  0  0  0  0
 18 19  1  0  0  0  0
 18 21  1  0  0  0  0
 18 23  1  0  0  0  0
 19 20  2  0  0  0  0
 19 27  1  0  0  0  0
 21 24  1  0  0  0  0
 21 25  1  0  0  0  0
 21 26  1  0  0  0  0
 27 28  1  0  0  0  0
 27 32  1  0  0  0  0
 28 29  1  0  0  0  0
 28 31  1  0  0  0  0
 28 33  1  0  0  0  0
 29 30  2  0  0  0  0
 29 37  1  0  0  0  0
 31 34  1  0  0  0  0
 31 35  1  0  0  0  0
 31 36  1  0  0  0  0
 37 38  1  0  0  0  0
 37 39  1  0  0  0  0
 38 40  1  0  0  0  0
 38 41  1  0  0  0  0
 38 42  1  0  0  0  0
M  END
$$$$

  -OEChem-02062319043D

 42 41  0     1  0  0  0  0  0999 V2000
   -4.7219   -1.0163   -0.6923 C   0  0  0  0  0  0  0  0  0  0  0  0
   -5.2891   -0.1683   -1.3618 O   0  0  0  0  0  0  0  0  0  0  0  0
   -5.4950   -2.2099   -0.1632 C   0  0  0  0  0  0  0  0  0  0  0  0
   -5.5041   -2.1943    0.9293 H   0  0  0  0  0  0  0  0  0  0  0  0
   -6.5264   -2.1814   -0.5258 H   0  0  0  0  0  0  0  0  0  0  0  0
   -5.0282   -3.1373   -0.5036 H   0  0  0  0  0  0  0  0  0  0  0  0
   -3.3747   -0.9010   -0.4239 N   0  0  0  0  0  0  0  0  0  0  0  0
   -2.4908    0.1158   -1.0092 C   0  0  2  0  0  0  0  0  0  0  0  0
   -1.0620   -0.4429   -1.1980 C   0  0  0  0  0  0  0  0  0  0  0  0
   -0.6989   -1.4518   -0.6121 O   0  0  0  0  0  0  0  0  0  0  0  0
   -2.4857    1.3388   -0.0864 C   0  0  0  0  0  0  0  0  0  0  0  0
   -2.9223   -1.6854    0.0445 H   0  0  0  0  0  0  0  0  0  0  0  0
   -2.8658    0.4081   -1.9964 H   0  0  0  0  0  0  0  0  0  0  0  0
   -2.1077    1.0690    0.9047 H   0  0  0  0  0  0  0  0  0  0  0  0
   -1.8520    2.1301   -0.4976 H   0  0  0  0  0  0  0  0  0  0  0  0
   -3.5006    1.7343    0.0229 H   0  0  0  0  0  0  0  0  0  0  0  0
   -0.0277    0.2547   -1.7777 N   0  0  0  0  0  0  0  0  0  0  0  0
   -0.2184    1.0224   -3.0155 C   0  0  2  0  0  0  0  0  0  0  0  0
   -0.6815    0.1621   -4.2092 C   0  0  0  0  0  0  0  0  0  0  0  0
   -1.5956    0.5583   -4.9161 O   0  0  0  0  0  0  0  0  0  0  0  0
    1.1086    1.7091   -3.3461 C   0  0  0  0  0  0  0  0  0  0  0  0
    0.8585   -0.2315   -1.6626 H   0  0  0  0  0  0  0  0  0  0  0  0
   -0.9744    1.7984   -2.8528 H   0  0  0  0  0  0  0  0  0  0  0  0
    1.8953    0.9688   -3.5249 H   0  0  0  0  0  0  0  0  0  0  0  0
    1.0021    2.3262   -4.2444 H   0  0  0  0  0  0  0  0  0  0  0  0
    1.4183    2.3552   -2.5186 H   0  0  0  0  0  0  0  0  0  0  0  0
   -0.0882   -1.0550   -4.4812 N   0  0  0  0  0  0  0  0  0  0  0  0
   -0.5872   -2.0106   -5.4768 C   0  0  2  0  0  0  0  0  0  0  0  0
   -0.2644   -3.4615   -5.0662 C   0  0  0  0  0  0  0  0  0  0  0  0
    0.5959   -3.6812   -4.2207 O   0  0  0  0  0  0  0  0  0  0  0  0
    0.0479   -1.6834   -6.8314 C   0  0  0  0  0  0  0  0  0  0  0  0
    0.5621   -1.4250   -3.7876 H   0  0  0  0  0  0  0  0  0  0  0  0
   -1.6764   -1.9257   -5.5565 H   0  0  0  0  0  0  0  0  0  0  0  0
    1.1379   -1.7678   -6.7728 H   0  0  0  0  0  0  0  0  0  0  0  0
   -0.3141   -2.3707   -7.6020 H   0  0  0  0  0  0  0  0  0  0  0  0
   -0.2076   -0.6628   -7.1333 H   0  0  0  0  0  0  0  0  0  0  0  0
   -0.9485   -4.5205   -5.6330 N   0  0  0  0  0  0  0  0  0  0  0  0
   -0.7248   -5.9101   -5.2535 C   0  0  0  0  0  0  0  0  0  0  0  0
   -1.6774   -4.3044   -6.3071 H   0  0  0  0  0  0  0  0  0  0  0  0
    0.3099   -6.2026   -5.4607 H   0  0  0  0  0  0  0  0  0  0  0  0
   -0.9236   -6.0531   -4.1861 H   0  0  0  0  0  0  0  0  0  0  0  0
   -1.3902   -6.5683   -5.8201 H   0  0  0  0  0  0  0  0  0  0  0  0
  1  2  2  0  0  0  0
  1  3  1  0  0  0  0
  1  7  1  0  0  0  0
  3  4  1  0  0  0  0
  3  5  1  0  0  0  0
  3  6  1  0  0  0  0
  7  8  1  0  0  0  0
  7 12  1  0  0  0  0
  8  9  1  0  0  0  0
  8 11  1  0  0  0  0
  8 13  1  0  0  0  0
  9 10  2  0  0  0  0
  9 17  1  0  0  0  0
 11 14  1  0  0  0  0
 11 15  1  0  0  0  0
 11 16  1  0  0  0  0
 17 18  1  0  0  0  0
 17 22  1  0  0  0  0
 18 19  1  0  0  0  0
 18 21  1  0  0  0  0
 18 23  1  0  0  0  0
 19 20  2  0  0  0  0
 19 27  1  0  0  0  0
 21 24  1  0  0  0  0
 21 25  1  0  0  0  0
 21 26  1  0  0  0  0
 27 28  1  0  0  0  0
 27 32  1  0  0  0  0
 28 29  1  0  0  0  0
 28 31  1  0  0  0  0
 28 33  1  0  0  0  0
 29 30  2  0  0  0  0
 29 37  1  0  0  0  0
 31 34  1  0  0  0  0
 31 35  1  0  0  0  0
 31 36  1  0  0  0  0
 37 38  1  0  0  0  0
 37 39  1  0  0  0  0
 38 40  1  0  0  0  0
 38 41  1  0  0  0  0
 38 42  1  0  0  0  0
M  END
$$$$

  -OEChem-02062319043D

 42 41  0     1  0  0  0  0  0999 V2000
   -4.1308   -1.7143   -1.8801 C   0  0  0  0  0  0  0  0  0  0  0  0
   -3.9988   -1.3920   -3.0525 O   0  0  0  0  0  0  0  0  0  0  0  0
   -4.9125   -2.9659   -1.5300 C   0  0  0  0  0  0  0  0  0  0  0  0
   -5.6775   -2.7336   -0.7849 H   0  0  0  0  0  0  0  0  0  0  0  0
   -5.4017   -3.3678   -2.4216 H   0  0  0  0  0  0  0  0  0  0  0  0
   -4.2375   -3.7241   -1.1249 H   0  0  0  0  0  0  0  0  0  0  0  0
   -3.5272   -0.9872   -0.8750 N   0  0  0  0  0  0  0  0  0  0  0  0
   -2.5210    0.0501   -1.1452 C   0  0  2  0  0  0  0  0  0  0  0  0
   -1.1146   -0.5552   -1.3770 C   0  0  0  0  0  0  0  0  0  0  0  0
   -0.8133   -1.6474   -0.9197 O   0  0  0  0  0  0  0  0  0  0  0  0
   -2.5090    1.0046    0.0510 C   0  0  0  0  0  0  0  0  0  0  0  0
   -3.4748   -1.4538    0.0263 H   0  0  0  0  0  0  0  0  0  0  0  0
   -2.8108    0.6164   -2.0368 H   0  0  0  0  0  0  0  0  0  0  0  0
   -2.2146    0.4752    0.9631 H   0  0  0  0  0  0  0  0  0  0  0  0
   -1.8018    1.8221   -0.1183 H   0  0  0  0  0  0  0  0  0  0  0  0
   -3.5040    1.4349    0.2013 H   0  0  0  0  0  0  0  0  0  0  0  0
   -0.0373    0.1382   -1.8829 N   0  0  0  0  0  0  0  0  0  0  0  0
   -0.1684    1.2608   -2.8218 C   0  0  2  0  0  0  0  0  0  0  0  0
   -0.8703    0.8651   -4.1355 C   0  0  0  0  0  0  0  0  0  0  0  0
   -1.8141    1.5376   -4.5229 O   0  0  0  0  0  0  0  0  0  0  0  0
    1.2339    1.8009   -3.1102 C   0  0  0  0  0  0  0  0  0  0  0  0
    0.8166   -0.4147   -1.8981 H   0  0  0  0  0  0  0  0  0  0  0  0
   -0.7540    2.0617   -2.3578 H   0  0  0  0  0  0  0  0  0  0  0  0
    1.8573    1.0346   -3.5818 H   0  0  0  0  0  0  0  0  0  0  0  0
    1.1757    2.6631   -3.7827 H   0  0  0  0  0  0  0  0  0  0  0  0
    1.7162    2.1203   -2.1810 H   0  0  0  0  0  0  0  0  0  0  0  0
   -0.5292   -0.3000   -4.7935 N   0  0  0  0  0  0  0  0  0  0  0  0
   -1.4568   -1.0147   -5.6771 C   0  0  2  0  0  0  0  0  0  0  0  0
   -1.4356   -2.5195   -5.3450 C   0  0  0  0  0  0  0  0  0  0  0  0
   -0.3868   -3.1479   -5.4396 O   0  0  0  0  0  0  0  0  0  0  0  0
   -1.0524   -0.7542   -7.1302 C   0  0  0  0  0  0  0  0  0  0  0  0
    0.2008   -0.8653   -4.3647 H   0  0  0  0  0  0  0  0  0  0  0  0
   -2.4828   -0.6590   -5.5292 H   0  0  0  0  0  0  0  0  0  0  0  0
   -0.0307   -1.1014   -7.3145 H   0  0  0  0  0  0  0  0  0  0  0  0
   -1.7277   -1.2800   -7.8120 H   0  0  0  0  0  0  0  0  0  0  0  0
   -1.1027    0.3168   -7.3495 H   0  0  0  0  0  0  0  0  0  0  0  0
   -2.5597   -3.1389   -4.8364 N   0  0  0  0  0  0  0  0  0  0  0  0
   -2.5264   -4.4880   -4.2875 C   0  0  0  0  0  0  0  0  0  0  0  0
   -3.2909   -2.5060   -4.4993 H   0  0  0  0  0  0  0  0  0  0  0  0
   -2.1131   -5.1920   -5.0175 H   0  0  0  0  0  0  0  0  0  0  0  0
   -1.9110   -4.5156   -3.3821 H   0  0  0  0  0  0  0  0  0  0  0  0
   -3.5386   -4.8152   -4.0326 H   0  0  0  0  0  0  0  0  0  0  0  0
  1  2  2  0  0  0  0
  1  3  1  0  0  0  0
  1  7  1  0  0  0  0
  3  4  1  0  0  0  0
  3  5  1  0  0  0  0
  3  6  1  0  0  0  0
  7  8  1  0  0  0  0
  7 12  1  0  0  0  0
  8  9  1  0  0  0  0
  8 11  1  0  0  0  0
  8 13  1  0  0  0  0
  9 10  2  0  0  0  0
  9 17  1  0  0  0  0
 11 14  1  0  0  0  0
 11 15  1  0  0  0  0
 11 16  1  0  0  0  0
 17 18  1  0  0  0  0
 17 22  1  0  0  0  0
 18 19  1  0  0  0  0
 18 21  1  0  0  0  0
 18 23  1  0  0  0  0
 19 20  2  0  0  0  0
 19 27  1  0  0  0  0
 21 24  1  0  0  0  0
 21 25  1  0  0  0  0
 21 26  1  0  0  0  0
 27 28  1  0  0  0  0
 27 32  1  0  0  0  0
 28 29  1  0  0  0  0
 28 31  1  0  0  0  0
 28 33  1  0  0  0  0
 29 30  2  0  0  0  0
 29 37  1  0  0  0  0
 31 34  1  0  0  0  0
 31 35  1  0  0  0  0
 31 36  1  0  0  0  0
 37 38  1  0  0  0  0
 37 39  1  0  0  0  0
 38 40  1  0  0  0  0
 38 41  1  0  0  0  0
 38 42  1  0  0  0  0
M  END
$$$$

  -OEChem-02062319043D

 42 41  0     1  0  0  0  0  0999 V2000
   -4.3129   -1.4730   -1.7594 C   0  0  0  0  0  0  0  0  0  0  0  0
   -4.3763   -0.9619   -2.8686 O   0  0  0  0  0  0  0  0  0  0  0  0
   -5.0706   -2.7583   -1.4851 C   0  0  0  0  0  0  0  0  0  0  0  0
   -5.7011   -2.6393   -0.6005 H   0  0  0  0  0  0  0  0  0  0  0  0
   -5.7069   -3.0126   -2.3373 H   0  0  0  0  0  0  0  0  0  0  0  0
   -4.3653   -3.5758   -1.3143 H   0  0  0  0  0  0  0  0  0  0  0  0
   -3.5228   -0.9292   -0.7674 N   0  0  0  0  0  0  0  0  0  0  0  0
   -2.5240    0.1216   -1.0147 C   0  0  2  0  0  0  0  0  0  0  0  0
   -1.1223   -0.4793   -1.2879 C   0  0  0  0  0  0  0  0  0  0  0  0
   -0.8224   -1.5869   -0.8680 O   0  0  0  0  0  0  0  0  0  0  0  0
   -2.4891    1.0226    0.2216 C   0  0  0  0  0  0  0  0  0  0  0  0
   -3.3494   -1.5380    0.0286 H   0  0  0  0  0  0  0  0  0  0  0  0
   -2.8276    0.7283   -1.8726 H   0  0  0  0  0  0  0  0  0  0  0  0
   -2.1834    0.4521    1.1045 H   0  0  0  0  0  0  0  0  0  0  0  0
   -1.7814    1.8446    0.0782 H   0  0  0  0  0  0  0  0  0  0  0  0
   -3.4800    1.4496    0.4062 H   0  0  0  0  0  0  0  0  0  0  0  0
   -0.0696    0.1808   -1.8852 N   0  0  0  0  0  0  0  0  0  0  0  0
   -0.1660    1.4389   -2.6388 C   0  0  2  0  0  0  0  0  0  0  0  0
   -1.0956    1.3333   -3.8625 C   0  0  0  0  0  0  0  0  0  0  0  0
   -1.9870    2.1575   -4.0024 O   0  0  0  0  0  0  0  0  0  0  0  0
    1.2446    1.8342   -3.0813 C   0  0  0  0  0  0  0  0  0  0  0  0
    0.7795   -0.3757   -1.9502 H   0  0  0  0  0  0  0  0  0  0  0  0
   -0.5561    2.2282   -1.9874 H   0  0  0  0  0  0  0  0  0  0  0  0
    1.6768    1.0696   -3.7348 H   0  0  0  0  0  0  0  0  0  0  0  0
    1.2170    2.7820   -3.6288 H   0  0  0  0  0  0  0  0  0  0  0  0
    1.8959    1.9582   -2.2105 H   0  0  0  0  0  0  0  0  0  0  0  0
   -1.0166    0.2424   -4.7042 N   0  0  0  0  0  0  0  0  0  0  0  0
   -2.1487   -0.2257   -5.5101 C   0  0  2  0  0  0  0  0  0  0  0  0
   -2.2176   -1.7653   -5.4862 C   0  0  0  0  0  0  0  0  0  0  0  0
   -1.2029   -2.4213   -5.6976 O   0  0  0  0  0  0  0  0  0  0  0  0
   -1.9844    0.2932   -6.9401 C   0  0  0  0  0  0  0  0  0  0  0  0
   -0.3167   -0.4603   -4.4714 H   0  0  0  0  0  0  0  0  0  0  0  0
   -3.0906    0.1558   -5.0996 H   0  0  0  0  0  0  0  0  0  0  0  0
   -1.0488   -0.0715   -7.3758 H   0  0  0  0  0  0  0  0  0  0  0  0
   -2.8157   -0.0460   -7.5653 H   0  0  0  0  0  0  0  0  0  0  0  0
   -1.9696    1.3876   -6.9457 H   0  0  0  0  0  0  0  0  0  0  0  0
   -3.3943   -2.4110   -5.1628 N   0  0  0  0  0  0  0  0  0  0  0  0
   -3.4648   -3.8529   -4.9657 C   0  0  0  0  0  0  0  0  0  0  0  0
   -4.0847   -1.8297   -4.6811 H   0  0  0  0  0  0  0  0  0  0  0  0
   -3.1301   -4.3804   -5.8653 H   0  0  0  0  0  0  0  0  0  0  0  0
   -2.8341   -4.1568   -4.1236 H   0  0  0  0  0  0  0  0  0  0  0  0
   -4.4956   -4.1535   -4.7554 H   0  0  0  0  0  0  0  0  0  0  0  0
  1  2  2  0  0  0  0
  1  3  1  0  0  0  0
  1  7  1  0  0  0  0
  3  4  1  0  0  0  0
  3  5  1  0  0  0  0
  3  6  1  0  0  0  0
  7  8  1  0  0  0  0
  7 12  1  0  0  0  0
  8  9  1  0  0  0  0
  8 11  1  0  0  0  0
  8 13  1  0  0  0  0
  9 10  2  0  0  0  0
  9 17  1  0  0  0  0
 11 14  1  0  0  0  0
 11 15  1  0  0  0  0
 11 16  1  0  0  0  0
 17 18  1  0  0  0  0
 17 22  1  0  0  0  0
 18 19  1  0  0  0  0
 18 21  1  0  0  0  0
 18 23  1  0  0  0  0
 19 20  2  0  0  0  0
 19 27  1  0  0  0  0
 21 24  1  0  0  0  0
 21 25  1  0  0  0  0
 21 26  1  0  0  0  0
 27 28  1  0  0  0  0
 27 32  1  0  0  0  0
 28 29  1  0  0  0  0
 28 31  1  0  0  0  0
 28 33  1  0  0  0  0
 29 30  2  0  0  0  0
 29 37  1  0  0  0  0
 31 34  1  0  0  0  0
 31 35  1  0  0  0  0
 31 36  1  0  0  0  0
 37 38  1  0  0  0  0
 37 39  1  0  0  0  0
 38 40  1  0  0  0  0
 38 41  1  0  0  0  0
 38 42  1  0  0  0  0
M  END
$$$$

  -OEChem-02062319043D

 42 41  0     1  0  0  0  0  0999 V2000
   -4.4796   -1.2512   -1.5859 C   0  0  0  0  0  0  0  0  0  0  0  0
   -4.7440   -0.5066   -2.5195 O   0  0  0  0  0  0  0  0  0  0  0  0
   -5.2408   -2.5545   -1.4335 C   0  0  0  0  0  0  0  0  0  0  0  0
   -5.6884   -2.6108   -0.4382 H   0  0  0  0  0  0  0  0  0  0  0  0
   -6.0373   -2.6172   -2.1801 H   0  0  0  0  0  0  0  0  0  0  0  0
   -4.5623   -3.4006   -1.5689 H   0  0  0  0  0  0  0  0  0  0  0  0
   -3.4754   -0.9454   -0.6902 N   0  0  0  0  0  0  0  0  0  0  0  0
   -2.4897    0.1273   -0.8930 C   0  0  2  0  0  0  0  0  0  0  0  0
   -1.0902   -0.4536   -1.2192 C   0  0  0  0  0  0  0  0  0  0  0  0
   -0.7869   -1.5790   -0.8512 O   0  0  0  0  0  0  0  0  0  0  0  0
   -2.4412    0.9597    0.3893 C   0  0  0  0  0  0  0  0  0  0  0  0
   -3.1850   -1.7085   -0.0822 H   0  0  0  0  0  0  0  0  0  0  0  0
   -2.8087    0.7765   -1.7101 H   0  0  0  0  0  0  0  0  0  0  0  0
   -2.1147    0.3457    1.2348 H   0  0  0  0  0  0  0  0  0  0  0  0
   -1.7460    1.7968    0.2777 H   0  0  0  0  0  0  0  0  0  0  0  0
   -3.4333    1.3642    0.6131 H   0  0  0  0  0  0  0  0  0  0  0  0
   -0.0723    0.1922   -1.8907 N   0  0  0  0  0  0  0  0  0  0  0  0
   -0.1014    1.5586   -2.4347 C   0  0  2  0  0  0  0  0  0  0  0  0
   -1.2045    1.7668   -3.4894 C   0  0  0  0  0  0  0  0  0  0  0  0
   -1.9963    2.6872   -3.3497 O   0  0  0  0  0  0  0  0  0  0  0  0
    1.2693    1.8556   -3.0472 C   0  0  0  0  0  0  0  0  0  0  0  0
    0.7816   -0.3556   -1.9674 H   0  0  0  0  0  0  0  0  0  0  0  0
   -0.2775    2.2698   -1.6206 H   0  0  0  0  0  0  0  0  0  0  0  0
    1.4911    1.1577   -3.8613 H   0  0  0  0  0  0  0  0  0  0  0  0
    1.2906    2.8743   -3.4487 H   0  0  0  0  0  0  0  0  0  0  0  0
    2.0532    1.7685   -2.2884 H   0  0  0  0  0  0  0  0  0  0  0  0
   -1.4016    0.8238   -4.4777 N   0  0  0  0  0  0  0  0  0  0  0  0
   -2.6920    0.6146   -5.1434 C   0  0  2  0  0  0  0  0  0  0  0  0
   -2.9164   -0.8866   -5.4163 C   0  0  0  0  0  0  0  0  0  0  0  0
   -1.9816   -1.5788   -5.8069 O   0  0  0  0  0  0  0  0  0  0  0  0
   -2.7117    1.4124   -6.4490 C   0  0  0  0  0  0  0  0  0  0  0  0
   -0.7691    0.0244   -4.4749 H   0  0  0  0  0  0  0  0  0  0  0  0
   -3.5081    0.9624   -4.5005 H   0  0  0  0  0  0  0  0  0  0  0  0
   -1.9049    1.0839   -7.1119 H   0  0  0  0  0  0  0  0  0  0  0  0
   -3.6664    1.2734   -6.9655 H   0  0  0  0  0  0  0  0  0  0  0  0
   -2.5819    2.4794   -6.2422 H   0  0  0  0  0  0  0  0  0  0  0  0
   -4.1423   -1.4723   -5.1698 N   0  0  0  0  0  0  0  0  0  0  0  0
   -4.3564   -2.9099   -5.2727 C   0  0  0  0  0  0  0  0  0  0  0  0
   -4.7549   -0.9425   -4.5448 H   0  0  0  0  0  0  0  0  0  0  0  0
   -4.1296   -3.2600   -6.2853 H   0  0  0  0  0  0  0  0  0  0  0  0
   -3.7168   -3.4453   -4.5633 H   0  0  0  0  0  0  0  0  0  0  0  0
   -5.4004   -3.1512   -5.0520 H   0  0  0  0  0  0  0  0  0  0  0  0
  1  2  2  0  0  0  0
  1  3  1  0  0  0  0
  1  7  1  0  0  0  0
  3  4  1  0  0  0  0
  3  5  1  0  0  0  0
  3  6  1  0  0  0  0
  7  8  1  0  0  0  0
  7 12  1  0  0  0  0
  8  9  1  0  0  0  0
  8 11  1  0  0  0  0
  8 13  1  0  0  0  0
  9 10  2  0  0  0  0
  9 17  1  0  0  0  0
 11 14  1  0  0  0  0
 11 15  1  0  0  0  0
 11 16  1  0  0  0  0
 17 18  1  0  0  0  0
 17 22  1  0  0  0  0
 18 19  1  0  0  0  0
 18 21  1  0  0  0  0
 18 23  1  0  0  0  0
 19 20  2  0  0  0  0
 19 27  1  0  0  0  0
 21 24  1  0  0  0  0
 21 25  1  0  0  0  0
 21 26  1  0  0  0  0
 27 28  1  0  0  0  0
 27 32  1  0  0  0  0
 28 29  1  0  0  0  0
 28 31  1  0  0  0  0
 28 33  1  0  0  0  0
 29 30  2  0  0  0  0
 29 37  1  0  0  0  0
 31 34  1  0  0  0  0
 31 35  1  0  0  0  0
 31 36  1  0  0  0  0
 37 38  1  0  0  0  0
 37 39  1  0  0  0  0
 38 40  1  0  0  0  0
 38 41  1  0  0  0  0
 38 42  1  0  0  0  0
M  END
$$$$

  -OEChem-02062319043D

 42 41  0     1  0  0  0  0  0999 V2000
   -4.6508   -1.0790   -1.3309 C   0  0  0  0  0  0  0  0  0  0  0  0
   -5.0645   -0.1573   -2.0213 O   0  0  0  0  0  0  0  0  0  0  0  0
   -5.4344   -2.3763   -1.2631 C   0  0  0  0  0  0  0  0  0  0  0  0
   -5.7029   -2.5964   -0.2269 H   0  0  0  0  0  0  0  0  0  0  0  0
   -6.3514   -2.2965   -1.8535 H   0  0  0  0  0  0  0  0  0  0  0  0
   -4.8307   -3.1978   -1.6577 H   0  0  0  0  0  0  0  0  0  0  0  0
   -3.4594   -0.9718   -0.6433 N   0  0  0  0  0  0  0  0  0  0  0  0
   -2.4804    0.1064   -0.8452 C   0  0  2  0  0  0  0  0  0  0  0  0
   -1.0864   -0.4680   -1.2088 C   0  0  0  0  0  0  0  0  0  0  0  0
   -0.8106   -1.6268   -0.9335 O   0  0  0  0  0  0  0  0  0  0  0  0
   -2.4140    0.9261    0.4448 C   0  0  0  0  0  0  0  0  0  0  0  0
   -3.0929   -1.8363   -0.2476 H   0  0  0  0  0  0  0  0  0  0  0  0
   -2.8156    0.7557   -1.6537 H   0  0  0  0  0  0  0  0  0  0  0  0
   -2.0646    0.3068    1.2769 H   0  0  0  0  0  0  0  0  0  0  0  0
   -1.7320    1.7731    0.3278 H   0  0  0  0  0  0  0  0  0  0  0  0
   -3.4056    1.3179    0.6924 H   0  0  0  0  0  0  0  0  0  0  0  0
   -0.0838    0.1671   -1.9148 N   0  0  0  0  0  0  0  0  0  0  0  0
    0.0122    1.6054   -2.2117 C   0  0  2  0  0  0  0  0  0  0  0  0
   -1.1747    2.1444   -3.0317 C   0  0  0  0  0  0  0  0  0  0  0  0
   -1.8349    3.0725   -2.5886 O   0  0  0  0  0  0  0  0  0  0  0  0
    1.3188    1.8364   -2.9748 C   0  0  0  0  0  0  0  0  0  0  0  0
    0.7505   -0.4059   -2.0183 H   0  0  0  0  0  0  0  0  0  0  0  0
    0.0544    2.1679   -1.2729 H   0  0  0  0  0  0  0  0  0  0  0  0
    1.3231    1.2777   -3.9165 H   0  0  0  0  0  0  0  0  0  0  0  0
    1.4417    2.9003   -3.2019 H   0  0  0  0  0  0  0  0  0  0  0  0
    2.1736    1.5129   -2.3730 H   0  0  0  0  0  0  0  0  0  0  0  0
   -1.6290    1.4313   -4.1229 N   0  0  0  0  0  0  0  0  0  0  0  0
   -3.0189    1.4607   -4.5930 C   0  0  2  0  0  0  0  0  0  0  0  0
   -3.4320    0.0708   -5.1192 C   0  0  0  0  0  0  0  0  0  0  0  0
   -2.6125   -0.6169   -5.7204 O   0  0  0  0  0  0  0  0  0  0  0  0
   -3.1499    2.5159   -5.6932 C   0  0  0  0  0  0  0  0  0  0  0  0
   -1.0941    0.6002   -4.3755 H   0  0  0  0  0  0  0  0  0  0  0  0
   -3.6913    1.7191   -3.7672 H   0  0  0  0  0  0  0  0  0  0  0  0
   -2.4884    2.2789   -6.5327 H   0  0  0  0  0  0  0  0  0  0  0  0
   -4.1799    2.5562   -6.0608 H   0  0  0  0  0  0  0  0  0  0  0  0
   -2.8818    3.5034   -5.3046 H   0  0  0  0  0  0  0  0  0  0  0  0
   -4.6923   -0.4343   -4.8684 N   0  0  0  0  0  0  0  0  0  0  0  0
   -5.0712   -1.7967   -5.2185 C   0  0  0  0  0  0  0  0  0  0  0  0
   -5.1921    0.0096   -4.0944 H   0  0  0  0  0  0  0  0  0  0  0  0
   -4.9208   -1.9749   -6.2885 H   0  0  0  0  0  0  0  0  0  0  0  0
   -4.4731   -2.5182   -4.6526 H   0  0  0  0  0  0  0  0  0  0  0  0
   -6.1279   -1.9625   -4.9882 H   0  0  0  0  0  0  0  0  0  0  0  0
  1  2  2  0  0  0  0
  1  3  1  0  0  0  0
  1  7  1  0  0  0  0
  3  4  1  0  0  0  0
  3  5  1  0  0  0  0
  3  6  1  0  0  0  0
  7  8  1  0  0  0  0
  7 12  1  0  0  0  0
  8  9  1  0  0  0  0
  8 11  1  0  0  0  0
  8 13  1  0  0  0  0
  9 10  2  0  0  0  0
  9 17  1  0  0  0  0
 11 14  1  0  0  0  0
 11 15  1  0  0  0  0
 11 16  1  0  0  0  0
 17 18  1  0  0  0  0
 17 22  1  0  0  0  0
 18 19  1  0  0  0  0
 18 21  1  0  0  0  0
 18 23  1  0  0  0  0
 19 20  2  0  0  0  0
 19 27  1  0  0  0  0
 21 24  1  0  0  0  0
 21 25  1  0  0  0  0
 21 26  1  0  0  0  0
 27 28  1  0  0  0  0
 27 32  1  0  0  0  0
 28 29  1  0  0  0  0
 28 31  1  0  0  0  0
 28 33  1  0  0  0  0
 29 30  2  0  0  0  0
 29 37  1  0  0  0  0
 31 34  1  0  0  0  0
 31 35  1  0  0  0  0
 31 36  1  0  0  0  0
 37 38  1  0  0  0  0
 37 39  1  0  0  0  0
 38 40  1  0  0  0  0
 38 41  1  0  0  0  0
 38 42  1  0  0  0  0
M  END
$$$$

  -OEChem-02062319043D

 42 41  0     1  0  0  0  0  0999 V2000
   -4.7114   -0.9409   -1.0618 C   0  0  0  0  0  0  0  0  0  0  0  0
   -5.1626    0.1173   -1.4798 O   0  0  0  0  0  0  0  0  0  0  0  0
   -5.5878   -2.1786   -1.0438 C   0  0  0  0  0  0  0  0  0  0  0  0
   -5.6423   -2.5822   -0.0297 H   0  0  0  0  0  0  0  0  0  0  0  0
   -6.5989   -1.9308   -1.3781 H   0  0  0  0  0  0  0  0  0  0  0  0
   -5.1727   -2.9393   -1.7093 H   0  0  0  0  0  0  0  0  0  0  0  0
   -3.4031   -1.0248   -0.6318 N   0  0  0  0  0  0  0  0  0  0  0  0
   -2.4169    0.0556   -0.7656 C   0  0  2  0  0  0  0  0  0  0  0  0
   -1.0178   -0.4822   -1.1595 C   0  0  0  0  0  0  0  0  0  0  0  0
   -0.7469   -1.6597   -0.9740 O   0  0  0  0  0  0  0  0  0  0  0  0
   -2.3507    0.8055    0.5673 C   0  0  0  0  0  0  0  0  0  0  0  0
   -3.0376   -1.9545   -0.4283 H   0  0  0  0  0  0  0  0  0  0  0  0
   -2.7543    0.7397   -1.5405 H   0  0  0  0  0  0  0  0  0  0  0  0
   -2.0169    0.1371    1.3672 H   0  0  0  0  0  0  0  0  0  0  0  0
   -1.6553    1.6474    0.5030 H   0  0  0  0  0  0  0  0  0  0  0  0
   -3.3383    1.1985    0.8291 H   0  0  0  0  0  0  0  0  0  0  0  0
   -0.0588    0.1680   -1.9129 N   0  0  0  0  0  0  0  0  0  0  0  0
    0.1421    1.6264   -1.9868 C   0  0  2  0  0  0  0  0  0  0  0  0
   -1.0778    2.4096   -2.5121 C   0  0  0  0  0  0  0  0  0  0  0  0
   -1.5675    3.2947   -1.8269 O   0  0  0  0  0  0  0  0  0  0  0  0
    1.3491    1.8846   -2.8923 C   0  0  0  0  0  0  0  0  0  0  0  0
    0.7504   -0.4249   -2.0830 H   0  0  0  0  0  0  0  0  0  0  0  0
    0.3731    2.0068   -0.9856 H   0  0  0  0  0  0  0  0  0  0  0  0
    1.1637    1.5077   -3.9033 H   0  0  0  0  0  0  0  0  0  0  0  0
    1.5529    2.9586   -2.9541 H   0  0  0  0  0  0  0  0  0  0  0  0
    2.2396    1.3890   -2.4931 H   0  0  0  0  0  0  0  0  0  0  0  0
   -1.7532    1.9448   -3.6239 N   0  0  0  0  0  0  0  0  0  0  0  0
   -3.1661    2.2194   -3.9140 C   0  0  2  0  0  0  0  0  0  0  0  0
   -3.7992    1.0181   -4.6468 C   0  0  0  0  0  0  0  0  0  0  0  0
   -3.1377    0.4028   -5.4772 O   0  0  0  0  0  0  0  0  0  0  0  0
   -3.2658    3.4835   -4.7710 C   0  0  0  0  0  0  0  0  0  0  0  0
   -1.3489    1.1370   -4.0981 H   0  0  0  0  0  0  0  0  0  0  0  0
   -3.7199    2.3759   -2.9817 H   0  0  0  0  0  0  0  0  0  0  0  0
   -2.7189    3.3540   -5.7105 H   0  0  0  0  0  0  0  0  0  0  0  0
   -4.3121    3.7035   -5.0044 H   0  0  0  0  0  0  0  0  0  0  0  0
   -2.8435    4.3395   -4.2355 H   0  0  0  0  0  0  0  0  0  0  0  0
   -5.0767    0.5903   -4.3423 N   0  0  0  0  0  0  0  0  0  0  0  0
   -5.6504   -0.6168   -4.9228 C   0  0  0  0  0  0  0  0  0  0  0  0
   -5.4323    0.8870   -3.4305 H   0  0  0  0  0  0  0  0  0  0  0  0
   -5.6478   -0.5567   -6.0163 H   0  0  0  0  0  0  0  0  0  0  0  0
   -5.0778   -1.4984   -4.6169 H   0  0  0  0  0  0  0  0  0  0  0  0
   -6.6850   -0.7394   -4.5887 H   0  0  0  0  0  0  0  0  0  0  0  0
  1  2  2  0  0  0  0
  1  3  1  0  0  0  0
  1  7  1  0  0  0  0
  3  4  1  0  0  0  0
  3  5  1  0  0  0  0
  3  6  1  0  0  0  0
  7  8  1  0  0  0  0
  7 12  1  0  0  0  0
  8  9  1  0  0  0  0
  8 11  1  0  0  0  0
  8 13  1  0  0  0  0
  9 10  2  0  0  0  0
  9 17  1  0  0  0  0
 11 14  1  0  0  0  0
 11 15  1  0  0  0  0
 11 16  1  0  0  0  0
 17 18  1  0  0  0  0
 17 22  1  0  0  0  0
 18 19  1  0  0  0  0
 18 21  1  0  0  0  0
 18 23  1  0  0  0  0
 19 20  2  0  0  0  0
 19 27  1  0  0  0  0
 21 24  1  0  0  0  0
 21 25  1  0  0  0  0
 21 26  1  0  0  0  0
 27 28  1  0  0  0  0
 27 32  1  0  0  0  0
 28 29  1  0  0  0  0
 28 31  1  0  0  0  0
 28 33  1  0  0  0  0
 29 30  2  0  0  0  0
 29 37  1  0  0  0  0
 31 34  1  0  0  0  0
 31 35  1  0  0  0  0
 31 36  1  0  0  0  0
 37 38  1  0  0  0  0
 37 39  1  0  0  0  0
 38 40  1  0  0  0  0
 38 41  1  0  0  0  0
 38 42  1  0  0  0  0
M  END
$$$$

  -OEChem-02062319043D

 42 41  0     1  0  0  0  0  0999 V2000
   -4.7000   -0.8530   -0.8306 C   0  0  0  0  0  0  0  0  0  0  0  0
   -5.1479    0.2749   -0.9907 O   0  0  0  0  0  0  0  0  0  0  0  0
   -5.6246   -2.0532   -0.9024 C   0  0  0  0  0  0  0  0  0  0  0  0
   -5.4382   -2.7209   -0.0574 H   0  0  0  0  0  0  0  0  0  0  0  0
   -6.6683   -1.7288   -0.8690 H   0  0  0  0  0  0  0  0  0  0  0  0
   -5.4524   -2.5999   -1.8330 H   0  0  0  0  0  0  0  0  0  0  0  0
   -3.3508   -1.0419   -0.6157 N   0  0  0  0  0  0  0  0  0  0  0  0
   -2.3479    0.0283   -0.6599 C   0  0  2  0  0  0  0  0  0  0  0  0
   -0.9556   -0.4873   -1.1009 C   0  0  0  0  0  0  0  0  0  0  0  0
   -0.7025   -1.6792   -1.0020 O   0  0  0  0  0  0  0  0  0  0  0  0
   -2.2611    0.6623    0.7324 C   0  0  0  0  0  0  0  0  0  0  0  0
   -3.0036   -1.9998   -0.5815 H   0  0  0  0  0  0  0  0  0  0  0  0
   -2.6815    0.7738   -1.3751 H   0  0  0  0  0  0  0  0  0  0  0  0
   -1.9796   -0.0884    1.4776 H   0  0  0  0  0  0  0  0  0  0  0  0
   -1.5163    1.4626    0.7493 H   0  0  0  0  0  0  0  0  0  0  0  0
   -3.2281    1.0901    1.0156 H   0  0  0  0  0  0  0  0  0  0  0  0
   -0.0476    0.1586   -1.9187 N   0  0  0  0  0  0  0  0  0  0  0  0
    0.3128    1.5849   -1.8100 C   0  0  2  0  0  0  0  0  0  0  0  0
   -0.8576    2.5727   -1.9995 C   0  0  0  0  0  0  0  0  0  0  0  0
   -1.1284    3.3720   -1.1163 O   0  0  0  0  0  0  0  0  0  0  0  0
    1.3961    1.8662   -2.8544 C   0  0  0  0  0  0  0  0  0  0  0  0
    0.6989   -0.4760   -2.1937 H   0  0  0  0  0  0  0  0  0  0  0  0
    0.7343    1.7676   -0.8151 H   0  0  0  0  0  0  0  0  0  0  0  0
    1.0204    1.6751   -3.8650 H   0  0  0  0  0  0  0  0  0  0  0  0
    1.7174    2.9113   -2.7956 H   0  0  0  0  0  0  0  0  0  0  0  0
    2.2686    1.2286   -2.6805 H   0  0  0  0  0  0  0  0  0  0  0  0
   -1.7430    2.3747   -3.0415 N   0  0  0  0  0  0  0  0  0  0  0  0
   -3.1258    2.8666   -3.0826 C   0  0  2  0  0  0  0  0  0  0  0  0
   -3.9816    1.9477   -3.9805 C   0  0  0  0  0  0  0  0  0  0  0  0
   -3.4994    1.5030   -5.0175 O   0  0  0  0  0  0  0  0  0  0  0  0
   -3.1402    4.3024   -3.6138 C   0  0  0  0  0  0  0  0  0  0  0  0
   -1.5034    1.6462   -3.7143 H   0  0  0  0  0  0  0  0  0  0  0  0
   -3.5564    2.8543   -2.0755 H   0  0  0  0  0  0  0  0  0  0  0  0
   -2.7074    4.3432   -4.6185 H   0  0  0  0  0  0  0  0  0  0  0  0
   -4.1660    4.6806   -3.6597 H   0  0  0  0  0  0  0  0  0  0  0  0
   -2.5602    4.9574   -2.9564 H   0  0  0  0  0  0  0  0  0  0  0  0
   -5.2527    1.5610   -3.6023 N   0  0  0  0  0  0  0  0  0  0  0  0
   -6.0267    0.5848   -4.3589 C   0  0  0  0  0  0  0  0  0  0  0  0
   -5.4609    1.6462   -2.6049 H   0  0  0  0  0  0  0  0  0  0  0  0
   -6.1226    0.8950   -5.4049 H   0  0  0  0  0  0  0  0  0  0  0  0
   -5.5437   -0.3970   -4.3248 H   0  0  0  0  0  0  0  0  0  0  0  0
   -7.0314    0.4933   -3.9351 H   0  0  0  0  0  0  0  0  0  0  0  0
  1  2  2  0  0  0  0
  1  3  1  0  0  0  0
  1  7  1  0  0  0  0
  3  4  1  0  0  0  0
  3  5  1  0  0  0  0
  3  6  1  0  0  0  0
  7  8  1  0  0  0  0
  7 12  1  0  0  0  0
  8  9  1  0  0  0  0
  8 11  1  0  0  0  0
  8 13  1  0  0  0  0
  9 10  2  0  0  0  0
  9 17  1  0  0  0  0
 11 14  1  0  0  0  0
 11 15  1  0  0  0  0
 11 16  1  0  0  0  0
 17 18  1  0  0  0  0
 17 22  1  0  0  0  0
 18 19  1  0  0  0  0
 18 21  1  0  0  0  0
 18 23  1  0  0  0  0
 19 20  2  0  0  0  0
 19 27  1  0  0  0  0
 21 24  1  0  0  0  0
 21 25  1  0  0  0  0
 21 26  1  0  0  0  0
 27 28  1  0  0  0  0
 27 32  1  0  0  0  0
 28 29  1  0  0  0  0
 28 31  1  0  0  0  0
 28 33  1  0  0  0  0
 29 30  2  0  0  0  0
 29 37  1  0  0  0  0
 31 34  1  0  0  0  0
 31 35  1  0  0  0  0
 31 36  1  0  0  0  0
 37 38  1  0  0  0  0
 37 39  1  0  0  0  0
 38 40  1  0  0  0  0
 38 41  1  0  0  0  0
 38 42  1  0  0  0  0
M  END
$$$$

  -OEChem-02062319043D

 42 41  0     1  0  0  0  0  0999 V2000
   -4.5760   -0.9984   -0.7846 C   0  0  0  0  0  0  0  0  0  0  0  0
   -5.0483    0.1294   -0.7646 O   0  0  0  0  0  0  0  0  0  0  0  0
   -5.4879   -2.1996   -0.9489 C   0  0  0  0  0  0  0  0  0  0  0  0
   -5.4111   -2.8489   -0.0735 H   0  0  0  0  0  0  0  0  0  0  0  0
   -6.5262   -1.8729   -1.0556 H   0  0  0  0  0  0  0  0  0  0  0  0
   -5.2033   -2.7654   -1.8394 H   0  0  0  0  0  0  0  0  0  0  0  0
   -3.2156   -1.1839   -0.6526 N   0  0  0  0  0  0  0  0  0  0  0  0
   -2.2362   -0.0926   -0.6048 C   0  0  2  0  0  0  0  0  0  0  0  0
   -0.8296   -0.5446   -1.0662 C   0  0  0  0  0  0  0  0  0  0  0  0
   -0.5509   -1.7349   -1.0366 O   0  0  0  0  0  0  0  0  0  0  0  0
   -2.1757    0.4297    0.8358 C   0  0  0  0  0  0  0  0  0  0  0  0
   -2.8502   -2.1312   -0.7419 H   0  0  0  0  0  0  0  0  0  0  0  0
   -2.5785    0.6966   -1.2705 H   0  0  0  0  0  0  0  0  0  0  0  0
   -1.8982   -0.3768    1.5218 H   0  0  0  0  0  0  0  0  0  0  0  0
   -1.4391    1.2312    0.9316 H   0  0  0  0  0  0  0  0  0  0  0  0
   -3.1504    0.8238    1.1388 H   0  0  0  0  0  0  0  0  0  0  0  0
    0.0182    0.1410   -1.9138 N   0  0  0  0  0  0  0  0  0  0  0  0
    0.5277    1.4951   -1.6277 C   0  0  2  0  0  0  0  0  0  0  0  0
   -0.5438    2.5944   -1.4730 C   0  0  0  0  0  0  0  0  0  0  0  0
   -0.5668    3.2933   -0.4709 O   0  0  0  0  0  0  0  0  0  0  0  0
    1.4838    1.8709   -2.7623 C   0  0  0  0  0  0  0  0  0  0  0  0
    0.7041   -0.5052   -2.2977 H   0  0  0  0  0  0  0  0  0  0  0  0
    1.0951    1.4666   -0.6907 H   0  0  0  0  0  0  0  0  0  0  0  0
    0.9571    1.8933   -3.7219 H   0  0  0  0  0  0  0  0  0  0  0  0
    1.9174    2.8598   -2.5808 H   0  0  0  0  0  0  0  0  0  0  0  0
    2.3002    1.1452   -2.8293 H   0  0  0  0  0  0  0  0  0  0  0  0
   -1.5792    2.6645   -2.3832 N   0  0  0  0  0  0  0  0  0  0  0  0
   -2.8653    3.3322   -2.1513 C   0  0  2  0  0  0  0  0  0  0  0  0
   -3.9726    2.6726   -3.0029 C   0  0  0  0  0  0  0  0  0  0  0  0
   -3.6617    1.9755   -3.9651 O   0  0  0  0  0  0  0  0  0  0  0  0
   -2.7298    4.8163   -2.5010 C   0  0  0  0  0  0  0  0  0  0  0  0
   -1.5617    1.9880   -3.1482 H   0  0  0  0  0  0  0  0  0  0  0  0
   -3.1488    3.2307   -1.0981 H   0  0  0  0  0  0  0  0  0  0  0  0
   -2.4454    4.9372   -3.5511 H   0  0  0  0  0  0  0  0  0  0  0  0
   -3.6774    5.3370   -2.3335 H   0  0  0  0  0  0  0  0  0  0  0  0
   -1.9638    5.2854   -1.8757 H   0  0  0  0  0  0  0  0  0  0  0  0
   -5.3057    2.8439   -2.6829 N   0  0  0  0  0  0  0  0  0  0  0  0
   -6.3698    2.1098   -3.3562 C   0  0  0  0  0  0  0  0  0  0  0  0
   -5.5034    3.2341   -1.7661 H   0  0  0  0  0  0  0  0  0  0  0  0
   -6.3430    2.2972   -4.4347 H   0  0  0  0  0  0  0  0  0  0  0  0
   -6.2622    1.0340   -3.1826 H   0  0  0  0  0  0  0  0  0  0  0  0
   -7.3457    2.4270   -2.9766 H   0  0  0  0  0  0  0  0  0  0  0  0
  1  2  2  0  0  0  0
  1  3  1  0  0  0  0
  1  7  1  0  0  0  0
  3  4  1  0  0  0  0
  3  5  1  0  0  0  0
  3  6  1  0  0  0  0
  7  8  1  0  0  0  0
  7 12  1  0  0  0  0
  8  9  1  0  0  0  0
  8 11  1  0  0  0  0
  8 13  1  0  0  0  0
  9 10  2  0  0  0  0
  9 17  1  0  0  0  0
 11 14  1  0  0  0  0
 11 15  1  0  0  0  0
 11 16  1  0  0  0  0
 17 18  1  0  0  0  0
 17 22  1  0  0  0  0
 18 19  1  0  0  0  0
 18 21  1  0  0  0  0
 18 23  1  0  0  0  0
 19 20  2  0  0  0  0
 19 27  1  0  0  0  0
 21 24  1  0  0  0  0
 21 25  1  0  0  0  0
 21 26  1  0  0  0  0
 27 28  1  0  0  0  0
 27 32  1  0  0  0  0
 28 29  1  0  0  0  0
 28 31  1  0  0  0  0
 28 33  1  0  0  0  0
 29 30  2  0  0  0  0
 29 37  1  0  0  0  0
 31 34  1  0  0  0  0
 31 35  1  0  0  0  0
 31 36  1  0  0  0  0
 37 38  1  0  0  0  0
 37 39  1  0  0  0  0
 38 40  1  0  0  0  0
 38 41  1  0  0  0  0
 38 42  1  0  0  0  0
M  END
$$$$

  -OEChem-02062319043D

 42 41  0     1  0  0  0  0  0999 V2000
   -4.5573   -1.0047   -0.7902 C   0  0  0  0  0  0  0  0  0  0  0  0
   -5.0188    0.1126   -0.6119 O   0  0  0  0  0  0  0  0  0  0  0  0
   -5.4856   -2.1740   -1.0604 C   0  0  0  0  0  0  0  0  0  0  0  0
   -5.4206   -2.8994   -0.2457 H   0  0  0  0  0  0  0  0  0  0  0  0
   -6.5187   -1.8244   -1.1396 H   0  0  0  0  0  0  0  0  0  0  0  0
   -5.2072   -2.6627   -1.9974 H   0  0  0  0  0  0  0  0  0  0  0  0
   -3.1942   -1.2095   -0.7393 N   0  0  0  0  0  0  0  0  0  0  0  0
   -2.1976   -0.1419   -0.5906 C   0  0  2  0  0  0  0  0  0  0  0  0
   -0.7978   -0.5863   -1.0799 C   0  0  0  0  0  0  0  0  0  0  0  0
   -0.5396   -1.7809   -1.1213 O   0  0  0  0  0  0  0  0  0  0  0  0
   -2.1365    0.2521    0.8913 C   0  0  0  0  0  0  0  0  0  0  0  0
   -2.8436   -2.1468   -0.9326 H   0  0  0  0  0  0  0  0  0  0  0  0
   -2.5156    0.7107   -1.1919 H   0  0  0  0  0  0  0  0  0  0  0  0
   -1.8840   -0.6178    1.5059 H   0  0  0  0  0  0  0  0  0  0  0  0
   -1.3818    1.0228    1.0625 H   0  0  0  0  0  0  0  0  0  0  0  0
   -3.1023    0.6434    1.2240 H   0  0  0  0  0  0  0  0  0  0  0  0
    0.0070    0.1165   -1.9522 N   0  0  0  0  0  0  0  0  0  0  0  0
    0.7347    1.3234   -1.5206 C   0  0  2  0  0  0  0  0  0  0  0  0
   -0.1457    2.4833   -1.0132 C   0  0  0  0  0  0  0  0  0  0  0  0
    0.0704    2.9896    0.0778 O   0  0  0  0  0  0  0  0  0  0  0  0
    1.5702    1.8022   -2.7105 C   0  0  0  0  0  0  0  0  0  0  0  0
    0.5854   -0.5506   -2.4581 H   0  0  0  0  0  0  0  0  0  0  0  0
    1.4130    1.0526   -0.7035 H   0  0  0  0  0  0  0  0  0  0  0  0
    0.9250    2.0682   -3.5543 H   0  0  0  0  0  0  0  0  0  0  0  0
    2.1576    2.6831   -2.4312 H   0  0  0  0  0  0  0  0  0  0  0  0
    2.2604    1.0169   -3.0339 H   0  0  0  0  0  0  0  0  0  0  0  0
   -1.2733    2.8395   -1.7239 N   0  0  0  0  0  0  0  0  0  0  0  0
   -2.3901    3.6386   -1.2082 C   0  0  2  0  0  0  0  0  0  0  0  0
   -3.6838    3.3087   -1.9846 C   0  0  0  0  0  0  0  0  0  0  0  0
   -3.6049    2.7802   -3.0900 O   0  0  0  0  0  0  0  0  0  0  0  0
   -2.0489    5.1253   -1.3445 C   0  0  0  0  0  0  0  0  0  0  0  0
   -1.4518    2.3275   -2.5895 H   0  0  0  0  0  0  0  0  0  0  0  0
   -2.5592    3.3978   -0.1533 H   0  0  0  0  0  0  0  0  0  0  0  0
   -1.8719    5.3818   -2.3940 H   0  0  0  0  0  0  0  0  0  0  0  0
   -2.8701    5.7427   -0.9683 H   0  0  0  0  0  0  0  0  0  0  0  0
   -1.1479    5.3637   -0.7708 H   0  0  0  0  0  0  0  0  0  0  0  0
   -4.9243    3.5833   -1.4415 N   0  0  0  0  0  0  0  0  0  0  0  0
   -6.1664    3.1401   -2.0636 C   0  0  0  0  0  0  0  0  0  0  0  0
   -4.9481    3.8609   -0.4650 H   0  0  0  0  0  0  0  0  0  0  0  0
   -6.2711    3.5742   -3.0635 H   0  0  0  0  0  0  0  0  0  0  0  0
   -6.1851    2.0486   -2.1503 H   0  0  0  0  0  0  0  0  0  0  0  0
   -7.0236    3.4536   -1.4601 H   0  0  0  0  0  0  0  0  0  0  0  0
  1  2  2  0  0  0  0
  1  3  1  0  0  0  0
  1  7  1  0  0  0  0
  3  4  1  0  0  0  0
  3  5  1  0  0  0  0
  3  6  1  0  0  0  0
  7  8  1  0  0  0  0
  7 12  1  0  0  0  0
  8  9  1  0  0  0  0
  8 11  1  0  0  0  0
  8 13  1  0  0  0  0
  9 10  2  0  0  0  0
  9 17  1  0  0  0  0
 11 14  1  0  0  0  0
 11 15  1  0  0  0  0
 11 16  1  0  0  0  0
 17 18  1  0  0  0  0
 17 22  1  0  0  0  0
 18 19  1  0  0  0  0
 18 21  1  0  0  0  0
 18 23  1  0  0  0  0
 19 20  2  0  0  0  0
 19 27  1  0  0  0  0
 21 24  1  0  0  0  0
 21 25  1  0  0  0  0
 21 26  1  0  0  0  0
 27 28  1  0  0  0  0
 27 32  1  0  0  0  0
 28 29  1  0  0  0  0
 28 31  1  0  0  0  0
 28 33  1  0  0  0  0
 29 30  2  0  0  0  0
 29 37  1  0  0  0  0
 31 34  1  0  0  0  0
 31 35  1  0  0  0  0
 31 36  1  0  0  0  0
 37 38  1  0  0  0  0
 37 39  1  0  0  0  0
 38 40  1  0  0  0  0
 38 41  1  0  0  0  0
 38 42  1  0  0  0  0
M  END
$$$$

  -OEChem-02062319043D

 42 41  0     1  0  0  0  0  0999 V2000
   -4.5816   -1.0524   -1.0360 C   0  0  0  0  0  0  0  0  0  0  0  0
   -5.0471    0.0754   -1.0262 O   0  0  0  0  0  0  0  0  0  0  0  0
   -5.5022   -2.2538   -1.1388 C   0  0  0  0  0  0  0  0  0  0  0  0
   -5.3929   -2.8844   -0.2532 H   0  0  0  0  0  0  0  0  0  0  0  0
   -6.5430   -1.9263   -1.2116 H   0  0  0  0  0  0  0  0  0  0  0  0
   -5.2548   -2.8392   -2.0278 H   0  0  0  0  0  0  0  0  0  0  0  0
   -3.2192   -1.2432   -0.9360 N   0  0  0  0  0  0  0  0  0  0  0  0
   -2.2388   -0.1689   -0.7342 C   0  0  2  0  0  0  0  0  0  0  0  0
   -0.8416   -0.6331   -1.2083 C   0  0  0  0  0  0  0  0  0  0  0  0
   -0.2911   -1.5409   -0.6029 O   0  0  0  0  0  0  0  0  0  0  0  0
   -2.2478    0.1837    0.7616 C   0  0  0  0  0  0  0  0  0  0  0  0
   -2.8884   -2.2020   -0.8450 H   0  0  0  0  0  0  0  0  0  0  0  0
   -2.5253    0.7104   -1.3190 H   0  0  0  0  0  0  0  0  0  0  0  0
   -2.0629   -0.7100    1.3668 H   0  0  0  0  0  0  0  0  0  0  0  0
   -1.4745    0.9166    0.9984 H   0  0  0  0  0  0  0  0  0  0  0  0
   -3.2170    0.6038    1.0471 H   0  0  0  0  0  0  0  0  0  0  0  0
   -0.0289    0.1014   -2.0569 N   0  0  0  0  0  0  0  0  0  0  0  0
    0.9351    1.0563   -1.4762 C   0  0  2  0  0  0  0  0  0  0  0  0
    0.3211    2.1884   -0.6272 C   0  0  0  0  0  0  0  0  0  0  0  0
    0.7363    2.4327    0.4952 O   0  0  0  0  0  0  0  0  0  0  0  0
    1.7551    1.6472   -2.6253 C   0  0  0  0  0  0  0  0  0  0  0  0
   -0.5632    0.5019   -2.8221 H   0  0  0  0  0  0  0  0  0  0  0  0
    1.6156    0.4998   -0.8205 H   0  0  0  0  0  0  0  0  0  0  0  0
    1.1165    2.2120   -3.3115 H   0  0  0  0  0  0  0  0  0  0  0  0
    2.5249    2.3199   -2.2332 H   0  0  0  0  0  0  0  0  0  0  0  0
    2.2502    0.8480   -3.1861 H   0  0  0  0  0  0  0  0  0  0  0  0
   -0.7881    2.8621   -1.0974 N   0  0  0  0  0  0  0  0  0  0  0  0
   -1.6613    3.7302   -0.3024 C   0  0  2  0  0  0  0  0  0  0  0  0
   -3.0897    3.6872   -0.8836 C   0  0  0  0  0  0  0  0  0  0  0  0
   -3.2469    3.3349   -2.0493 O   0  0  0  0  0  0  0  0  0  0  0  0
   -1.1058    5.1562   -0.3266 C   0  0  0  0  0  0  0  0  0  0  0  0
   -1.1332    2.6191   -2.0246 H   0  0  0  0  0  0  0  0  0  0  0  0
   -1.7020    3.3748    0.7325 H   0  0  0  0  0  0  0  0  0  0  0  0
   -1.0557    5.5311   -1.3539 H   0  0  0  0  0  0  0  0  0  0  0  0
   -1.7440    5.8255    0.2582 H   0  0  0  0  0  0  0  0  0  0  0  0
   -0.0987    5.1777    0.1021 H   0  0  0  0  0  0  0  0  0  0  0  0
   -4.1864    3.9848   -0.0979 N   0  0  0  0  0  0  0  0  0  0  0  0
   -5.5569    3.7677   -0.5475 C   0  0  0  0  0  0  0  0  0  0  0  0
   -4.0211    4.1669    0.8875 H   0  0  0  0  0  0  0  0  0  0  0  0
   -5.7533    4.3288   -1.4672 H   0  0  0  0  0  0  0  0  0  0  0  0
   -5.7340    2.7044   -0.7402 H   0  0  0  0  0  0  0  0  0  0  0  0
   -6.2639    4.1025    0.2176 H   0  0  0  0  0  0  0  0  0  0  0  0
  1  2  2  0  0  0  0
  1  3  1  0  0  0  0
  1  7  1  0  0  0  0
  3  4  1  0  0  0  0
  3  5  1  0  0  0  0
  3  6  1  0  0  0  0
  7  8  1  0  0  0  0
  7 12  1  0  0  0  0
  8  9  1  0  0  0  0
  8 11  1  0  0  0  0
  8 13  1  0  0  0  0
  9 10  2  0  0  0  0
  9 17  1  0  0  0  0
 11 14  1  0  0  0  0
 11 15  1  0  0  0  0
 11 16  1  0  0  0  0
 17 18  1  0  0  0  0
 17 22  1  0  0  0  0
 18 19  1  0  0  0  0
 18 21  1  0  0  0  0
 18 23  1  0  0  0  0
 19 20  2  0  0  0  0
 19 27  1  0  0  0  0
 21 24  1  0  0  0  0
 21 25  1  0  0  0  0
 21 26  1  0  0  0  0
 27 28  1  0  0  0  0
 27 32  1  0  0  0  0
 28 29  1  0  0  0  0
 28 31  1  0  0  0  0
 28 33  1  0  0  0  0
 29 30  2  0  0  0  0
 29 37  1  0  0  0  0
 31 34  1  0  0  0  0
 31 35  1  0  0  0  0
 31 36  1  0  0  0  0
 37 38  1  0  0  0  0
 37 39  1  0  0  0  0
 38 40  1  0  0  0  0
 38 41  1  0  0  0  0
 38 42  1  0  0  0  0
M  END
$$$$

  -OEChem-02062319043D

 42 41  0     1  0  0  0  0  0999 V2000
   -4.6213   -0.8607   -1.1316 C   0  0  0  0  0  0  0  0  0  0  0  0
   -5.0274    0.2893   -1.1084 O   0  0  0  0  0  0  0  0  0  0  0  0
   -5.5982   -2.0056   -1.3262 C   0  0  0  0  0  0  0  0  0  0  0  0
   -5.6208   -2.6339   -0.4323 H   0  0  0  0  0  0  0  0  0  0  0  0
   -6.6039   -1.6159   -1.5092 H   0  0  0  0  0  0  0  0  0  0  0  0
   -5.2970   -2.6133   -2.1831 H   0  0  0  0  0  0  0  0  0  0  0  0
   -3.2767   -1.1263   -0.9742 N   0  0  0  0  0  0  0  0  0  0  0  0
   -2.2514   -0.1093   -0.7043 C   0  0  2  0  0  0  0  0  0  0  0  0
   -0.8650   -0.6081   -1.1709 C   0  0  0  0  0  0  0  0  0  0  0  0
   -0.3319   -1.5219   -0.5582 O   0  0  0  0  0  0  0  0  0  0  0  0
   -2.2686    0.1766    0.8046 C   0  0  0  0  0  0  0  0  0  0  0  0
   -2.9997   -2.1035   -0.9054 H   0  0  0  0  0  0  0  0  0  0  0  0
   -2.4823    0.8133   -1.2474 H   0  0  0  0  0  0  0  0  0  0  0  0
   -2.1654   -0.7532    1.3732 H   0  0  0  0  0  0  0  0  0  0  0  0
   -1.4450    0.8364    1.0850 H   0  0  0  0  0  0  0  0  0  0  0  0
   -3.2103    0.6559    1.0887 H   0  0  0  0  0  0  0  0  0  0  0  0
   -0.0534    0.1169   -2.0286 N   0  0  0  0  0  0  0  0  0  0  0  0
    1.1305    0.8043   -1.4752 C   0  0  2  0  0  0  0  0  0  0  0  0
    0.8199    1.8630   -0.3952 C   0  0  0  0  0  0  0  0  0  0  0  0
    1.4136    1.8774    0.6721 O   0  0  0  0  0  0  0  0  0  0  0  0
    1.8881    1.4435   -2.6411 C   0  0  0  0  0  0  0  0  0  0  0  0
   -0.5914    0.6834   -2.6776 H   0  0  0  0  0  0  0  0  0  0  0  0
    1.7838    0.0556   -1.0110 H   0  0  0  0  0  0  0  0  0  0  0  0
    1.2740    2.2004   -3.1389 H   0  0  0  0  0  0  0  0  0  0  0  0
    2.8039    1.9220   -2.2792 H   0  0  0  0  0  0  0  0  0  0  0  0
    2.1654    0.6799   -3.3749 H   0  0  0  0  0  0  0  0  0  0  0  0
   -0.2104    2.7576   -0.6048 N   0  0  0  0  0  0  0  0  0  0  0  0
   -0.8377    3.5926    0.4234 C   0  0  2  0  0  0  0  0  0  0  0  0
   -2.3458    3.7041    0.1233 C   0  0  0  0  0  0  0  0  0  0  0  0
   -2.7341    3.5441   -1.0299 O   0  0  0  0  0  0  0  0  0  0  0  0
   -0.1724    4.9699    0.4211 C   0  0  0  0  0  0  0  0  0  0  0  0
   -0.7187    2.6881   -1.4845 H   0  0  0  0  0  0  0  0  0  0  0  0
   -0.7162    3.1353    1.4110 H   0  0  0  0  0  0  0  0  0  0  0  0
   -0.2852    5.4487   -0.5570 H   0  0  0  0  0  0  0  0  0  0  0  0
   -0.6253    5.6154    1.1799 H   0  0  0  0  0  0  0  0  0  0  0  0
    0.8955    4.8728    0.6419 H   0  0  0  0  0  0  0  0  0  0  0  0
   -3.2659    3.8836    1.1380 N   0  0  0  0  0  0  0  0  0  0  0  0
   -4.7049    3.7830    0.9203 C   0  0  0  0  0  0  0  0  0  0  0  0
   -2.9164    3.9244    2.0909 H   0  0  0  0  0  0  0  0  0  0  0  0
   -5.0387    4.5437    0.2066 H   0  0  0  0  0  0  0  0  0  0  0  0
   -4.9661    2.7939    0.5274 H   0  0  0  0  0  0  0  0  0  0  0  0
   -5.2424    3.9336    1.8615 H   0  0  0  0  0  0  0  0  0  0  0  0
  1  2  2  0  0  0  0
  1  3  1  0  0  0  0
  1  7  1  0  0  0  0
  3  4  1  0  0  0  0
  3  5  1  0  0  0  0
  3  6  1  0  0  0  0
  7  8  1  0  0  0  0
  7 12  1  0  0  0  0
  8  9  1  0  0  0  0
  8 11  1  0  0  0  0
  8 13  1  0  0  0  0
  9 10  2  0  0  0  0
  9 17  1  0  0  0  0
 11 14  1  0  0  0  0
 11 15  1  0  0  0  0
 11 16  1  0  0  0  0
 17 18  1  0  0  0  0
 17 22  1  0  0  0  0
 18 19  1  0  0  0  0
 18 21  1  0  0  0  0
 18 23  1  0  0  0  0
 19 20  2  0  0  0  0
 19 27  1  0  0  0  0
 21 24  1  0  0  0  0
 21 25  1  0  0  0  0
 21 26  1  0  0  0  0
 27 28  1  0  0  0  0
 27 32  1  0  0  0  0
 28 29  1  0  0  0  0
 28 31  1  0  0  0  0
 28 33  1  0  0  0  0
 29 30  2  0  0  0  0
 29 37  1  0  0  0  0
 31 34  1  0  0  0  0
 31 35  1  0  0  0  0
 31 36  1  0  0  0  0
 37 38  1  0  0  0  0
 37 39  1  0  0  0  0
 38 40  1  0  0  0  0
 38 41  1  0  0  0  0
 38 42  1  0  0  0  0
M  END
$$$$

  -OEChem-02062319043D

 42 41  0     1  0  0  0  0  0999 V2000
   -3.0338    0.0899   -2.0714 C   0  0  0  0  0  0  0  0  0  0  0  0
   -2.1141    0.8758   -2.2542 O   0  0  0  0  0  0  0  0  0  0  0  0
   -3.9800   -0.2590   -3.2041 C   0  0  0  0  0  0  0  0  0  0  0  0
   -3.9573   -1.3350   -3.3947 H   0  0  0  0  0  0  0  0  0  0  0  0
   -4.9993    0.0360   -2.9425 H   0  0  0  0  0  0  0  0  0  0  0  0
   -3.6861    0.2656   -4.1178 H   0  0  0  0  0  0  0  0  0  0  0  0
   -3.1541   -0.5397   -0.8493 N   0  0  0  0  0  0  0  0  0  0  0  0
   -2.4476   -0.1205    0.3751 C   0  0  2  0  0  0  0  0  0  0  0  0
   -0.9658   -0.5768    0.4478 C   0  0  0  0  0  0  0  0  0  0  0  0
   -0.4285   -0.7566    1.5314 O   0  0  0  0  0  0  0  0  0  0  0  0
   -3.2732   -0.6415    1.5587 C   0  0  0  0  0  0  0  0  0  0  0  0
   -3.9514   -1.1609   -0.7402 H   0  0  0  0  0  0  0  0  0  0  0  0
   -2.4478    0.9725    0.4287 H   0  0  0  0  0  0  0  0  0  0  0  0
   -3.2927   -1.7359    1.5634 H   0  0  0  0  0  0  0  0  0  0  0  0
   -2.8426   -0.3014    2.5057 H   0  0  0  0  0  0  0  0  0  0  0  0
   -4.3007   -0.2692    1.5012 H   0  0  0  0  0  0  0  0  0  0  0  0
   -0.1494   -0.4018   -0.6554 N   0  0  0  0  0  0  0  0  0  0  0  0
    1.0623    0.4261   -0.5442 C   0  0  2  0  0  0  0  0  0  0  0  0
    0.7513    1.8825   -0.1383 C   0  0  0  0  0  0  0  0  0  0  0  0
    1.3897    2.4347    0.7492 O   0  0  0  0  0  0  0  0  0  0  0  0
    1.7857    0.3900   -1.8915 C   0  0  0  0  0  0  0  0  0  0  0  0
   -0.6985   -0.2147   -1.4952 H   0  0  0  0  0  0  0  0  0  0  0  0
    1.7240    0.0004    0.2192 H   0  0  0  0  0  0  0  0  0  0  0  0
    1.1538    0.8065   -2.6826 H   0  0  0  0  0  0  0  0  0  0  0  0
    2.7098    0.9745   -1.8397 H   0  0  0  0  0  0  0  0  0  0  0  0
    2.0429   -0.6405   -2.1553 H   0  0  0  0  0  0  0  0  0  0  0  0
   -0.2853    2.5715   -0.7439 N   0  0  0  0  0  0  0  0  0  0  0  0
   -0.8343    3.8286   -0.2193 C   0  0  2  0  0  0  0  0  0  0  0  0
   -1.6572    3.5946    1.0716 C   0  0  0  0  0  0  0  0  0  0  0  0
   -2.8810    3.6731    1.0811 O   0  0  0  0  0  0  0  0  0  0  0  0
   -1.6592    4.4706   -1.3410 C   0  0  0  0  0  0  0  0  0  0  0  0
   -0.8685    2.0373   -1.3936 H   0  0  0  0  0  0  0  0  0  0  0  0
   -0.0162    4.5128    0.0298 H   0  0  0  0  0  0  0  0  0  0  0  0
   -2.4802    3.8115   -1.6418 H   0  0  0  0  0  0  0  0  0  0  0  0
   -2.0839    5.4211   -1.0027 H   0  0  0  0  0  0  0  0  0  0  0  0
   -1.0288    4.6641   -2.2142 H   0  0  0  0  0  0  0  0  0  0  0  0
   -1.0039    3.1873    2.2178 N   0  0  0  0  0  0  0  0  0  0  0  0
   -1.6814    2.7770    3.4393 C   0  0  0  0  0  0  0  0  0  0  0  0
   -0.0088    2.9701    2.1085 H   0  0  0  0  0  0  0  0  0  0  0  0
   -2.2603    3.6087    3.8538 H   0  0  0  0  0  0  0  0  0  0  0  0
   -2.3576    1.9402    3.2409 H   0  0  0  0  0  0  0  0  0  0  0  0
   -0.9482    2.4594    4.1869 H   0  0  0  0  0  0  0  0  0  0  0  0
  1  2  2  0  0  0  0
  1  3  1  0  0  0  0
  1  7  1  0  0  0  0
  3  4  1  0  0  0  0
  3  5  1  0  0  0  0
  3  6  1  0  0  0  0
  7  8  1  0  0  0  0
  7 12  1  0  0  0  0
  8  9  1  0  0  0  0
  8 11  1  0  0  0  0
  8 13  1  0  0  0  0
  9 10  2  0  0  0  0
  9 17  1  0  0  0  0
 11 14  1  0  0  0  0
 11 15  1  0  0  0  0
 11 16  1  0  0  0  0
 17 18  1  0  0  0  0
 17 22  1  0  0  0  0
 18 19  1  0  0  0  0
 18 21  1  0  0  0  0
 18 23  1  0  0  0  0
 19 20  2  0  0  0  0
 19 27  1  0  0  0  0
 21 24  1  0  0  0  0
 21 25  1  0  0  0  0
 21 26  1  0  0  0  0
 27 28  1  0  0  0  0
 27 32  1  0  0  0  0
 28 29  1  0  0  0  0
 28 31  1  0  0  0  0
 28 33  1  0  0  0  0
 29 30  2  0  0  0  0
 29 37  1  0  0  0  0
 31 34  1  0  0  0  0
 31 35  1  0  0  0  0
 31 36  1  0  0  0  0
 37 38  1  0  0  0  0
 37 39  1  0  0  0  0
 38 40  1  0  0  0  0
 38 41  1  0  0  0  0
 38 42  1  0  0  0  0
M  END
$$$$

  -OEChem-02062319043D

 42 41  0     1  0  0  0  0  0999 V2000
   -4.6558   -1.4965   -1.7635 C   0  0  0  0  0  0  0  0  0  0  0  0
   -5.0658   -0.7812   -2.6640 O   0  0  0  0  0  0  0  0  0  0  0  0
   -5.3335   -2.8247   -1.4836 C   0  0  0  0  0  0  0  0  0  0  0  0
   -5.6812   -2.8562   -0.4482 H   0  0  0  0  0  0  0  0  0  0  0  0
   -6.1923   -2.9582   -2.1477 H   0  0  0  0  0  0  0  0  0  0  0  0
   -4.6296   -3.6441   -1.6494 H   0  0  0  0  0  0  0  0  0  0  0  0
   -3.5648   -1.1169   -1.0095 N   0  0  0  0  0  0  0  0  0  0  0  0
   -2.6689   -0.0064   -1.3638 C   0  0  2  0  0  0  0  0  0  0  0  0
   -1.2420   -0.5199   -1.6627 C   0  0  0  0  0  0  0  0  0  0  0  0
   -0.8682   -1.5605   -1.1357 O   0  0  0  0  0  0  0  0  0  0  0  0
   -2.6846    0.9860   -0.2026 C   0  0  0  0  0  0  0  0  0  0  0  0
   -3.1596   -1.8442   -0.4222 H   0  0  0  0  0  0  0  0  0  0  0  0
   -3.0281    0.5069   -2.2619 H   0  0  0  0  0  0  0  0  0  0  0  0
   -2.2184    0.5499    0.6868 H   0  0  0  0  0  0  0  0  0  0  0  0
   -2.1453    1.8954   -0.4769 H   0  0  0  0  0  0  0  0  0  0  0  0
   -3.7137    1.2647    0.0444 H   0  0  0  0  0  0  0  0  0  0  0  0
   -0.2785    0.3107   -2.2111 N   0  0  0  0  0  0  0  0  0  0  0  0
    1.1038    0.3393   -1.6945 C   0  0  2  0  0  0  0  0  0  0  0  0
    1.2740    0.7401   -0.2123 C   0  0  0  0  0  0  0  0  0  0  0  0
    2.1333    0.2026    0.4722 O   0  0  0  0  0  0  0  0  0  0  0  0
    1.9128    1.2891   -2.5808 C   0  0  0  0  0  0  0  0  0  0  0  0
   -0.6363    1.1757   -2.6053 H   0  0  0  0  0  0  0  0  0  0  0  0
    1.5278   -0.6668   -1.7973 H   0  0  0  0  0  0  0  0  0  0  0  0
    1.5309    2.3121   -2.5062 H   0  0  0  0  0  0  0  0  0  0  0  0
    2.9634    1.2877   -2.2721 H   0  0  0  0  0  0  0  0  0  0  0  0
    1.8615    0.9700   -3.6264 H   0  0  0  0  0  0  0  0  0  0  0  0
    0.5898    1.8189    0.3170 N   0  0  0  0  0  0  0  0  0  0  0  0
    0.7790    2.3482    1.6742 C   0  0  2  0  0  0  0  0  0  0  0  0
   -0.4398    3.1719    2.1365 C   0  0  0  0  0  0  0  0  0  0  0  0
   -1.2314    3.6121    1.3094 O   0  0  0  0  0  0  0  0  0  0  0  0
    2.0363    3.2260    1.6942 C   0  0  0  0  0  0  0  0  0  0  0  0
   -0.1157    2.2686   -0.2614 H   0  0  0  0  0  0  0  0  0  0  0  0
    0.9047    1.5154    2.3746 H   0  0  0  0  0  0  0  0  0  0  0  0
    1.9329    4.0586    0.9908 H   0  0  0  0  0  0  0  0  0  0  0  0
    2.2032    3.6343    2.6954 H   0  0  0  0  0  0  0  0  0  0  0  0
    2.9174    2.6409    1.4132 H   0  0  0  0  0  0  0  0  0  0  0  0
   -0.6458    3.4286    3.4791 N   0  0  0  0  0  0  0  0  0  0  0  0
   -1.7642    4.2178    3.9811 C   0  0  0  0  0  0  0  0  0  0  0  0
    0.0261    3.0487    4.1403 H   0  0  0  0  0  0  0  0  0  0  0  0
   -1.7254    5.2361    3.5798 H   0  0  0  0  0  0  0  0  0  0  0  0
   -2.7165    3.7611    3.6917 H   0  0  0  0  0  0  0  0  0  0  0  0
   -1.7268    4.2753    5.0732 H   0  0  0  0  0  0  0  0  0  0  0  0
  1  2  2  0  0  0  0
  1  3  1  0  0  0  0
  1  7  1  0  0  0  0
  3  4  1  0  0  0  0
  3  5  1  0  0  0  0
  3  6  1  0  0  0  0
  7  8  1  0  0  0  0
  7 12  1  0  0  0  0
  8  9  1  0  0  0  0
  8 11  1  0  0  0  0
  8 13  1  0  0  0  0
  9 10  2  0  0  0  0
  9 17  1  0  0  0  0
 11 14  1  0  0  0  0
 11 15  1  0  0  0  0
 11 16  1  0  0  0  0
 17 18  1  0  0  0  0
 17 22  1  0  0  0  0
 18 19  1  0  0  0  0
 18 21  1  0  0  0  0
 18 23  1  0  0  0  0
 19 20  2  0  0  0  0
 19 27  1  0  0  0  0
 21 24  1  0  0  0  0
 21 25  1  0  0  0  0
 21 26  1  0  0  0  0
 27 28  1  0  0  0  0
 27 32  1  0  0  0  0
 28 29  1  0  0  0  0
 28 31  1  0  0  0  0
 28 33  1  0  0  0  0
 29 30  2  0  0  0  0
 29 37  1  0  0  0  0
 31 34  1  0  0  0  0
 31 35  1  0  0  0  0
 31 36  1  0  0  0  0
 37 38  1  0  0  0  0
 37 39  1  0  0  0  0
 38 40  1  0  0  0  0
 38 41  1  0  0  0  0
 38 42  1  0  0  0  0
M  END
$$$$

  -OEChem-02062319043D

 42 41  0     1  0  0  0  0  0999 V2000
   -4.7195   -1.0654   -1.3821 C   0  0  0  0  0  0  0  0  0  0  0  0
   -5.2066   -0.1961   -2.0877 O   0  0  0  0  0  0  0  0  0  0  0  0
   -5.5257   -2.3028   -1.0352 C   0  0  0  0  0  0  0  0  0  0  0  0
   -5.6929   -2.3493    0.0436 H   0  0  0  0  0  0  0  0  0  0  0  0
   -6.4945   -2.2753   -1.5415 H   0  0  0  0  0  0  0  0  0  0  0  0
   -4.9882   -3.1996   -1.3528 H   0  0  0  0  0  0  0  0  0  0  0  0
   -3.4303   -0.9343   -0.9110 N   0  0  0  0  0  0  0  0  0  0  0  0
   -2.4931    0.1110   -1.3430 C   0  0  2  0  0  0  0  0  0  0  0  0
   -1.0875   -0.4706   -1.6055 C   0  0  0  0  0  0  0  0  0  0  0  0
   -0.7731   -1.5434   -1.1058 O   0  0  0  0  0  0  0  0  0  0  0  0
   -2.4538    1.1873   -0.2567 C   0  0  0  0  0  0  0  0  0  0  0  0
   -3.0211   -1.7494   -0.4553 H   0  0  0  0  0  0  0  0  0  0  0  0
   -2.8371    0.5617   -2.2798 H   0  0  0  0  0  0  0  0  0  0  0  0
   -2.0780    0.7705    0.6835 H   0  0  0  0  0  0  0  0  0  0  0  0
   -1.8048    2.0148   -0.5572 H   0  0  0  0  0  0  0  0  0  0  0  0
   -3.4582    1.5868   -0.0831 H   0  0  0  0  0  0  0  0  0  0  0  0
   -0.1042    0.2987   -2.2031 N   0  0  0  0  0  0  0  0  0  0  0  0
    1.3310    0.1063   -1.9277 C   0  0  2  0  0  0  0  0  0  0  0  0
    1.7416    0.2985   -0.4513 C   0  0  0  0  0  0  0  0  0  0  0  0
    2.6217   -0.3965    0.0376 O   0  0  0  0  0  0  0  0  0  0  0  0
    2.1185    1.0644   -2.8243 C   0  0  0  0  0  0  0  0  0  0  0  0
   -0.4009    1.2067   -2.5486 H   0  0  0  0  0  0  0  0  0  0  0  0
    1.6014   -0.9209   -2.2004 H   0  0  0  0  0  0  0  0  0  0  0  0
    1.8857    2.1055   -2.5802 H   0  0  0  0  0  0  0  0  0  0  0  0
    3.1939    0.9083   -2.6888 H   0  0  0  0  0  0  0  0  0  0  0  0
    1.8755    0.8871   -3.8766 H   0  0  0  0  0  0  0  0  0  0  0  0
    1.2635    1.3728    0.2757 N   0  0  0  0  0  0  0  0  0  0  0  0
    1.5536    1.6045    1.6957 C   0  0  2  0  0  0  0  0  0  0  0  0
    0.3703    2.2971    2.4020 C   0  0  0  0  0  0  0  0  0  0  0  0
   -0.4810    2.8810    1.7389 O   0  0  0  0  0  0  0  0  0  0  0  0
    2.8200    2.4596    1.8005 C   0  0  0  0  0  0  0  0  0  0  0  0
    0.4884    1.8981   -0.1226 H   0  0  0  0  0  0  0  0  0  0  0  0
    1.7217    0.6459    2.1984 H   0  0  0  0  0  0  0  0  0  0  0  0
    2.6728    3.4244    1.3045 H   0  0  0  0  0  0  0  0  0  0  0  0
    3.0759    2.6408    2.8488 H   0  0  0  0  0  0  0  0  0  0  0  0
    3.6630    1.9484    1.3243 H   0  0  0  0  0  0  0  0  0  0  0  0
    0.2429    2.2463    3.7777 N   0  0  0  0  0  0  0  0  0  0  0  0
   -0.8843    2.8247    4.4995 C   0  0  0  0  0  0  0  0  0  0  0  0
    0.9434    1.7237    4.2960 H   0  0  0  0  0  0  0  0  0  0  0  0
   -0.9335    3.9058    4.3324 H   0  0  0  0  0  0  0  0  0  0  0  0
   -1.8248    2.3734    4.1666 H   0  0  0  0  0  0  0  0  0  0  0  0
   -0.7780    2.6465    5.5739 H   0  0  0  0  0  0  0  0  0  0  0  0
  1  2  2  0  0  0  0
  1  3  1  0  0  0  0
  1  7  1  0  0  0  0
  3  4  1  0  0  0  0
  3  5  1  0  0  0  0
  3  6  1  0  0  0  0
  7  8  1  0  0  0  0
  7 12  1  0  0  0  0
  8  9  1  0  0  0  0
  8 11  1  0  0  0  0
  8 13  1  0  0  0  0
  9 10  2  0  0  0  0
  9 17  1  0  0  0  0
 11 14  1  0  0  0  0
 11 15  1  0  0  0  0
 11 16  1  0  0  0  0
 17 18  1  0  0  0  0
 17 22  1  0  0  0  0
 18 19  1  0  0  0  0
 18 21  1  0  0  0  0
 18 23  1  0  0  0  0
 19 20  2  0  0  0  0
 19 27  1  0  0  0  0
 21 24  1  0  0  0  0
 21 25  1  0  0  0  0
 21 26  1  0  0  0  0
 27 28  1  0  0  0  0
 27 32  1  0  0  0  0
 28 29  1  0  0  0  0
 28 31  1  0  0  0  0
 28 33  1  0  0  0  0
 29 30  2  0  0  0  0
 29 37  1  0  0  0  0
 31 34  1  0  0  0  0
 31 35  1  0  0  0  0
 31 36  1  0  0  0  0
 37 38  1  0  0  0  0
 37 39  1  0  0  0  0
 38 40  1  0  0  0  0
 38 41  1  0  0  0  0
 38 42  1  0  0  0  0
M  END
$$$$

  -OEChem-02062319043D

 42 41  0     1  0  0  0  0  0999 V2000
   -4.6722   -0.8898   -1.3145 C   0  0  0  0  0  0  0  0  0  0  0  0
   -5.0886    0.0046   -2.0338 O   0  0  0  0  0  0  0  0  0  0  0  0
   -5.5331   -2.1088   -1.0406 C   0  0  0  0  0  0  0  0  0  0  0  0
   -5.7006   -2.2134    0.0341 H   0  0  0  0  0  0  0  0  0  0  0  0
   -6.5009   -2.0078   -1.5396 H   0  0  0  0  0  0  0  0  0  0  0  0
   -5.0360   -3.0076   -1.4137 H   0  0  0  0  0  0  0  0  0  0  0  0
   -3.4146   -0.8049   -0.7556 N   0  0  0  0  0  0  0  0  0  0  0  0
   -2.4195    0.2186   -1.1021 C   0  0  2  0  0  0  0  0  0  0  0  0
   -1.0484   -0.4164   -1.4125 C   0  0  0  0  0  0  0  0  0  0  0  0
   -0.7643   -1.5143   -0.9505 O   0  0  0  0  0  0  0  0  0  0  0  0
   -2.3132    1.1883    0.0769 C   0  0  0  0  0  0  0  0  0  0  0  0
   -3.0586   -1.6458   -0.3029 H   0  0  0  0  0  0  0  0  0  0  0  0
   -2.7339    0.7724   -1.9930 H   0  0  0  0  0  0  0  0  0  0  0  0
   -1.9801    0.6629    0.9780 H   0  0  0  0  0  0  0  0  0  0  0  0
   -1.5984    1.9866   -0.1429 H   0  0  0  0  0  0  0  0  0  0  0  0
   -3.2866    1.6454    0.2801 H   0  0  0  0  0  0  0  0  0  0  0  0
   -0.0878    0.2877   -2.1175 N   0  0  0  0  0  0  0  0  0  0  0  0
    1.3302   -0.1079   -2.1814 C   0  0  2  0  0  0  0  0  0  0  0  0
    2.0274   -0.1561   -0.8050 C   0  0  0  0  0  0  0  0  0  0  0  0
    2.8727   -1.0074   -0.5640 O   0  0  0  0  0  0  0  0  0  0  0  0
    2.0594    0.8625   -3.1132 C   0  0  0  0  0  0  0  0  0  0  0  0
   -0.3529    1.2059   -2.4622 H   0  0  0  0  0  0  0  0  0  0  0  0
    1.3939   -1.1153   -2.6086 H   0  0  0  0  0  0  0  0  0  0  0  0
    2.0255    1.8820   -2.7162 H   0  0  0  0  0  0  0  0  0  0  0  0
    3.1080    0.5656   -3.2189 H   0  0  0  0  0  0  0  0  0  0  0  0
    1.5989    0.8559   -4.1059 H   0  0  0  0  0  0  0  0  0  0  0  0
    1.8335    0.8736    0.0957 N   0  0  0  0  0  0  0  0  0  0  0  0
    2.2719    0.8241    1.4942 C   0  0  2  0  0  0  0  0  0  0  0  0
    1.1905    1.4067    2.4269 C   0  0  0  0  0  0  0  0  0  0  0  0
    0.2976    2.1111    1.9645 O   0  0  0  0  0  0  0  0  0  0  0  0
    3.5814    1.6063    1.6184 C   0  0  0  0  0  0  0  0  0  0  0  0
    1.0474    1.4906   -0.0988 H   0  0  0  0  0  0  0  0  0  0  0  0
    2.4412   -0.2150    1.7969 H   0  0  0  0  0  0  0  0  0  0  0  0
    3.4344    2.6503    1.3237 H   0  0  0  0  0  0  0  0  0  0  0  0
    3.9468    1.5821    2.6493 H   0  0  0  0  0  0  0  0  0  0  0  0
    4.3455    1.1649    0.9707 H   0  0  0  0  0  0  0  0  0  0  0  0
    1.1998    1.1252    3.7802 N   0  0  0  0  0  0  0  0  0  0  0  0
    0.1657    1.5882    4.6977 C   0  0  0  0  0  0  0  0  0  0  0  0
    1.9178    0.4939    4.1249 H   0  0  0  0  0  0  0  0  0  0  0  0
    0.1274    2.6826    4.7114 H   0  0  0  0  0  0  0  0  0  0  0  0
   -0.8142    1.2048    4.3944 H   0  0  0  0  0  0  0  0  0  0  0  0
    0.3743    1.2376    5.7131 H   0  0  0  0  0  0  0  0  0  0  0  0
  1  2  2  0  0  0  0
  1  3  1  0  0  0  0
  1  7  1  0  0  0  0
  3  4  1  0  0  0  0
  3  5  1  0  0  0  0
  3  6  1  0  0  0  0
  7  8  1  0  0  0  0
  7 12  1  0  0  0  0
  8  9  1  0  0  0  0
  8 11  1  0  0  0  0
  8 13  1  0  0  0  0
  9 10  2  0  0  0  0
  9 17  1  0  0  0  0
 11 14  1  0  0  0  0
 11 15  1  0  0  0  0
 11 16  1  0  0  0  0
 17 18  1  0  0  0  0
 17 22  1  0  0  0  0
 18 19  1  0  0  0  0
 18 21  1  0  0  0  0
 18 23  1  0  0  0  0
 19 20  2  0  0  0  0
 19 27  1  0  0  0  0
 21 24  1  0  0  0  0
 21 25  1  0  0  0  0
 21 26  1  0  0  0  0
 27 28  1  0  0  0  0
 27 32  1  0  0  0  0
 28 29  1  0  0  0  0
 28 31  1  0  0  0  0
 28 33  1  0  0  0  0
 29 30  2  0  0  0  0
 29 37  1  0  0  0  0
 31 34  1  0  0  0  0
 31 35  1  0  0  0  0
 31 36  1  0  0  0  0
 37 38  1  0  0  0  0
 37 39  1  0  0  0  0
 38 40  1  0  0  0  0
 38 41  1  0  0  0  0
 38 42  1  0  0  0  0
M  END
$$$$
