default_name
  -OEChem-01062215323D

 27 26  0     1  0  0  0  0  0999 V2000
   -3.2406   -3.5400    1.2326 H   0  0  0  0  0  0  0  0  0  0  0  0
   -3.1436   -2.6190    0.6606 C   0  0  0  0  0  0  0  0  0  0  0  0
   -3.8786   -1.8920    0.9996 H   0  0  0  0  0  0  0  0  0  0  0  0
   -3.2846   -2.8280   -0.3984 H   0  0  0  0  0  0  0  0  0  0  0  0
   -1.7586   -2.0580    0.8686 C   0  0  0  0  0  0  0  0  0  0  0  0
   -0.9666   -2.6340    1.6026 O   0  0  0  0  0  0  0  0  0  0  0  0
   -1.4866   -0.9220    0.2366 N   0  0  0  0  0  0  0  0  0  0  0  0
   -2.2166   -0.4790   -0.2994 H   0  0  0  0  0  0  0  0  0  0  0  0
   -0.1956   -0.2250    0.2596 C   0  0  1  0  0  0  0  0  0  0  0  0
    0.0257    0.0710    1.2854 H   0  0  0  0  0  0  0  0  0  0  0  0
    0.9121   -1.1978   -0.1927 C   0  0  0  0  0  0  0  0  0  0  0  0
    0.6159   -1.6210   -1.1539 H   0  0  0  0  0  0  0  0  0  0  0  0
    1.8423   -0.6449   -0.3315 H   0  0  0  0  0  0  0  0  0  0  0  0
    1.1537   -2.3521    0.7945 C   0  0  0  0  0  0  0  0  0  0  0  0
    1.4447   -1.9387    1.7632 H   0  0  0  0  0  0  0  0  0  0  0  0
    0.2127   -2.8924    0.9275 H   0  0  0  0  0  0  0  0  0  0  0  0
    2.2402   -3.3339    0.3313 C   0  0  0  0  0  0  0  0  0  0  0  0
    2.7150   -3.1954   -0.8185 O   0  5  0  0  0  0  0  0  0  0  0  0
    2.5993   -4.2033    1.1562 O   0  0  0  0  0  0  0  0  0  0  0  0
   -0.2536    1.0616   -0.5899 C   0  0  0  0  0  0  0  0  0  0  0  0
   -1.2968    1.3932   -1.1570 O   0  0  0  0  0  0  0  0  0  0  0  0
    0.8593    1.8035   -0.6609 N   0  0  0  0  0  0  0  0  0  0  0  0
    1.6894    1.4413   -0.2158 H   0  0  0  0  0  0  0  0  0  0  0  0
    0.9749    3.0362   -1.4358 C   0  0  0  0  0  0  0  0  0  0  0  0
    0.1542    3.7092   -1.1817 H   0  0  0  0  0  0  0  0  0  0  0  0
    1.9267    3.5253   -1.2233 H   0  0  0  0  0  0  0  0  0  0  0  0
    0.9185    2.8016   -2.5005 H   0  0  0  0  0  0  0  0  0  0  0  0
  5  6  2  0  0  0  0
  5  7  1  0  0  0  0
  2  3  1  0  0  0  0
  2  4  1  0  0  0  0
  2  5  1  0  0  0  0
  1  2  1  0  0  0  0
 20 21  2  0  0  0  0
 20 22  1  0  0  0  0
 17 18  1  0  0  0  0
 17 19  2  0  0  0  0
 14 15  1  0  0  0  0
 14 16  1  0  0  0  0
 14 17  1  0  0  0  0
 11 12  1  0  0  0  0
 11 13  1  0  0  0  0
 11 14  1  0  0  0  0
  9 10  1  0  0  0  0
  9 11  1  0  0  0  0
  9 20  1  0  0  0  0
  7  8  1  0  0  0  0
  7  9  1  0  0  0  0
 24 25  1  0  0  0  0
 24 26  1  0  0  0  0
 24 27  1  0  0  0  0
 22 23  1  0  0  0  0
 22 24  1  0  0  0  0
M  CHG  1  18  -1
M  END
$$$$
default_name
  -OEChem-01062215323D

 27 26  0     1  0  0  0  0  0999 V2000
   -3.2406   -3.5400    1.2326 H   0  0  0  0  0  0  0  0  0  0  0  0
   -3.1436   -2.6190    0.6606 C   0  0  0  0  0  0  0  0  0  0  0  0
   -3.8786   -1.8920    0.9996 H   0  0  0  0  0  0  0  0  0  0  0  0
   -3.2846   -2.8280   -0.3984 H   0  0  0  0  0  0  0  0  0  0  0  0
   -1.7586   -2.0580    0.8686 C   0  0  0  0  0  0  0  0  0  0  0  0
   -0.9666   -2.6340    1.6026 O   0  0  0  0  0  0  0  0  0  0  0  0
   -1.4866   -0.9220    0.2366 N   0  0  0  0  0  0  0  0  0  0  0  0
   -2.2166   -0.4790   -0.2994 H   0  0  0  0  0  0  0  0  0  0  0  0
   -0.1956   -0.2250    0.2596 C   0  0  1  0  0  0  0  0  0  0  0  0
    0.0257    0.0710    1.2854 H   0  0  0  0  0  0  0  0  0  0  0  0
    0.9121   -1.1978   -0.1927 C   0  0  0  0  0  0  0  0  0  0  0  0
    0.6159   -1.6210   -1.1539 H   0  0  0  0  0  0  0  0  0  0  0  0
    1.8423   -0.6449   -0.3315 H   0  0  0  0  0  0  0  0  0  0  0  0
    1.1537   -2.3521    0.7945 C   0  0  0  0  0  0  0  0  0  0  0  0
    1.4447   -1.9387    1.7632 H   0  0  0  0  0  0  0  0  0  0  0  0
    0.2127   -2.8924    0.9275 H   0  0  0  0  0  0  0  0  0  0  0  0
    2.2402   -3.3339    0.3313 C   0  0  0  0  0  0  0  0  0  0  0  0
    2.7150   -3.1954   -0.8185 O   0  5  0  0  0  0  0  0  0  0  0  0
    2.5993   -4.2033    1.1562 O   0  0  0  0  0  0  0  0  0  0  0  0
   -0.2536    1.0616   -0.5899 C   0  0  0  0  0  0  0  0  0  0  0  0
   -1.3372    1.5429   -0.9276 O   0  0  0  0  0  0  0  0  0  0  0  0
    0.9110    1.6364   -0.9175 N   0  0  0  0  0  0  0  0  0  0  0  0
    1.7580    1.1562   -0.6523 H   0  0  0  0  0  0  0  0  0  0  0  0
    1.0293    2.8443   -1.7301 C   0  0  0  0  0  0  0  0  0  0  0  0
    0.3867    3.6266   -1.3226 H   0  0  0  0  0  0  0  0  0  0  0  0
    2.0638    3.1904   -1.7398 H   0  0  0  0  0  0  0  0  0  0  0  0
    0.7110    2.6265   -2.7514 H   0  0  0  0  0  0  0  0  0  0  0  0
  5  6  2  0  0  0  0
  5  7  1  0  0  0  0
  2  3  1  0  0  0  0
  2  4  1  0  0  0  0
  2  5  1  0  0  0  0
  1  2  1  0  0  0  0
 20 21  2  0  0  0  0
 20 22  1  0  0  0  0
 17 18  1  0  0  0  0
 17 19  2  0  0  0  0
 14 15  1  0  0  0  0
 14 16  1  0  0  0  0
 14 17  1  0  0  0  0
 11 12  1  0  0  0  0
 11 13  1  0  0  0  0
 11 14  1  0  0  0  0
  9 10  1  0  0  0  0
  9 11  1  0  0  0  0
  9 20  1  0  0  0  0
  7  8  1  0  0  0  0
  7  9  1  0  0  0  0
 24 25  1  0  0  0  0
 24 26  1  0  0  0  0
 24 27  1  0  0  0  0
 22 23  1  0  0  0  0
 22 24  1  0  0  0  0
M  CHG  1  18  -1
M  END
$$$$
default_name
  -OEChem-01062215323D

 27 26  0     1  0  0  0  0  0999 V2000
   -3.2406   -3.5400    1.2326 H   0  0  0  0  0  0  0  0  0  0  0  0
   -3.1436   -2.6190    0.6606 C   0  0  0  0  0  0  0  0  0  0  0  0
   -3.8786   -1.8920    0.9996 H   0  0  0  0  0  0  0  0  0  0  0  0
   -3.2846   -2.8280   -0.3984 H   0  0  0  0  0  0  0  0  0  0  0  0
   -1.7586   -2.0580    0.8686 C   0  0  0  0  0  0  0  0  0  0  0  0
   -0.9666   -2.6340    1.6026 O   0  0  0  0  0  0  0  0  0  0  0  0
   -1.4866   -0.9220    0.2366 N   0  0  0  0  0  0  0  0  0  0  0  0
   -2.2166   -0.4790   -0.2994 H   0  0  0  0  0  0  0  0  0  0  0  0
   -0.1956   -0.2250    0.2596 C   0  0  1  0  0  0  0  0  0  0  0  0
    0.0257    0.0710    1.2854 H   0  0  0  0  0  0  0  0  0  0  0  0
    0.9121   -1.1978   -0.1927 C   0  0  0  0  0  0  0  0  0  0  0  0
    0.6159   -1.6210   -1.1539 H   0  0  0  0  0  0  0  0  0  0  0  0
    1.8423   -0.6449   -0.3315 H   0  0  0  0  0  0  0  0  0  0  0  0
    1.1537   -2.3521    0.7945 C   0  0  0  0  0  0  0  0  0  0  0  0
    1.4447   -1.9387    1.7632 H   0  0  0  0  0  0  0  0  0  0  0  0
    0.2127   -2.8924    0.9275 H   0  0  0  0  0  0  0  0  0  0  0  0
    2.2402   -3.3339    0.3313 C   0  0  0  0  0  0  0  0  0  0  0  0
    2.7150   -3.1954   -0.8185 O   0  5  0  0  0  0  0  0  0  0  0  0
    2.5993   -4.2033    1.1562 O   0  0  0  0  0  0  0  0  0  0  0  0
   -0.2536    1.0616   -0.5899 C   0  0  0  0  0  0  0  0  0  0  0  0
   -1.3053    1.6955   -0.6987 O   0  0  0  0  0  0  0  0  0  0  0  0
    0.8817    1.4651   -1.1748 N   0  0  0  0  0  0  0  0  0  0  0  0
    1.6895    0.8667   -1.0860 H   0  0  0  0  0  0  0  0  0  0  0  0
    0.9909    2.6483   -2.0243 C   0  0  0  0  0  0  0  0  0  0  0  0
    0.5691    3.5124   -1.5081 H   0  0  0  0  0  0  0  0  0  0  0  0
    2.0371    2.8424   -2.2651 H   0  0  0  0  0  0  0  0  0  0  0  0
    0.4315    2.4845   -2.9474 H   0  0  0  0  0  0  0  0  0  0  0  0
  5  6  2  0  0  0  0
  5  7  1  0  0  0  0
  2  3  1  0  0  0  0
  2  4  1  0  0  0  0
  2  5  1  0  0  0  0
  1  2  1  0  0  0  0
 20 21  2  0  0  0  0
 20 22  1  0  0  0  0
 17 18  1  0  0  0  0
 17 19  2  0  0  0  0
 14 15  1  0  0  0  0
 14 16  1  0  0  0  0
 14 17  1  0  0  0  0
 11 12  1  0  0  0  0
 11 13  1  0  0  0  0
 11 14  1  0  0  0  0
  9 10  1  0  0  0  0
  9 11  1  0  0  0  0
  9 20  1  0  0  0  0
  7  8  1  0  0  0  0
  7  9  1  0  0  0  0
 24 25  1  0  0  0  0
 24 26  1  0  0  0  0
 24 27  1  0  0  0  0
 22 23  1  0  0  0  0
 22 24  1  0  0  0  0
M  CHG  1  18  -1
M  END
$$$$
default_name
  -OEChem-01062215323D

 27 26  0     1  0  0  0  0  0999 V2000
   -3.2406   -3.5400    1.2326 H   0  0  0  0  0  0  0  0  0  0  0  0
   -3.1436   -2.6190    0.6606 C   0  0  0  0  0  0  0  0  0  0  0  0
   -3.8786   -1.8920    0.9996 H   0  0  0  0  0  0  0  0  0  0  0  0
   -3.2846   -2.8280   -0.3984 H   0  0  0  0  0  0  0  0  0  0  0  0
   -1.7586   -2.0580    0.8686 C   0  0  0  0  0  0  0  0  0  0  0  0
   -0.9666   -2.6340    1.6026 O   0  0  0  0  0  0  0  0  0  0  0  0
   -1.4866   -0.9220    0.2366 N   0  0  0  0  0  0  0  0  0  0  0  0
   -2.2166   -0.4790   -0.2994 H   0  0  0  0  0  0  0  0  0  0  0  0
   -0.1956   -0.2250    0.2596 C   0  0  1  0  0  0  0  0  0  0  0  0
    0.0257    0.0710    1.2854 H   0  0  0  0  0  0  0  0  0  0  0  0
    0.9121   -1.1978   -0.1927 C   0  0  0  0  0  0  0  0  0  0  0  0
    0.6159   -1.6210   -1.1539 H   0  0  0  0  0  0  0  0  0  0  0  0
    1.8423   -0.6449   -0.3315 H   0  0  0  0  0  0  0  0  0  0  0  0
    1.1537   -2.3521    0.7945 C   0  0  0  0  0  0  0  0  0  0  0  0
    1.4447   -1.9387    1.7632 H   0  0  0  0  0  0  0  0  0  0  0  0
    0.2127   -2.8924    0.9275 H   0  0  0  0  0  0  0  0  0  0  0  0
    2.2402   -3.3339    0.3313 C   0  0  0  0  0  0  0  0  0  0  0  0
    2.7150   -3.1954   -0.8185 O   0  5  0  0  0  0  0  0  0  0  0  0
    2.5993   -4.2033    1.1562 O   0  0  0  0  0  0  0  0  0  0  0  0
   -0.2536    1.0616   -0.5899 C   0  0  0  0  0  0  0  0  0  0  0  0
   -1.2034    1.8405   -0.4860 O   0  0  0  0  0  0  0  0  0  0  0  0
    0.7735    1.3014   -1.4154 N   0  0  0  0  0  0  0  0  0  0  0  0
    1.4884    0.5927   -1.4872 H   0  0  0  0  0  0  0  0  0  0  0  0
    0.8625    2.4616   -2.2982 C   0  0  0  0  0  0  0  0  0  0  0  0
    0.6890    3.3742   -1.7255 H   0  0  0  0  0  0  0  0  0  0  0  0
    1.8483    2.5049   -2.7633 H   0  0  0  0  0  0  0  0  0  0  0  0
    0.0990    2.3853   -3.0749 H   0  0  0  0  0  0  0  0  0  0  0  0
  5  6  2  0  0  0  0
  5  7  1  0  0  0  0
  2  3  1  0  0  0  0
  2  4  1  0  0  0  0
  2  5  1  0  0  0  0
  1  2  1  0  0  0  0
 20 21  2  0  0  0  0
 20 22  1  0  0  0  0
 17 18  1  0  0  0  0
 17 19  2  0  0  0  0
 14 15  1  0  0  0  0
 14 16  1  0  0  0  0
 14 17  1  0  0  0  0
 11 12  1  0  0  0  0
 11 13  1  0  0  0  0
 11 14  1  0  0  0  0
  9 10  1  0  0  0  0
  9 11  1  0  0  0  0
  9 20  1  0  0  0  0
  7  8  1  0  0  0  0
  7  9  1  0  0  0  0
 24 25  1  0  0  0  0
 24 26  1  0  0  0  0
 24 27  1  0  0  0  0
 22 23  1  0  0  0  0
 22 24  1  0  0  0  0
M  CHG  1  18  -1
M  END
$$$$
default_name
  -OEChem-01062215323D

 27 26  0     1  0  0  0  0  0999 V2000
   -3.2406   -3.5400    1.2326 H   0  0  0  0  0  0  0  0  0  0  0  0
   -3.1436   -2.6190    0.6606 C   0  0  0  0  0  0  0  0  0  0  0  0
   -3.8786   -1.8920    0.9996 H   0  0  0  0  0  0  0  0  0  0  0  0
   -3.2846   -2.8280   -0.3984 H   0  0  0  0  0  0  0  0  0  0  0  0
   -1.7586   -2.0580    0.8686 C   0  0  0  0  0  0  0  0  0  0  0  0
   -0.9666   -2.6340    1.6026 O   0  0  0  0  0  0  0  0  0  0  0  0
   -1.4866   -0.9220    0.2366 N   0  0  0  0  0  0  0  0  0  0  0  0
   -2.2166   -0.4790   -0.2994 H   0  0  0  0  0  0  0  0  0  0  0  0
   -0.1956   -0.2250    0.2596 C   0  0  1  0  0  0  0  0  0  0  0  0
    0.0257    0.0710    1.2854 H   0  0  0  0  0  0  0  0  0  0  0  0
    0.9121   -1.1978   -0.1927 C   0  0  0  0  0  0  0  0  0  0  0  0
    0.6159   -1.6210   -1.1539 H   0  0  0  0  0  0  0  0  0  0  0  0
    1.8423   -0.6449   -0.3315 H   0  0  0  0  0  0  0  0  0  0  0  0
    1.1537   -2.3521    0.7945 C   0  0  0  0  0  0  0  0  0  0  0  0
    1.4447   -1.9387    1.7632 H   0  0  0  0  0  0  0  0  0  0  0  0
    0.2127   -2.8924    0.9275 H   0  0  0  0  0  0  0  0  0  0  0  0
    2.2402   -3.3339    0.3313 C   0  0  0  0  0  0  0  0  0  0  0  0
    2.7150   -3.1954   -0.8185 O   0  5  0  0  0  0  0  0  0  0  0  0
    2.5993   -4.2033    1.1562 O   0  0  0  0  0  0  0  0  0  0  0  0
   -0.2536    1.0616   -0.5899 C   0  0  0  0  0  0  0  0  0  0  0  0
   -1.0384    1.9682   -0.3039 O   0  0  0  0  0  0  0  0  0  0  0  0
    0.5937    1.1563   -1.6229 N   0  0  0  0  0  0  0  0  0  0  0  0
    1.1685    0.3527   -1.8288 H   0  0  0  0  0  0  0  0  0  0  0  0
    0.6526    2.2969   -2.5333 C   0  0  0  0  0  0  0  0  0  0  0  0
    0.7381    3.2216   -1.9601 H   0  0  0  0  0  0  0  0  0  0  0  0
    1.5103    2.2009   -3.2005 H   0  0  0  0  0  0  0  0  0  0  0  0
   -0.2638    2.3355   -3.1254 H   0  0  0  0  0  0  0  0  0  0  0  0
  5  6  2  0  0  0  0
  5  7  1  0  0  0  0
  2  3  1  0  0  0  0
  2  4  1  0  0  0  0
  2  5  1  0  0  0  0
  1  2  1  0  0  0  0
 20 21  2  0  0  0  0
 20 22  1  0  0  0  0
 17 18  1  0  0  0  0
 17 19  2  0  0  0  0
 14 15  1  0  0  0  0
 14 16  1  0  0  0  0
 14 17  1  0  0  0  0
 11 12  1  0  0  0  0
 11 13  1  0  0  0  0
 11 14  1  0  0  0  0
  9 10  1  0  0  0  0
  9 11  1  0  0  0  0
  9 20  1  0  0  0  0
  7  8  1  0  0  0  0
  7  9  1  0  0  0  0
 24 25  1  0  0  0  0
 24 26  1  0  0  0  0
 24 27  1  0  0  0  0
 22 23  1  0  0  0  0
 22 24  1  0  0  0  0
M  CHG  1  18  -1
M  END
$$$$
default_name
  -OEChem-01062215323D

 27 26  0     1  0  0  0  0  0999 V2000
   -3.2406   -3.5400    1.2326 H   0  0  0  0  0  0  0  0  0  0  0  0
   -3.1436   -2.6190    0.6606 C   0  0  0  0  0  0  0  0  0  0  0  0
   -3.8786   -1.8920    0.9996 H   0  0  0  0  0  0  0  0  0  0  0  0
   -3.2846   -2.8280   -0.3984 H   0  0  0  0  0  0  0  0  0  0  0  0
   -1.7586   -2.0580    0.8686 C   0  0  0  0  0  0  0  0  0  0  0  0
   -0.9666   -2.6340    1.6026 O   0  0  0  0  0  0  0  0  0  0  0  0
   -1.4866   -0.9220    0.2366 N   0  0  0  0  0  0  0  0  0  0  0  0
   -2.2166   -0.4790   -0.2994 H   0  0  0  0  0  0  0  0  0  0  0  0
   -0.1956   -0.2250    0.2596 C   0  0  1  0  0  0  0  0  0  0  0  0
    0.0257    0.0710    1.2854 H   0  0  0  0  0  0  0  0  0  0  0  0
    0.9121   -1.1978   -0.1927 C   0  0  0  0  0  0  0  0  0  0  0  0
    0.6159   -1.6210   -1.1539 H   0  0  0  0  0  0  0  0  0  0  0  0
    1.8423   -0.6449   -0.3315 H   0  0  0  0  0  0  0  0  0  0  0  0
    1.1537   -2.3521    0.7945 C   0  0  0  0  0  0  0  0  0  0  0  0
    1.4447   -1.9387    1.7632 H   0  0  0  0  0  0  0  0  0  0  0  0
    0.2127   -2.8924    0.9275 H   0  0  0  0  0  0  0  0  0  0  0  0
    2.2402   -3.3339    0.3313 C   0  0  0  0  0  0  0  0  0  0  0  0
    2.7150   -3.1954   -0.8185 O   0  5  0  0  0  0  0  0  0  0  0  0
    2.5993   -4.2033    1.1562 O   0  0  0  0  0  0  0  0  0  0  0  0
   -0.2536    1.0616   -0.5899 C   0  0  0  0  0  0  0  0  0  0  0  0
   -0.8215    2.0698   -0.1649 O   0  0  0  0  0  0  0  0  0  0  0  0
    0.3546    1.0397   -1.7831 N   0  0  0  0  0  0  0  0  0  0  0  0
    0.7516    0.1632   -2.0873 H   0  0  0  0  0  0  0  0  0  0  0  0
    0.3757    2.1654   -2.7135 C   0  0  0  0  0  0  0  0  0  0  0  0
    0.7132    3.0649   -2.1957 H   0  0  0  0  0  0  0  0  0  0  0  0
    1.0462    1.9512   -3.5470 H   0  0  0  0  0  0  0  0  0  0  0  0
   -0.6323    2.3388   -3.0953 H   0  0  0  0  0  0  0  0  0  0  0  0
  5  6  2  0  0  0  0
  5  7  1  0  0  0  0
  2  3  1  0  0  0  0
  2  4  1  0  0  0  0
  2  5  1  0  0  0  0
  1  2  1  0  0  0  0
 20 21  2  0  0  0  0
 20 22  1  0  0  0  0
 17 18  1  0  0  0  0
 17 19  2  0  0  0  0
 14 15  1  0  0  0  0
 14 16  1  0  0  0  0
 14 17  1  0  0  0  0
 11 12  1  0  0  0  0
 11 13  1  0  0  0  0
 11 14  1  0  0  0  0
  9 10  1  0  0  0  0
  9 11  1  0  0  0  0
  9 20  1  0  0  0  0
  7  8  1  0  0  0  0
  7  9  1  0  0  0  0
 24 25  1  0  0  0  0
 24 26  1  0  0  0  0
 24 27  1  0  0  0  0
 22 23  1  0  0  0  0
 22 24  1  0  0  0  0
M  CHG  1  18  -1
M  END
$$$$
default_name
  -OEChem-01062215323D

 27 26  0     1  0  0  0  0  0999 V2000
   -3.2406   -3.5400    1.2326 H   0  0  0  0  0  0  0  0  0  0  0  0
   -3.1436   -2.6190    0.6606 C   0  0  0  0  0  0  0  0  0  0  0  0
   -3.8786   -1.8920    0.9996 H   0  0  0  0  0  0  0  0  0  0  0  0
   -3.2846   -2.8280   -0.3984 H   0  0  0  0  0  0  0  0  0  0  0  0
   -1.7586   -2.0580    0.8686 C   0  0  0  0  0  0  0  0  0  0  0  0
   -0.9666   -2.6340    1.6026 O   0  0  0  0  0  0  0  0  0  0  0  0
   -1.4866   -0.9220    0.2366 N   0  0  0  0  0  0  0  0  0  0  0  0
   -2.2166   -0.4790   -0.2994 H   0  0  0  0  0  0  0  0  0  0  0  0
   -0.1956   -0.2250    0.2596 C   0  0  1  0  0  0  0  0  0  0  0  0
    0.0257    0.0710    1.2854 H   0  0  0  0  0  0  0  0  0  0  0  0
    0.9121   -1.1978   -0.1927 C   0  0  0  0  0  0  0  0  0  0  0  0
    0.6159   -1.6210   -1.1539 H   0  0  0  0  0  0  0  0  0  0  0  0
    1.8423   -0.6449   -0.3315 H   0  0  0  0  0  0  0  0  0  0  0  0
    1.1537   -2.3521    0.7945 C   0  0  0  0  0  0  0  0  0  0  0  0
    1.4447   -1.9387    1.7632 H   0  0  0  0  0  0  0  0  0  0  0  0
    0.2127   -2.8924    0.9275 H   0  0  0  0  0  0  0  0  0  0  0  0
    2.2402   -3.3339    0.3313 C   0  0  0  0  0  0  0  0  0  0  0  0
    2.7150   -3.1954   -0.8185 O   0  5  0  0  0  0  0  0  0  0  0  0
    2.5993   -4.2033    1.1562 O   0  0  0  0  0  0  0  0  0  0  0  0
   -0.2536    1.0616   -0.5899 C   0  0  0  0  0  0  0  0  0  0  0  0
   -0.5676    2.1384   -0.0784 O   0  0  0  0  0  0  0  0  0  0  0  0
    0.0725    0.9596   -1.8850 N   0  0  0  0  0  0  0  0  0  0  0  0
    0.2661    0.0370   -2.2452 H   0  0  0  0  0  0  0  0  0  0  0  0
    0.0506    2.0762   -2.8265 C   0  0  0  0  0  0  0  0  0  0  0  0
    0.6160    2.9147   -2.4165 H   0  0  0  0  0  0  0  0  0  0  0  0
    0.4875    1.7728   -3.7790 H   0  0  0  0  0  0  0  0  0  0  0  0
   -0.9813    2.3947   -2.9868 H   0  0  0  0  0  0  0  0  0  0  0  0
  5  6  2  0  0  0  0
  5  7  1  0  0  0  0
  2  3  1  0  0  0  0
  2  4  1  0  0  0  0
  2  5  1  0  0  0  0
  1  2  1  0  0  0  0
 20 21  2  0  0  0  0
 20 22  1  0  0  0  0
 17 18  1  0  0  0  0
 17 19  2  0  0  0  0
 14 15  1  0  0  0  0
 14 16  1  0  0  0  0
 14 17  1  0  0  0  0
 11 12  1  0  0  0  0
 11 13  1  0  0  0  0
 11 14  1  0  0  0  0
  9 10  1  0  0  0  0
  9 11  1  0  0  0  0
  9 20  1  0  0  0  0
  7  8  1  0  0  0  0
  7  9  1  0  0  0  0
 24 25  1  0  0  0  0
 24 26  1  0  0  0  0
 24 27  1  0  0  0  0
 22 23  1  0  0  0  0
 22 24  1  0  0  0  0
M  CHG  1  18  -1
M  END
$$$$
default_name
  -OEChem-01062215323D

 27 26  0     1  0  0  0  0  0999 V2000
   -3.2406   -3.5400    1.2326 H   0  0  0  0  0  0  0  0  0  0  0  0
   -3.1436   -2.6190    0.6606 C   0  0  0  0  0  0  0  0  0  0  0  0
   -3.8786   -1.8920    0.9996 H   0  0  0  0  0  0  0  0  0  0  0  0
   -3.2846   -2.8280   -0.3984 H   0  0  0  0  0  0  0  0  0  0  0  0
   -1.7586   -2.0580    0.8686 C   0  0  0  0  0  0  0  0  0  0  0  0
   -0.9666   -2.6340    1.6026 O   0  0  0  0  0  0  0  0  0  0  0  0
   -1.4866   -0.9220    0.2366 N   0  0  0  0  0  0  0  0  0  0  0  0
   -2.2166   -0.4790   -0.2994 H   0  0  0  0  0  0  0  0  0  0  0  0
   -0.1956   -0.2250    0.2596 C   0  0  1  0  0  0  0  0  0  0  0  0
    0.0257    0.0710    1.2854 H   0  0  0  0  0  0  0  0  0  0  0  0
    0.9121   -1.1978   -0.1927 C   0  0  0  0  0  0  0  0  0  0  0  0
    0.6159   -1.6210   -1.1539 H   0  0  0  0  0  0  0  0  0  0  0  0
    1.8423   -0.6449   -0.3315 H   0  0  0  0  0  0  0  0  0  0  0  0
    1.1537   -2.3521    0.7945 C   0  0  0  0  0  0  0  0  0  0  0  0
    1.4447   -1.9387    1.7632 H   0  0  0  0  0  0  0  0  0  0  0  0
    0.2127   -2.8924    0.9275 H   0  0  0  0  0  0  0  0  0  0  0  0
    2.2402   -3.3339    0.3313 C   0  0  0  0  0  0  0  0  0  0  0  0
    2.7150   -3.1954   -0.8185 O   0  5  0  0  0  0  0  0  0  0  0  0
    2.5993   -4.2033    1.1562 O   0  0  0  0  0  0  0  0  0  0  0  0
   -0.2536    1.0616   -0.5899 C   0  0  0  0  0  0  0  0  0  0  0  0
   -0.2938    2.1692   -0.0504 O   0  0  0  0  0  0  0  0  0  0  0  0
   -0.2334    0.9215   -1.9219 N   0  0  0  0  0  0  0  0  0  0  0  0
   -0.2549   -0.0172   -2.2917 H   0  0  0  0  0  0  0  0  0  0  0  0
   -0.3005    2.0351   -2.8646 C   0  0  0  0  0  0  0  0  0  0  0  0
    0.4530    2.7814   -2.6072 H   0  0  0  0  0  0  0  0  0  0  0  0
   -0.1276    1.6778   -3.8807 H   0  0  0  0  0  0  0  0  0  0  0  0
   -1.2869    2.4994   -2.8072 H   0  0  0  0  0  0  0  0  0  0  0  0
  5  6  2  0  0  0  0
  5  7  1  0  0  0  0
  2  3  1  0  0  0  0
  2  4  1  0  0  0  0
  2  5  1  0  0  0  0
  1  2  1  0  0  0  0
 20 21  2  0  0  0  0
 20 22  1  0  0  0  0
 17 18  1  0  0  0  0
 17 19  2  0  0  0  0
 14 15  1  0  0  0  0
 14 16  1  0  0  0  0
 14 17  1  0  0  0  0
 11 12  1  0  0  0  0
 11 13  1  0  0  0  0
 11 14  1  0  0  0  0
  9 10  1  0  0  0  0
  9 11  1  0  0  0  0
  9 20  1  0  0  0  0
  7  8  1  0  0  0  0
  7  9  1  0  0  0  0
 24 25  1  0  0  0  0
 24 26  1  0  0  0  0
 24 27  1  0  0  0  0
 22 23  1  0  0  0  0
 22 24  1  0  0  0  0
M  CHG  1  18  -1
M  END
$$$$
default_name
  -OEChem-01062215323D

 27 26  0     1  0  0  0  0  0999 V2000
   -3.2406   -3.5400    1.2326 H   0  0  0  0  0  0  0  0  0  0  0  0
   -3.1436   -2.6190    0.6606 C   0  0  0  0  0  0  0  0  0  0  0  0
   -3.8786   -1.8920    0.9996 H   0  0  0  0  0  0  0  0  0  0  0  0
   -3.2846   -2.8280   -0.3984 H   0  0  0  0  0  0  0  0  0  0  0  0
   -1.7586   -2.0580    0.8686 C   0  0  0  0  0  0  0  0  0  0  0  0
   -0.9666   -2.6340    1.6026 O   0  0  0  0  0  0  0  0  0  0  0  0
   -1.4866   -0.9220    0.2366 N   0  0  0  0  0  0  0  0  0  0  0  0
   -2.2166   -0.4790   -0.2994 H   0  0  0  0  0  0  0  0  0  0  0  0
   -0.1956   -0.2250    0.2596 C   0  0  1  0  0  0  0  0  0  0  0  0
    0.0257    0.0710    1.2854 H   0  0  0  0  0  0  0  0  0  0  0  0
    0.9121   -1.1978   -0.1927 C   0  0  0  0  0  0  0  0  0  0  0  0
    0.6159   -1.6210   -1.1539 H   0  0  0  0  0  0  0  0  0  0  0  0
    1.8423   -0.6449   -0.3315 H   0  0  0  0  0  0  0  0  0  0  0  0
    1.1537   -2.3521    0.7945 C   0  0  0  0  0  0  0  0  0  0  0  0
    1.4447   -1.9387    1.7632 H   0  0  0  0  0  0  0  0  0  0  0  0
    0.2127   -2.8924    0.9275 H   0  0  0  0  0  0  0  0  0  0  0  0
    2.2402   -3.3339    0.3313 C   0  0  0  0  0  0  0  0  0  0  0  0
    2.7150   -3.1954   -0.8185 O   0  5  0  0  0  0  0  0  0  0  0  0
    2.5993   -4.2033    1.1562 O   0  0  0  0  0  0  0  0  0  0  0  0
   -0.2536    1.0616   -0.5899 C   0  0  0  0  0  0  0  0  0  0  0  0
   -0.0189    2.1603   -0.0827 O   0  0  0  0  0  0  0  0  0  0  0  0
   -0.5423    0.9279   -1.8910 N   0  0  0  0  0  0  0  0  0  0  0  0
   -0.7760    0.0042   -2.2236 H   0  0  0  0  0  0  0  0  0  0  0  0
   -0.6538    2.0452   -2.8252 C   0  0  0  0  0  0  0  0  0  0  0  0
    0.2354    2.6740   -2.7550 H   0  0  0  0  0  0  0  0  0  0  0  0
   -0.7573    1.6727   -3.8454 H   0  0  0  0  0  0  0  0  0  0  0  0
   -1.5285    2.6460   -2.5688 H   0  0  0  0  0  0  0  0  0  0  0  0
  5  6  2  0  0  0  0
  5  7  1  0  0  0  0
  2  3  1  0  0  0  0
  2  4  1  0  0  0  0
  2  5  1  0  0  0  0
  1  2  1  0  0  0  0
 20 21  2  0  0  0  0
 20 22  1  0  0  0  0
 17 18  1  0  0  0  0
 17 19  2  0  0  0  0
 14 15  1  0  0  0  0
 14 16  1  0  0  0  0
 14 17  1  0  0  0  0
 11 12  1  0  0  0  0
 11 13  1  0  0  0  0
 11 14  1  0  0  0  0
  9 10  1  0  0  0  0
  9 11  1  0  0  0  0
  9 20  1  0  0  0  0
  7  8  1  0  0  0  0
  7  9  1  0  0  0  0
 24 25  1  0  0  0  0
 24 26  1  0  0  0  0
 24 27  1  0  0  0  0
 22 23  1  0  0  0  0
 22 24  1  0  0  0  0
M  CHG  1  18  -1
M  END
$$$$
default_name
  -OEChem-01062215323D

 27 26  0     1  0  0  0  0  0999 V2000
   -3.2406   -3.5400    1.2326 H   0  0  0  0  0  0  0  0  0  0  0  0
   -3.1436   -2.6190    0.6606 C   0  0  0  0  0  0  0  0  0  0  0  0
   -3.8786   -1.8920    0.9996 H   0  0  0  0  0  0  0  0  0  0  0  0
   -3.2846   -2.8280   -0.3984 H   0  0  0  0  0  0  0  0  0  0  0  0
   -1.7586   -2.0580    0.8686 C   0  0  0  0  0  0  0  0  0  0  0  0
   -0.9666   -2.6340    1.6026 O   0  0  0  0  0  0  0  0  0  0  0  0
   -1.4866   -0.9220    0.2366 N   0  0  0  0  0  0  0  0  0  0  0  0
   -2.2166   -0.4790   -0.2994 H   0  0  0  0  0  0  0  0  0  0  0  0
   -0.1956   -0.2250    0.2596 C   0  0  1  0  0  0  0  0  0  0  0  0
    0.0257    0.0710    1.2854 H   0  0  0  0  0  0  0  0  0  0  0  0
    0.9121   -1.1978   -0.1927 C   0  0  0  0  0  0  0  0  0  0  0  0
    0.6159   -1.6210   -1.1539 H   0  0  0  0  0  0  0  0  0  0  0  0
    1.8423   -0.6449   -0.3315 H   0  0  0  0  0  0  0  0  0  0  0  0
    1.1537   -2.3521    0.7945 C   0  0  0  0  0  0  0  0  0  0  0  0
    1.4447   -1.9387    1.7632 H   0  0  0  0  0  0  0  0  0  0  0  0
    0.2127   -2.8924    0.9275 H   0  0  0  0  0  0  0  0  0  0  0  0
    2.2402   -3.3339    0.3313 C   0  0  0  0  0  0  0  0  0  0  0  0
    2.7150   -3.1954   -0.8185 O   0  5  0  0  0  0  0  0  0  0  0  0
    2.5993   -4.2033    1.1562 O   0  0  0  0  0  0  0  0  0  0  0  0
   -0.2536    1.0616   -0.5899 C   0  0  0  0  0  0  0  0  0  0  0  0
    0.2383    2.1122   -0.1731 O   0  0  0  0  0  0  0  0  0  0  0  0
   -0.8331    0.9785   -1.7946 N   0  0  0  0  0  0  0  0  0  0  0  0
   -1.2615    0.0998   -2.0456 H   0  0  0  0  0  0  0  0  0  0  0  0
   -0.9850    2.1056   -2.7111 C   0  0  0  0  0  0  0  0  0  0  0  0
   -0.0219    2.5998   -2.8497 H   0  0  0  0  0  0  0  0  0  0  0  0
   -1.3586    1.7579   -3.6752 H   0  0  0  0  0  0  0  0  0  0  0  0
   -1.6895    2.8243   -2.2878 H   0  0  0  0  0  0  0  0  0  0  0  0
  5  6  2  0  0  0  0
  5  7  1  0  0  0  0
  2  3  1  0  0  0  0
  2  4  1  0  0  0  0
  2  5  1  0  0  0  0
  1  2  1  0  0  0  0
 20 21  2  0  0  0  0
 20 22  1  0  0  0  0
 17 18  1  0  0  0  0
 17 19  2  0  0  0  0
 14 15  1  0  0  0  0
 14 16  1  0  0  0  0
 14 17  1  0  0  0  0
 11 12  1  0  0  0  0
 11 13  1  0  0  0  0
 11 14  1  0  0  0  0
  9 10  1  0  0  0  0
  9 11  1  0  0  0  0
  9 20  1  0  0  0  0
  7  8  1  0  0  0  0
  7  9  1  0  0  0  0
 24 25  1  0  0  0  0
 24 26  1  0  0  0  0
 24 27  1  0  0  0  0
 22 23  1  0  0  0  0
 22 24  1  0  0  0  0
M  CHG  1  18  -1
M  END
$$$$
default_name
  -OEChem-01062215323D

 27 26  0     1  0  0  0  0  0999 V2000
   -3.2406   -3.5400    1.2326 H   0  0  0  0  0  0  0  0  0  0  0  0
   -3.1436   -2.6190    0.6606 C   0  0  0  0  0  0  0  0  0  0  0  0
   -3.8786   -1.8920    0.9996 H   0  0  0  0  0  0  0  0  0  0  0  0
   -3.2846   -2.8280   -0.3984 H   0  0  0  0  0  0  0  0  0  0  0  0
   -1.7586   -2.0580    0.8686 C   0  0  0  0  0  0  0  0  0  0  0  0
   -0.9666   -2.6340    1.6026 O   0  0  0  0  0  0  0  0  0  0  0  0
   -1.4866   -0.9220    0.2366 N   0  0  0  0  0  0  0  0  0  0  0  0
   -2.2166   -0.4790   -0.2994 H   0  0  0  0  0  0  0  0  0  0  0  0
   -0.1956   -0.2250    0.2596 C   0  0  1  0  0  0  0  0  0  0  0  0
    0.0257    0.0710    1.2854 H   0  0  0  0  0  0  0  0  0  0  0  0
    0.9121   -1.1978   -0.1927 C   0  0  0  0  0  0  0  0  0  0  0  0
    0.6159   -1.6210   -1.1539 H   0  0  0  0  0  0  0  0  0  0  0  0
    1.8423   -0.6449   -0.3315 H   0  0  0  0  0  0  0  0  0  0  0  0
    1.1537   -2.3521    0.7945 C   0  0  0  0  0  0  0  0  0  0  0  0
    1.4447   -1.9387    1.7632 H   0  0  0  0  0  0  0  0  0  0  0  0
    0.2127   -2.8924    0.9275 H   0  0  0  0  0  0  0  0  0  0  0  0
    2.2402   -3.3339    0.3313 C   0  0  0  0  0  0  0  0  0  0  0  0
    2.7150   -3.1954   -0.8185 O   0  5  0  0  0  0  0  0  0  0  0  0
    2.5993   -4.2033    1.1562 O   0  0  0  0  0  0  0  0  0  0  0  0
   -0.2536    1.0616   -0.5899 C   0  0  0  0  0  0  0  0  0  0  0  0
    0.4605    2.0282   -0.3155 O   0  0  0  0  0  0  0  0  0  0  0  0
   -1.0860    1.0696   -1.6393 N   0  0  0  0  0  0  0  0  0  0  0  0
   -1.6784    0.2631   -1.7698 H   0  0  0  0  0  0  0  0  0  0  0  0
   -1.2717    2.2123   -2.5299 C   0  0  0  0  0  0  0  0  0  0  0  0
   -0.3016    2.5639   -2.8850 H   0  0  0  0  0  0  0  0  0  0  0  0
   -1.8906    1.9276   -3.3819 H   0  0  0  0  0  0  0  0  0  0  0  0
   -1.7590    3.0222   -1.9834 H   0  0  0  0  0  0  0  0  0  0  0  0
  5  6  2  0  0  0  0
  5  7  1  0  0  0  0
  2  3  1  0  0  0  0
  2  4  1  0  0  0  0
  2  5  1  0  0  0  0
  1  2  1  0  0  0  0
 20 21  2  0  0  0  0
 20 22  1  0  0  0  0
 17 18  1  0  0  0  0
 17 19  2  0  0  0  0
 14 15  1  0  0  0  0
 14 16  1  0  0  0  0
 14 17  1  0  0  0  0
 11 12  1  0  0  0  0
 11 13  1  0  0  0  0
 11 14  1  0  0  0  0
  9 10  1  0  0  0  0
  9 11  1  0  0  0  0
  9 20  1  0  0  0  0
  7  8  1  0  0  0  0
  7  9  1  0  0  0  0
 24 25  1  0  0  0  0
 24 26  1  0  0  0  0
 24 27  1  0  0  0  0
 22 23  1  0  0  0  0
 22 24  1  0  0  0  0
M  CHG  1  18  -1
M  END
$$$$
default_name
  -OEChem-01062215323D

 27 26  0     1  0  0  0  0  0999 V2000
   -3.2406   -3.5400    1.2326 H   0  0  0  0  0  0  0  0  0  0  0  0
   -3.1436   -2.6190    0.6606 C   0  0  0  0  0  0  0  0  0  0  0  0
   -3.8786   -1.8920    0.9996 H   0  0  0  0  0  0  0  0  0  0  0  0
   -3.2846   -2.8280   -0.3984 H   0  0  0  0  0  0  0  0  0  0  0  0
   -1.7586   -2.0580    0.8686 C   0  0  0  0  0  0  0  0  0  0  0  0
   -0.9666   -2.6340    1.6026 O   0  0  0  0  0  0  0  0  0  0  0  0
   -1.4866   -0.9220    0.2366 N   0  0  0  0  0  0  0  0  0  0  0  0
   -2.2166   -0.4790   -0.2994 H   0  0  0  0  0  0  0  0  0  0  0  0
   -0.1956   -0.2250    0.2596 C   0  0  1  0  0  0  0  0  0  0  0  0
    0.0257    0.0710    1.2854 H   0  0  0  0  0  0  0  0  0  0  0  0
    0.9121   -1.1978   -0.1927 C   0  0  0  0  0  0  0  0  0  0  0  0
    0.6159   -1.6210   -1.1539 H   0  0  0  0  0  0  0  0  0  0  0  0
    1.8423   -0.6449   -0.3315 H   0  0  0  0  0  0  0  0  0  0  0  0
    1.1537   -2.3521    0.7945 C   0  0  0  0  0  0  0  0  0  0  0  0
    1.4447   -1.9387    1.7632 H   0  0  0  0  0  0  0  0  0  0  0  0
    0.2127   -2.8924    0.9275 H   0  0  0  0  0  0  0  0  0  0  0  0
    2.2402   -3.3339    0.3313 C   0  0  0  0  0  0  0  0  0  0  0  0
    2.7150   -3.1954   -0.8185 O   0  5  0  0  0  0  0  0  0  0  0  0
    2.5993   -4.2033    1.1562 O   0  0  0  0  0  0  0  0  0  0  0  0
   -0.2536    1.0616   -0.5899 C   0  0  0  0  0  0  0  0  0  0  0  0
    0.6323    1.9140   -0.5002 O   0  0  0  0  0  0  0  0  0  0  0  0
   -1.2838    1.1953   -1.4355 N   0  0  0  0  0  0  0  0  0  0  0  0
   -1.9984    0.4829   -1.4150 H   0  0  0  0  0  0  0  0  0  0  0  0
   -1.4944    2.3580   -2.2940 C   0  0  0  0  0  0  0  0  0  0  0  0
   -0.5844    2.5688   -2.8583 H   0  0  0  0  0  0  0  0  0  0  0  0
   -2.3170    2.1701   -2.9855 H   0  0  0  0  0  0  0  0  0  0  0  0
   -1.7321    3.2262   -1.6762 H   0  0  0  0  0  0  0  0  0  0  0  0
  5  6  2  0  0  0  0
  5  7  1  0  0  0  0
  2  3  1  0  0  0  0
  2  4  1  0  0  0  0
  2  5  1  0  0  0  0
  1  2  1  0  0  0  0
 20 21  2  0  0  0  0
 20 22  1  0  0  0  0
 17 18  1  0  0  0  0
 17 19  2  0  0  0  0
 14 15  1  0  0  0  0
 14 16  1  0  0  0  0
 14 17  1  0  0  0  0
 11 12  1  0  0  0  0
 11 13  1  0  0  0  0
 11 14  1  0  0  0  0
  9 10  1  0  0  0  0
  9 11  1  0  0  0  0
  9 20  1  0  0  0  0
  7  8  1  0  0  0  0
  7  9  1  0  0  0  0
 24 25  1  0  0  0  0
 24 26  1  0  0  0  0
 24 27  1  0  0  0  0
 22 23  1  0  0  0  0
 22 24  1  0  0  0  0
M  CHG  1  18  -1
M  END
$$$$
default_name
  -OEChem-01062215323D

 27 26  0     1  0  0  0  0  0999 V2000
   -3.2406   -3.5400    1.2326 H   0  0  0  0  0  0  0  0  0  0  0  0
   -3.1436   -2.6190    0.6606 C   0  0  0  0  0  0  0  0  0  0  0  0
   -3.8786   -1.8920    0.9996 H   0  0  0  0  0  0  0  0  0  0  0  0
   -3.2846   -2.8280   -0.3984 H   0  0  0  0  0  0  0  0  0  0  0  0
   -1.7586   -2.0580    0.8686 C   0  0  0  0  0  0  0  0  0  0  0  0
   -0.9666   -2.6340    1.6026 O   0  0  0  0  0  0  0  0  0  0  0  0
   -1.4866   -0.9220    0.2366 N   0  0  0  0  0  0  0  0  0  0  0  0
   -2.2166   -0.4790   -0.2994 H   0  0  0  0  0  0  0  0  0  0  0  0
   -0.1956   -0.2250    0.2596 C   0  0  1  0  0  0  0  0  0  0  0  0
    0.0257    0.0710    1.2854 H   0  0  0  0  0  0  0  0  0  0  0  0
    0.9121   -1.1978   -0.1927 C   0  0  0  0  0  0  0  0  0  0  0  0
    0.6159   -1.6210   -1.1539 H   0  0  0  0  0  0  0  0  0  0  0  0
    1.8423   -0.6449   -0.3315 H   0  0  0  0  0  0  0  0  0  0  0  0
    1.1537   -2.3521    0.7945 C   0  0  0  0  0  0  0  0  0  0  0  0
    1.4447   -1.9387    1.7632 H   0  0  0  0  0  0  0  0  0  0  0  0
    0.2127   -2.8924    0.9275 H   0  0  0  0  0  0  0  0  0  0  0  0
    2.2402   -3.3339    0.3313 C   0  0  0  0  0  0  0  0  0  0  0  0
    2.7150   -3.1954   -0.8185 O   0  5  0  0  0  0  0  0  0  0  0  0
    2.5993   -4.2033    1.1562 O   0  0  0  0  0  0  0  0  0  0  0  0
   -0.2536    1.0616   -0.5899 C   0  0  0  0  0  0  0  0  0  0  0  0
    0.7422    1.7774   -0.7145 O   0  0  0  0  0  0  0  0  0  0  0  0
   -1.4129    1.3468   -1.1972 N   0  0  0  0  0  0  0  0  0  0  0  0
   -2.1995    0.7443   -1.0054 H   0  0  0  0  0  0  0  0  0  0  0  0
   -1.6378    2.5328   -2.0196 C   0  0  0  0  0  0  0  0  0  0  0  0
   -0.8511    2.6140   -2.7716 H   0  0  0  0  0  0  0  0  0  0  0  0
   -2.6087    2.4690   -2.5129 H   0  0  0  0  0  0  0  0  0  0  0  0
   -1.6109    3.4224   -1.3873 H   0  0  0  0  0  0  0  0  0  0  0  0
  5  6  2  0  0  0  0
  5  7  1  0  0  0  0
  2  3  1  0  0  0  0
  2  4  1  0  0  0  0
  2  5  1  0  0  0  0
  1  2  1  0  0  0  0
 20 21  2  0  0  0  0
 20 22  1  0  0  0  0
 17 18  1  0  0  0  0
 17 19  2  0  0  0  0
 14 15  1  0  0  0  0
 14 16  1  0  0  0  0
 14 17  1  0  0  0  0
 11 12  1  0  0  0  0
 11 13  1  0  0  0  0
 11 14  1  0  0  0  0
  9 10  1  0  0  0  0
  9 11  1  0  0  0  0
  9 20  1  0  0  0  0
  7  8  1  0  0  0  0
  7  9  1  0  0  0  0
 24 25  1  0  0  0  0
 24 26  1  0  0  0  0
 24 27  1  0  0  0  0
 22 23  1  0  0  0  0
 22 24  1  0  0  0  0
M  CHG  1  18  -1
M  END
$$$$
default_name
  -OEChem-01062215323D

 27 26  0     1  0  0  0  0  0999 V2000
   -3.2406   -3.5400    1.2326 H   0  0  0  0  0  0  0  0  0  0  0  0
   -3.1436   -2.6190    0.6606 C   0  0  0  0  0  0  0  0  0  0  0  0
   -3.8786   -1.8920    0.9996 H   0  0  0  0  0  0  0  0  0  0  0  0
   -3.2846   -2.8280   -0.3984 H   0  0  0  0  0  0  0  0  0  0  0  0
   -1.7586   -2.0580    0.8686 C   0  0  0  0  0  0  0  0  0  0  0  0
   -0.9666   -2.6340    1.6026 O   0  0  0  0  0  0  0  0  0  0  0  0
   -1.4866   -0.9220    0.2366 N   0  0  0  0  0  0  0  0  0  0  0  0
   -2.2166   -0.4790   -0.2994 H   0  0  0  0  0  0  0  0  0  0  0  0
   -0.1956   -0.2250    0.2596 C   0  0  1  0  0  0  0  0  0  0  0  0
    0.0257    0.0710    1.2854 H   0  0  0  0  0  0  0  0  0  0  0  0
    0.9121   -1.1978   -0.1927 C   0  0  0  0  0  0  0  0  0  0  0  0
    0.6159   -1.6210   -1.1539 H   0  0  0  0  0  0  0  0  0  0  0  0
    1.8423   -0.6449   -0.3315 H   0  0  0  0  0  0  0  0  0  0  0  0
    1.1537   -2.3521    0.7945 C   0  0  0  0  0  0  0  0  0  0  0  0
    1.4447   -1.9387    1.7632 H   0  0  0  0  0  0  0  0  0  0  0  0
    0.2127   -2.8924    0.9275 H   0  0  0  0  0  0  0  0  0  0  0  0
    2.2402   -3.3339    0.3313 C   0  0  0  0  0  0  0  0  0  0  0  0
    2.7150   -3.1954   -0.8185 O   0  5  0  0  0  0  0  0  0  0  0  0
    2.5993   -4.2033    1.1562 O   0  0  0  0  0  0  0  0  0  0  0  0
   -0.2536    1.0616   -0.5899 C   0  0  0  0  0  0  0  0  0  0  0  0
    0.7826    1.6277   -0.9440 O   0  0  0  0  0  0  0  0  0  0  0  0
   -1.4646    1.5139   -0.9406 N   0  0  0  0  0  0  0  0  0  0  0  0
   -2.2681    1.0295   -0.5689 H   0  0  0  0  0  0  0  0  0  0  0  0
   -1.6921    2.7247   -1.7252 C   0  0  0  0  0  0  0  0  0  0  0  0
   -1.0836    2.6965   -2.6307 H   0  0  0  0  0  0  0  0  0  0  0  0
   -2.7459    2.8039   -1.9964 H   0  0  0  0  0  0  0  0  0  0  0  0
   -1.4034    3.5975   -1.1364 H   0  0  0  0  0  0  0  0  0  0  0  0
  5  6  2  0  0  0  0
  5  7  1  0  0  0  0
  2  3  1  0  0  0  0
  2  4  1  0  0  0  0
  2  5  1  0  0  0  0
  1  2  1  0  0  0  0
 20 21  2  0  0  0  0
 20 22  1  0  0  0  0
 17 18  1  0  0  0  0
 17 19  2  0  0  0  0
 14 15  1  0  0  0  0
 14 16  1  0  0  0  0
 14 17  1  0  0  0  0
 11 12  1  0  0  0  0
 11 13  1  0  0  0  0
 11 14  1  0  0  0  0
  9 10  1  0  0  0  0
  9 11  1  0  0  0  0
  9 20  1  0  0  0  0
  7  8  1  0  0  0  0
  7  9  1  0  0  0  0
 24 25  1  0  0  0  0
 24 26  1  0  0  0  0
 24 27  1  0  0  0  0
 22 23  1  0  0  0  0
 22 24  1  0  0  0  0
M  CHG  1  18  -1
M  END
$$$$
default_name
  -OEChem-01062215323D

 27 26  0     1  0  0  0  0  0999 V2000
   -3.2406   -3.5400    1.2326 H   0  0  0  0  0  0  0  0  0  0  0  0
   -3.1436   -2.6190    0.6606 C   0  0  0  0  0  0  0  0  0  0  0  0
   -3.8786   -1.8920    0.9996 H   0  0  0  0  0  0  0  0  0  0  0  0
   -3.2846   -2.8280   -0.3984 H   0  0  0  0  0  0  0  0  0  0  0  0
   -1.7586   -2.0580    0.8686 C   0  0  0  0  0  0  0  0  0  0  0  0
   -0.9666   -2.6340    1.6026 O   0  0  0  0  0  0  0  0  0  0  0  0
   -1.4866   -0.9220    0.2366 N   0  0  0  0  0  0  0  0  0  0  0  0
   -2.2166   -0.4790   -0.2994 H   0  0  0  0  0  0  0  0  0  0  0  0
   -0.1956   -0.2250    0.2596 C   0  0  1  0  0  0  0  0  0  0  0  0
    0.0257    0.0710    1.2854 H   0  0  0  0  0  0  0  0  0  0  0  0
    0.9121   -1.1978   -0.1927 C   0  0  0  0  0  0  0  0  0  0  0  0
    0.6159   -1.6210   -1.1539 H   0  0  0  0  0  0  0  0  0  0  0  0
    1.8423   -0.6449   -0.3315 H   0  0  0  0  0  0  0  0  0  0  0  0
    1.1537   -2.3521    0.7945 C   0  0  0  0  0  0  0  0  0  0  0  0
    1.4447   -1.9387    1.7632 H   0  0  0  0  0  0  0  0  0  0  0  0
    0.2127   -2.8924    0.9275 H   0  0  0  0  0  0  0  0  0  0  0  0
    2.2402   -3.3339    0.3313 C   0  0  0  0  0  0  0  0  0  0  0  0
    2.7150   -3.1954   -0.8185 O   0  5  0  0  0  0  0  0  0  0  0  0
    2.5993   -4.2033    1.1562 O   0  0  0  0  0  0  0  0  0  0  0  0
   -0.2536    1.0616   -0.5899 C   0  0  0  0  0  0  0  0  0  0  0  0
    0.7508    1.4752   -1.1729 O   0  0  0  0  0  0  0  0  0  0  0  0
   -1.4354    1.6851   -0.6833 N   0  0  0  0  0  0  0  0  0  0  0  0
   -2.1996    1.3189   -0.1352 H   0  0  0  0  0  0  0  0  0  0  0  0
   -1.6538    2.9207   -1.4310 C   0  0  0  0  0  0  0  0  0  0  0  0
   -1.2660    2.8108   -2.4452 H   0  0  0  0  0  0  0  0  0  0  0  0
   -2.7191    3.1520   -1.4711 H   0  0  0  0  0  0  0  0  0  0  0  0
   -1.1239    3.7395   -0.9404 H   0  0  0  0  0  0  0  0  0  0  0  0
  5  6  2  0  0  0  0
  5  7  1  0  0  0  0
  2  3  1  0  0  0  0
  2  4  1  0  0  0  0
  2  5  1  0  0  0  0
  1  2  1  0  0  0  0
 20 21  2  0  0  0  0
 20 22  1  0  0  0  0
 17 18  1  0  0  0  0
 17 19  2  0  0  0  0
 14 15  1  0  0  0  0
 14 16  1  0  0  0  0
 14 17  1  0  0  0  0
 11 12  1  0  0  0  0
 11 13  1  0  0  0  0
 11 14  1  0  0  0  0
  9 10  1  0  0  0  0
  9 11  1  0  0  0  0
  9 20  1  0  0  0  0
  7  8  1  0  0  0  0
  7  9  1  0  0  0  0
 24 25  1  0  0  0  0
 24 26  1  0  0  0  0
 24 27  1  0  0  0  0
 22 23  1  0  0  0  0
 22 24  1  0  0  0  0
M  CHG  1  18  -1
M  END
$$$$
default_name
  -OEChem-01062215323D

 27 26  0     1  0  0  0  0  0999 V2000
   -3.2406   -3.5400    1.2326 H   0  0  0  0  0  0  0  0  0  0  0  0
   -3.1436   -2.6190    0.6606 C   0  0  0  0  0  0  0  0  0  0  0  0
   -3.8786   -1.8920    0.9996 H   0  0  0  0  0  0  0  0  0  0  0  0
   -3.2846   -2.8280   -0.3984 H   0  0  0  0  0  0  0  0  0  0  0  0
   -1.7586   -2.0580    0.8686 C   0  0  0  0  0  0  0  0  0  0  0  0
   -0.9666   -2.6340    1.6026 O   0  0  0  0  0  0  0  0  0  0  0  0
   -1.4866   -0.9220    0.2366 N   0  0  0  0  0  0  0  0  0  0  0  0
   -2.2166   -0.4790   -0.2994 H   0  0  0  0  0  0  0  0  0  0  0  0
   -0.1956   -0.2250    0.2596 C   0  0  1  0  0  0  0  0  0  0  0  0
    0.0257    0.0710    1.2854 H   0  0  0  0  0  0  0  0  0  0  0  0
    0.9121   -1.1978   -0.1927 C   0  0  0  0  0  0  0  0  0  0  0  0
    0.6159   -1.6210   -1.1539 H   0  0  0  0  0  0  0  0  0  0  0  0
    1.8423   -0.6449   -0.3315 H   0  0  0  0  0  0  0  0  0  0  0  0
    1.1537   -2.3521    0.7945 C   0  0  0  0  0  0  0  0  0  0  0  0
    1.4447   -1.9387    1.7632 H   0  0  0  0  0  0  0  0  0  0  0  0
    0.2127   -2.8924    0.9275 H   0  0  0  0  0  0  0  0  0  0  0  0
    2.2402   -3.3339    0.3313 C   0  0  0  0  0  0  0  0  0  0  0  0
    2.7150   -3.1954   -0.8185 O   0  5  0  0  0  0  0  0  0  0  0  0
    2.5993   -4.2033    1.1562 O   0  0  0  0  0  0  0  0  0  0  0  0
   -0.2536    1.0616   -0.5899 C   0  0  0  0  0  0  0  0  0  0  0  0
    0.6489    1.3301   -1.3856 O   0  0  0  0  0  0  0  0  0  0  0  0
   -1.3272    1.8489   -0.4427 N   0  0  0  0  0  0  0  0  0  0  0  0
   -1.9985    1.5930    0.2661 H   0  0  0  0  0  0  0  0  0  0  0  0
   -1.5253    3.1074   -1.1571 C   0  0  0  0  0  0  0  0  0  0  0  0
   -1.3858    2.9489   -2.2278 H   0  0  0  0  0  0  0  0  0  0  0  0
   -2.5304    3.4895   -0.9728 H   0  0  0  0  0  0  0  0  0  0  0  0
   -0.7914    3.8387   -0.8129 H   0  0  0  0  0  0  0  0  0  0  0  0
  5  6  2  0  0  0  0
  5  7  1  0  0  0  0
  2  3  1  0  0  0  0
  2  4  1  0  0  0  0
  2  5  1  0  0  0  0
  1  2  1  0  0  0  0
 20 21  2  0  0  0  0
 20 22  1  0  0  0  0
 17 18  1  0  0  0  0
 17 19  2  0  0  0  0
 14 15  1  0  0  0  0
 14 16  1  0  0  0  0
 14 17  1  0  0  0  0
 11 12  1  0  0  0  0
 11 13  1  0  0  0  0
 11 14  1  0  0  0  0
  9 10  1  0  0  0  0
  9 11  1  0  0  0  0
  9 20  1  0  0  0  0
  7  8  1  0  0  0  0
  7  9  1  0  0  0  0
 24 25  1  0  0  0  0
 24 26  1  0  0  0  0
 24 27  1  0  0  0  0
 22 23  1  0  0  0  0
 22 24  1  0  0  0  0
M  CHG  1  18  -1
M  END
$$$$
default_name
  -OEChem-01062215323D

 27 26  0     1  0  0  0  0  0999 V2000
   -3.2406   -3.5400    1.2326 H   0  0  0  0  0  0  0  0  0  0  0  0
   -3.1436   -2.6190    0.6606 C   0  0  0  0  0  0  0  0  0  0  0  0
   -3.8786   -1.8920    0.9996 H   0  0  0  0  0  0  0  0  0  0  0  0
   -3.2846   -2.8280   -0.3984 H   0  0  0  0  0  0  0  0  0  0  0  0
   -1.7586   -2.0580    0.8686 C   0  0  0  0  0  0  0  0  0  0  0  0
   -0.9666   -2.6340    1.6026 O   0  0  0  0  0  0  0  0  0  0  0  0
   -1.4866   -0.9220    0.2366 N   0  0  0  0  0  0  0  0  0  0  0  0
   -2.2166   -0.4790   -0.2994 H   0  0  0  0  0  0  0  0  0  0  0  0
   -0.1956   -0.2250    0.2596 C   0  0  1  0  0  0  0  0  0  0  0  0
    0.0257    0.0710    1.2854 H   0  0  0  0  0  0  0  0  0  0  0  0
    0.9121   -1.1978   -0.1927 C   0  0  0  0  0  0  0  0  0  0  0  0
    0.6159   -1.6210   -1.1539 H   0  0  0  0  0  0  0  0  0  0  0  0
    1.8423   -0.6449   -0.3315 H   0  0  0  0  0  0  0  0  0  0  0  0
    1.1537   -2.3521    0.7945 C   0  0  0  0  0  0  0  0  0  0  0  0
    1.4447   -1.9387    1.7632 H   0  0  0  0  0  0  0  0  0  0  0  0
    0.2127   -2.8924    0.9275 H   0  0  0  0  0  0  0  0  0  0  0  0
    2.2402   -3.3339    0.3313 C   0  0  0  0  0  0  0  0  0  0  0  0
    2.7150   -3.1954   -0.8185 O   0  5  0  0  0  0  0  0  0  0  0  0
    2.5993   -4.2033    1.1562 O   0  0  0  0  0  0  0  0  0  0  0  0
   -0.2536    1.0616   -0.5899 C   0  0  0  0  0  0  0  0  0  0  0  0
    0.4839    1.2024   -1.5677 O   0  0  0  0  0  0  0  0  0  0  0  0
   -1.1474    1.9940   -0.2352 N   0  0  0  0  0  0  0  0  0  0  0  0
   -1.6786    1.8330    0.6076 H   0  0  0  0  0  0  0  0  0  0  0  0
   -1.3154    3.2721   -0.9220 C   0  0  0  0  0  0  0  0  0  0  0  0
   -1.4350    3.1016   -1.9932 H   0  0  0  0  0  0  0  0  0  0  0  0
   -2.1924    3.7935   -0.5356 H   0  0  0  0  0  0  0  0  0  0  0  0
   -0.4286    3.8884   -0.7624 H   0  0  0  0  0  0  0  0  0  0  0  0
  5  6  2  0  0  0  0
  5  7  1  0  0  0  0
  2  3  1  0  0  0  0
  2  4  1  0  0  0  0
  2  5  1  0  0  0  0
  1  2  1  0  0  0  0
 20 21  2  0  0  0  0
 20 22  1  0  0  0  0
 17 18  1  0  0  0  0
 17 19  2  0  0  0  0
 14 15  1  0  0  0  0
 14 16  1  0  0  0  0
 14 17  1  0  0  0  0
 11 12  1  0  0  0  0
 11 13  1  0  0  0  0
 11 14  1  0  0  0  0
  9 10  1  0  0  0  0
  9 11  1  0  0  0  0
  9 20  1  0  0  0  0
  7  8  1  0  0  0  0
  7  9  1  0  0  0  0
 24 25  1  0  0  0  0
 24 26  1  0  0  0  0
 24 27  1  0  0  0  0
 22 23  1  0  0  0  0
 22 24  1  0  0  0  0
M  CHG  1  18  -1
M  END
$$$$
default_name
  -OEChem-01062215323D

 27 26  0     1  0  0  0  0  0999 V2000
   -3.2406   -3.5400    1.2326 H   0  0  0  0  0  0  0  0  0  0  0  0
   -3.1436   -2.6190    0.6606 C   0  0  0  0  0  0  0  0  0  0  0  0
   -3.8786   -1.8920    0.9996 H   0  0  0  0  0  0  0  0  0  0  0  0
   -3.2846   -2.8280   -0.3984 H   0  0  0  0  0  0  0  0  0  0  0  0
   -1.7586   -2.0580    0.8686 C   0  0  0  0  0  0  0  0  0  0  0  0
   -0.9666   -2.6340    1.6026 O   0  0  0  0  0  0  0  0  0  0  0  0
   -1.4866   -0.9220    0.2366 N   0  0  0  0  0  0  0  0  0  0  0  0
   -2.2166   -0.4790   -0.2994 H   0  0  0  0  0  0  0  0  0  0  0  0
   -0.1956   -0.2250    0.2596 C   0  0  1  0  0  0  0  0  0  0  0  0
    0.0257    0.0710    1.2854 H   0  0  0  0  0  0  0  0  0  0  0  0
    0.9121   -1.1978   -0.1927 C   0  0  0  0  0  0  0  0  0  0  0  0
    0.6159   -1.6210   -1.1539 H   0  0  0  0  0  0  0  0  0  0  0  0
    1.8423   -0.6449   -0.3315 H   0  0  0  0  0  0  0  0  0  0  0  0
    1.1537   -2.3521    0.7945 C   0  0  0  0  0  0  0  0  0  0  0  0
    1.4447   -1.9387    1.7632 H   0  0  0  0  0  0  0  0  0  0  0  0
    0.2127   -2.8924    0.9275 H   0  0  0  0  0  0  0  0  0  0  0  0
    2.2402   -3.3339    0.3313 C   0  0  0  0  0  0  0  0  0  0  0  0
    2.7150   -3.1954   -0.8185 O   0  5  0  0  0  0  0  0  0  0  0  0
    2.5993   -4.2033    1.1562 O   0  0  0  0  0  0  0  0  0  0  0  0
   -0.2536    1.0616   -0.5899 C   0  0  0  0  0  0  0  0  0  0  0  0
    0.2670    1.1008   -1.7067 O   0  0  0  0  0  0  0  0  0  0  0  0
   -0.9083    2.1105   -0.0751 N   0  0  0  0  0  0  0  0  0  0  0  0
   -1.2617    2.0225    0.8661 H   0  0  0  0  0  0  0  0  0  0  0  0
   -1.0385    3.4036   -0.7418 C   0  0  0  0  0  0  0  0  0  0  0  0
   -1.4101    3.2583   -1.7576 H   0  0  0  0  0  0  0  0  0  0  0  0
   -1.7282    4.0432   -0.1892 H   0  0  0  0  0  0  0  0  0  0  0  0
   -0.0601    3.8852   -0.7925 H   0  0  0  0  0  0  0  0  0  0  0  0
  5  6  2  0  0  0  0
  5  7  1  0  0  0  0
  2  3  1  0  0  0  0
  2  4  1  0  0  0  0
  2  5  1  0  0  0  0
  1  2  1  0  0  0  0
 20 21  2  0  0  0  0
 20 22  1  0  0  0  0
 17 18  1  0  0  0  0
 17 19  2  0  0  0  0
 14 15  1  0  0  0  0
 14 16  1  0  0  0  0
 14 17  1  0  0  0  0
 11 12  1  0  0  0  0
 11 13  1  0  0  0  0
 11 14  1  0  0  0  0
  9 10  1  0  0  0  0
  9 11  1  0  0  0  0
  9 20  1  0  0  0  0
  7  8  1  0  0  0  0
  7  9  1  0  0  0  0
 24 25  1  0  0  0  0
 24 26  1  0  0  0  0
 24 27  1  0  0  0  0
 22 23  1  0  0  0  0
 22 24  1  0  0  0  0
M  CHG  1  18  -1
M  END
$$$$
default_name
  -OEChem-01062215323D

 27 26  0     1  0  0  0  0  0999 V2000
   -3.2406   -3.5400    1.2326 H   0  0  0  0  0  0  0  0  0  0  0  0
   -3.1436   -2.6190    0.6606 C   0  0  0  0  0  0  0  0  0  0  0  0
   -3.8786   -1.8920    0.9996 H   0  0  0  0  0  0  0  0  0  0  0  0
   -3.2846   -2.8280   -0.3984 H   0  0  0  0  0  0  0  0  0  0  0  0
   -1.7586   -2.0580    0.8686 C   0  0  0  0  0  0  0  0  0  0  0  0
   -0.9666   -2.6340    1.6026 O   0  0  0  0  0  0  0  0  0  0  0  0
   -1.4866   -0.9220    0.2366 N   0  0  0  0  0  0  0  0  0  0  0  0
   -2.2166   -0.4790   -0.2994 H   0  0  0  0  0  0  0  0  0  0  0  0
   -0.1956   -0.2250    0.2596 C   0  0  1  0  0  0  0  0  0  0  0  0
    0.0257    0.0710    1.2854 H   0  0  0  0  0  0  0  0  0  0  0  0
    0.9121   -1.1978   -0.1927 C   0  0  0  0  0  0  0  0  0  0  0  0
    0.6159   -1.6210   -1.1539 H   0  0  0  0  0  0  0  0  0  0  0  0
    1.8423   -0.6449   -0.3315 H   0  0  0  0  0  0  0  0  0  0  0  0
    1.1537   -2.3521    0.7945 C   0  0  0  0  0  0  0  0  0  0  0  0
    1.4447   -1.9387    1.7632 H   0  0  0  0  0  0  0  0  0  0  0  0
    0.2127   -2.8924    0.9275 H   0  0  0  0  0  0  0  0  0  0  0  0
    2.2402   -3.3339    0.3313 C   0  0  0  0  0  0  0  0  0  0  0  0
    2.7150   -3.1954   -0.8185 O   0  5  0  0  0  0  0  0  0  0  0  0
    2.5993   -4.2033    1.1562 O   0  0  0  0  0  0  0  0  0  0  0  0
   -0.2536    1.0616   -0.5899 C   0  0  0  0  0  0  0  0  0  0  0  0
    0.0130    1.0323   -1.7932 O   0  0  0  0  0  0  0  0  0  0  0  0
   -0.6261    2.1906    0.0269 N   0  0  0  0  0  0  0  0  0  0  0  0
   -0.7762    2.1487    1.0240 H   0  0  0  0  0  0  0  0  0  0  0  0
   -0.7134    3.4929   -0.6288 C   0  0  0  0  0  0  0  0  0  0  0  0
   -1.3129    3.4085   -1.5369 H   0  0  0  0  0  0  0  0  0  0  0  0
   -1.1695    4.2216    0.0428 H   0  0  0  0  0  0  0  0  0  0  0  0
    0.2889    3.8293   -0.9010 H   0  0  0  0  0  0  0  0  0  0  0  0
  5  6  2  0  0  0  0
  5  7  1  0  0  0  0
  2  3  1  0  0  0  0
  2  4  1  0  0  0  0
  2  5  1  0  0  0  0
  1  2  1  0  0  0  0
 20 21  2  0  0  0  0
 20 22  1  0  0  0  0
 17 18  1  0  0  0  0
 17 19  2  0  0  0  0
 14 15  1  0  0  0  0
 14 16  1  0  0  0  0
 14 17  1  0  0  0  0
 11 12  1  0  0  0  0
 11 13  1  0  0  0  0
 11 14  1  0  0  0  0
  9 10  1  0  0  0  0
  9 11  1  0  0  0  0
  9 20  1  0  0  0  0
  7  8  1  0  0  0  0
  7  9  1  0  0  0  0
 24 25  1  0  0  0  0
 24 26  1  0  0  0  0
 24 27  1  0  0  0  0
 22 23  1  0  0  0  0
 22 24  1  0  0  0  0
M  CHG  1  18  -1
M  END
$$$$
default_name
  -OEChem-01062215323D

 27 26  0     1  0  0  0  0  0999 V2000
   -3.2406   -3.5400    1.2326 H   0  0  0  0  0  0  0  0  0  0  0  0
   -3.1436   -2.6190    0.6606 C   0  0  0  0  0  0  0  0  0  0  0  0
   -3.8786   -1.8920    0.9996 H   0  0  0  0  0  0  0  0  0  0  0  0
   -3.2846   -2.8280   -0.3984 H   0  0  0  0  0  0  0  0  0  0  0  0
   -1.7586   -2.0580    0.8686 C   0  0  0  0  0  0  0  0  0  0  0  0
   -0.9666   -2.6340    1.6026 O   0  0  0  0  0  0  0  0  0  0  0  0
   -1.4866   -0.9220    0.2366 N   0  0  0  0  0  0  0  0  0  0  0  0
   -2.2166   -0.4790   -0.2994 H   0  0  0  0  0  0  0  0  0  0  0  0
   -0.1956   -0.2250    0.2596 C   0  0  1  0  0  0  0  0  0  0  0  0
    0.0257    0.0710    1.2854 H   0  0  0  0  0  0  0  0  0  0  0  0
    0.9121   -1.1978   -0.1927 C   0  0  0  0  0  0  0  0  0  0  0  0
    0.6159   -1.6210   -1.1539 H   0  0  0  0  0  0  0  0  0  0  0  0
    1.8423   -0.6449   -0.3315 H   0  0  0  0  0  0  0  0  0  0  0  0
    1.1537   -2.3521    0.7945 C   0  0  0  0  0  0  0  0  0  0  0  0
    1.4447   -1.9387    1.7632 H   0  0  0  0  0  0  0  0  0  0  0  0
    0.2127   -2.8924    0.9275 H   0  0  0  0  0  0  0  0  0  0  0  0
    2.2402   -3.3339    0.3313 C   0  0  0  0  0  0  0  0  0  0  0  0
    2.7150   -3.1954   -0.8185 O   0  5  0  0  0  0  0  0  0  0  0  0
    2.5993   -4.2033    1.1562 O   0  0  0  0  0  0  0  0  0  0  0  0
   -0.2536    1.0616   -0.5899 C   0  0  0  0  0  0  0  0  0  0  0  0
   -0.2608    1.0014   -1.8212 O   0  0  0  0  0  0  0  0  0  0  0  0
   -0.3202    2.2287    0.0637 N   0  0  0  0  0  0  0  0  0  0  0  0
   -0.2552    2.2029    1.0705 H   0  0  0  0  0  0  0  0  0  0  0  0
   -0.3623    3.5339   -0.5907 C   0  0  0  0  0  0  0  0  0  0  0  0
   -1.1499    3.5418   -1.3461 H   0  0  0  0  0  0  0  0  0  0  0  0
   -0.5544    4.3165    0.1446 H   0  0  0  0  0  0  0  0  0  0  0  0
    0.5945    3.7245   -1.0806 H   0  0  0  0  0  0  0  0  0  0  0  0
  5  6  2  0  0  0  0
  5  7  1  0  0  0  0
  2  3  1  0  0  0  0
  2  4  1  0  0  0  0
  2  5  1  0  0  0  0
  1  2  1  0  0  0  0
 20 21  2  0  0  0  0
 20 22  1  0  0  0  0
 17 18  1  0  0  0  0
 17 19  2  0  0  0  0
 14 15  1  0  0  0  0
 14 16  1  0  0  0  0
 14 17  1  0  0  0  0
 11 12  1  0  0  0  0
 11 13  1  0  0  0  0
 11 14  1  0  0  0  0
  9 10  1  0  0  0  0
  9 11  1  0  0  0  0
  9 20  1  0  0  0  0
  7  8  1  0  0  0  0
  7  9  1  0  0  0  0
 24 25  1  0  0  0  0
 24 26  1  0  0  0  0
 24 27  1  0  0  0  0
 22 23  1  0  0  0  0
 22 24  1  0  0  0  0
M  CHG  1  18  -1
M  END
$$$$
default_name
  -OEChem-01062215323D

 27 26  0     1  0  0  0  0  0999 V2000
   -3.2406   -3.5400    1.2326 H   0  0  0  0  0  0  0  0  0  0  0  0
   -3.1436   -2.6190    0.6606 C   0  0  0  0  0  0  0  0  0  0  0  0
   -3.8786   -1.8920    0.9996 H   0  0  0  0  0  0  0  0  0  0  0  0
   -3.2846   -2.8280   -0.3984 H   0  0  0  0  0  0  0  0  0  0  0  0
   -1.7586   -2.0580    0.8686 C   0  0  0  0  0  0  0  0  0  0  0  0
   -0.9666   -2.6340    1.6026 O   0  0  0  0  0  0  0  0  0  0  0  0
   -1.4866   -0.9220    0.2366 N   0  0  0  0  0  0  0  0  0  0  0  0
   -2.2166   -0.4790   -0.2994 H   0  0  0  0  0  0  0  0  0  0  0  0
   -0.1956   -0.2250    0.2596 C   0  0  1  0  0  0  0  0  0  0  0  0
    0.0257    0.0710    1.2854 H   0  0  0  0  0  0  0  0  0  0  0  0
    0.9121   -1.1978   -0.1927 C   0  0  0  0  0  0  0  0  0  0  0  0
    0.6159   -1.6210   -1.1539 H   0  0  0  0  0  0  0  0  0  0  0  0
    1.8423   -0.6449   -0.3315 H   0  0  0  0  0  0  0  0  0  0  0  0
    1.1537   -2.3521    0.7945 C   0  0  0  0  0  0  0  0  0  0  0  0
    1.4447   -1.9387    1.7632 H   0  0  0  0  0  0  0  0  0  0  0  0
    0.2127   -2.8924    0.9275 H   0  0  0  0  0  0  0  0  0  0  0  0
    2.2402   -3.3339    0.3313 C   0  0  0  0  0  0  0  0  0  0  0  0
    2.7150   -3.1954   -0.8185 O   0  5  0  0  0  0  0  0  0  0  0  0
    2.5993   -4.2033    1.1562 O   0  0  0  0  0  0  0  0  0  0  0  0
   -0.2536    1.0616   -0.5899 C   0  0  0  0  0  0  0  0  0  0  0  0
   -0.5356    1.0103   -1.7889 O   0  0  0  0  0  0  0  0  0  0  0  0
   -0.0113    2.2223    0.0329 N   0  0  0  0  0  0  0  0  0  0  0  0
    0.2659    2.1815    1.0024 H   0  0  0  0  0  0  0  0  0  0  0  0
   -0.0091    3.5238   -0.6301 C   0  0  0  0  0  0  0  0  0  0  0  0
   -0.9323    3.6492   -1.1983 H   0  0  0  0  0  0  0  0  0  0  0  0
    0.0753    4.3216    0.1092 H   0  0  0  0  0  0  0  0  0  0  0  0
    0.8361    3.5780   -1.3190 H   0  0  0  0  0  0  0  0  0  0  0  0
  5  6  2  0  0  0  0
  5  7  1  0  0  0  0
  2  3  1  0  0  0  0
  2  4  1  0  0  0  0
  2  5  1  0  0  0  0
  1  2  1  0  0  0  0
 20 21  2  0  0  0  0
 20 22  1  0  0  0  0
 17 18  1  0  0  0  0
 17 19  2  0  0  0  0
 14 15  1  0  0  0  0
 14 16  1  0  0  0  0
 14 17  1  0  0  0  0
 11 12  1  0  0  0  0
 11 13  1  0  0  0  0
 11 14  1  0  0  0  0
  9 10  1  0  0  0  0
  9 11  1  0  0  0  0
  9 20  1  0  0  0  0
  7  8  1  0  0  0  0
  7  9  1  0  0  0  0
 24 25  1  0  0  0  0
 24 26  1  0  0  0  0
 24 27  1  0  0  0  0
 22 23  1  0  0  0  0
 22 24  1  0  0  0  0
M  CHG  1  18  -1
M  END
$$$$
default_name
  -OEChem-01062215323D

 27 26  0     1  0  0  0  0  0999 V2000
   -3.2406   -3.5400    1.2326 H   0  0  0  0  0  0  0  0  0  0  0  0
   -3.1436   -2.6190    0.6606 C   0  0  0  0  0  0  0  0  0  0  0  0
   -3.8786   -1.8920    0.9996 H   0  0  0  0  0  0  0  0  0  0  0  0
   -3.2846   -2.8280   -0.3984 H   0  0  0  0  0  0  0  0  0  0  0  0
   -1.7586   -2.0580    0.8686 C   0  0  0  0  0  0  0  0  0  0  0  0
   -0.9666   -2.6340    1.6026 O   0  0  0  0  0  0  0  0  0  0  0  0
   -1.4866   -0.9220    0.2366 N   0  0  0  0  0  0  0  0  0  0  0  0
   -2.2166   -0.4790   -0.2994 H   0  0  0  0  0  0  0  0  0  0  0  0
   -0.1956   -0.2250    0.2596 C   0  0  1  0  0  0  0  0  0  0  0  0
    0.0257    0.0710    1.2854 H   0  0  0  0  0  0  0  0  0  0  0  0
    0.9121   -1.1978   -0.1927 C   0  0  0  0  0  0  0  0  0  0  0  0
    0.6159   -1.6210   -1.1539 H   0  0  0  0  0  0  0  0  0  0  0  0
    1.8423   -0.6449   -0.3315 H   0  0  0  0  0  0  0  0  0  0  0  0
    1.1537   -2.3521    0.7945 C   0  0  0  0  0  0  0  0  0  0  0  0
    1.4447   -1.9387    1.7632 H   0  0  0  0  0  0  0  0  0  0  0  0
    0.2127   -2.8924    0.9275 H   0  0  0  0  0  0  0  0  0  0  0  0
    2.2402   -3.3339    0.3313 C   0  0  0  0  0  0  0  0  0  0  0  0
    2.7150   -3.1954   -0.8185 O   0  5  0  0  0  0  0  0  0  0  0  0
    2.5993   -4.2033    1.1562 O   0  0  0  0  0  0  0  0  0  0  0  0
   -0.2536    1.0616   -0.5899 C   0  0  0  0  0  0  0  0  0  0  0  0
   -0.7929    1.0584   -1.6985 O   0  0  0  0  0  0  0  0  0  0  0  0
    0.2795    2.1718   -0.0635 N   0  0  0  0  0  0  0  0  0  0  0  0
    0.7514    2.0858    0.8244 H   0  0  0  0  0  0  0  0  0  0  0  0
    0.3222    3.4634   -0.7443 C   0  0  0  0  0  0  0  0  0  0  0  0
   -0.6749    3.7234   -1.1036 H   0  0  0  0  0  0  0  0  0  0  0  0
    0.6766    4.2364   -0.0609 H   0  0  0  0  0  0  0  0  0  0  0  0
    0.9971    3.3997   -1.6000 H   0  0  0  0  0  0  0  0  0  0  0  0
  5  6  2  0  0  0  0
  5  7  1  0  0  0  0
  2  3  1  0  0  0  0
  2  4  1  0  0  0  0
  2  5  1  0  0  0  0
  1  2  1  0  0  0  0
 20 21  2  0  0  0  0
 20 22  1  0  0  0  0
 17 18  1  0  0  0  0
 17 19  2  0  0  0  0
 14 15  1  0  0  0  0
 14 16  1  0  0  0  0
 14 17  1  0  0  0  0
 11 12  1  0  0  0  0
 11 13  1  0  0  0  0
 11 14  1  0  0  0  0
  9 10  1  0  0  0  0
  9 11  1  0  0  0  0
  9 20  1  0  0  0  0
  7  8  1  0  0  0  0
  7  9  1  0  0  0  0
 24 25  1  0  0  0  0
 24 26  1  0  0  0  0
 24 27  1  0  0  0  0
 22 23  1  0  0  0  0
 22 24  1  0  0  0  0
M  CHG  1  18  -1
M  END
$$$$
default_name
  -OEChem-01062215323D

 27 26  0     1  0  0  0  0  0999 V2000
   -3.2406   -3.5400    1.2326 H   0  0  0  0  0  0  0  0  0  0  0  0
   -3.1436   -2.6190    0.6606 C   0  0  0  0  0  0  0  0  0  0  0  0
   -3.8786   -1.8920    0.9996 H   0  0  0  0  0  0  0  0  0  0  0  0
   -3.2846   -2.8280   -0.3984 H   0  0  0  0  0  0  0  0  0  0  0  0
   -1.7586   -2.0580    0.8686 C   0  0  0  0  0  0  0  0  0  0  0  0
   -0.9666   -2.6340    1.6026 O   0  0  0  0  0  0  0  0  0  0  0  0
   -1.4866   -0.9220    0.2366 N   0  0  0  0  0  0  0  0  0  0  0  0
   -2.2166   -0.4790   -0.2994 H   0  0  0  0  0  0  0  0  0  0  0  0
   -0.1956   -0.2250    0.2596 C   0  0  1  0  0  0  0  0  0  0  0  0
    0.0257    0.0710    1.2854 H   0  0  0  0  0  0  0  0  0  0  0  0
    0.9121   -1.1978   -0.1927 C   0  0  0  0  0  0  0  0  0  0  0  0
    0.6159   -1.6210   -1.1539 H   0  0  0  0  0  0  0  0  0  0  0  0
    1.8423   -0.6449   -0.3315 H   0  0  0  0  0  0  0  0  0  0  0  0
    1.1537   -2.3521    0.7945 C   0  0  0  0  0  0  0  0  0  0  0  0
    1.4447   -1.9387    1.7632 H   0  0  0  0  0  0  0  0  0  0  0  0
    0.2127   -2.8924    0.9275 H   0  0  0  0  0  0  0  0  0  0  0  0
    2.2402   -3.3339    0.3313 C   0  0  0  0  0  0  0  0  0  0  0  0
    2.7150   -3.1954   -0.8185 O   0  5  0  0  0  0  0  0  0  0  0  0
    2.5993   -4.2033    1.1562 O   0  0  0  0  0  0  0  0  0  0  0  0
   -0.2536    1.0616   -0.5899 C   0  0  0  0  0  0  0  0  0  0  0  0
   -1.0150    1.1424   -1.5561 O   0  0  0  0  0  0  0  0  0  0  0  0
    0.5324    2.0806   -0.2189 N   0  0  0  0  0  0  0  0  0  0  0  0
    1.1683    1.9226    0.5486 H   0  0  0  0  0  0  0  0  0  0  0  0
    0.6089    3.3567   -0.9254 C   0  0  0  0  0  0  0  0  0  0  0  0
   -0.3953    3.7593   -1.0683 H   0  0  0  0  0  0  0  0  0  0  0  0
    1.2086    4.0668   -0.3542 H   0  0  0  0  0  0  0  0  0  0  0  0
    1.0666    3.2018   -1.9045 H   0  0  0  0  0  0  0  0  0  0  0  0
  5  6  2  0  0  0  0
  5  7  1  0  0  0  0
  2  3  1  0  0  0  0
  2  4  1  0  0  0  0
  2  5  1  0  0  0  0
  1  2  1  0  0  0  0
 20 21  2  0  0  0  0
 20 22  1  0  0  0  0
 17 18  1  0  0  0  0
 17 19  2  0  0  0  0
 14 15  1  0  0  0  0
 14 16  1  0  0  0  0
 14 17  1  0  0  0  0
 11 12  1  0  0  0  0
 11 13  1  0  0  0  0
 11 14  1  0  0  0  0
  9 10  1  0  0  0  0
  9 11  1  0  0  0  0
  9 20  1  0  0  0  0
  7  8  1  0  0  0  0
  7  9  1  0  0  0  0
 24 25  1  0  0  0  0
 24 26  1  0  0  0  0
 24 27  1  0  0  0  0
 22 23  1  0  0  0  0
 22 24  1  0  0  0  0
M  CHG  1  18  -1
M  END
$$$$
default_name
  -OEChem-01062215323D

 27 26  0     1  0  0  0  0  0999 V2000
   -3.2406   -3.5400    1.2326 H   0  0  0  0  0  0  0  0  0  0  0  0
   -3.1436   -2.6190    0.6606 C   0  0  0  0  0  0  0  0  0  0  0  0
   -3.8786   -1.8920    0.9996 H   0  0  0  0  0  0  0  0  0  0  0  0
   -3.2846   -2.8280   -0.3984 H   0  0  0  0  0  0  0  0  0  0  0  0
   -1.7586   -2.0580    0.8686 C   0  0  0  0  0  0  0  0  0  0  0  0
   -0.9666   -2.6340    1.6026 O   0  0  0  0  0  0  0  0  0  0  0  0
   -1.4866   -0.9220    0.2366 N   0  0  0  0  0  0  0  0  0  0  0  0
   -2.2166   -0.4790   -0.2994 H   0  0  0  0  0  0  0  0  0  0  0  0
   -0.1956   -0.2250    0.2596 C   0  0  1  0  0  0  0  0  0  0  0  0
    0.0257    0.0710    1.2854 H   0  0  0  0  0  0  0  0  0  0  0  0
    0.9121   -1.1978   -0.1927 C   0  0  0  0  0  0  0  0  0  0  0  0
    0.6159   -1.6210   -1.1539 H   0  0  0  0  0  0  0  0  0  0  0  0
    1.8423   -0.6449   -0.3315 H   0  0  0  0  0  0  0  0  0  0  0  0
    1.1537   -2.3521    0.7945 C   0  0  0  0  0  0  0  0  0  0  0  0
    1.4447   -1.9387    1.7632 H   0  0  0  0  0  0  0  0  0  0  0  0
    0.2127   -2.8924    0.9275 H   0  0  0  0  0  0  0  0  0  0  0  0
    2.2402   -3.3339    0.3313 C   0  0  0  0  0  0  0  0  0  0  0  0
    2.7150   -3.1954   -0.8185 O   0  5  0  0  0  0  0  0  0  0  0  0
    2.5993   -4.2033    1.1562 O   0  0  0  0  0  0  0  0  0  0  0  0
   -0.2536    1.0616   -0.5899 C   0  0  0  0  0  0  0  0  0  0  0  0
   -1.1869    1.2566   -1.3714 O   0  0  0  0  0  0  0  0  0  0  0  0
    0.7301    1.9550   -0.4227 N   0  0  0  0  0  0  0  0  0  0  0  0
    1.4883    1.7027    0.1939 H   0  0  0  0  0  0  0  0  0  0  0  0
    0.8316    3.2110   -1.1613 C   0  0  0  0  0  0  0  0  0  0  0  0
   -0.1125    3.7544   -1.0950 H   0  0  0  0  0  0  0  0  0  0  0  0
    1.6349    3.8242   -0.7507 H   0  0  0  0  0  0  0  0  0  0  0  0
    1.0397    2.9978   -2.2116 H   0  0  0  0  0  0  0  0  0  0  0  0
  5  6  2  0  0  0  0
  5  7  1  0  0  0  0
  2  3  1  0  0  0  0
  2  4  1  0  0  0  0
  2  5  1  0  0  0  0
  1  2  1  0  0  0  0
 20 21  2  0  0  0  0
 20 22  1  0  0  0  0
 17 18  1  0  0  0  0
 17 19  2  0  0  0  0
 14 15  1  0  0  0  0
 14 16  1  0  0  0  0
 14 17  1  0  0  0  0
 11 12  1  0  0  0  0
 11 13  1  0  0  0  0
 11 14  1  0  0  0  0
  9 10  1  0  0  0  0
  9 11  1  0  0  0  0
  9 20  1  0  0  0  0
  7  8  1  0  0  0  0
  7  9  1  0  0  0  0
 24 25  1  0  0  0  0
 24 26  1  0  0  0  0
 24 27  1  0  0  0  0
 22 23  1  0  0  0  0
 22 24  1  0  0  0  0
M  CHG  1  18  -1
M  END
$$$$
default_name
  -OEChem-01062215323D

 27 26  0     1  0  0  0  0  0999 V2000
   -3.2406   -3.5400    1.2326 H   0  0  0  0  0  0  0  0  0  0  0  0
   -3.1436   -2.6190    0.6606 C   0  0  0  0  0  0  0  0  0  0  0  0
   -3.8786   -1.8920    0.9996 H   0  0  0  0  0  0  0  0  0  0  0  0
   -3.2846   -2.8280   -0.3984 H   0  0  0  0  0  0  0  0  0  0  0  0
   -1.7586   -2.0580    0.8686 C   0  0  0  0  0  0  0  0  0  0  0  0
   -0.9666   -2.6340    1.6026 O   0  0  0  0  0  0  0  0  0  0  0  0
   -1.4866   -0.9220    0.2366 N   0  0  0  0  0  0  0  0  0  0  0  0
   -2.2166   -0.4790   -0.2994 H   0  0  0  0  0  0  0  0  0  0  0  0
   -0.1956   -0.2250    0.2596 C   0  0  1  0  0  0  0  0  0  0  0  0
    0.1536   -0.1661    1.2909 H   0  0  0  0  0  0  0  0  0  0  0  0
    0.8378   -1.0490   -0.5347 C   0  0  0  0  0  0  0  0  0  0  0  0
    0.4210   -1.2478   -1.5233 H   0  0  0  0  0  0  0  0  0  0  0  0
    1.7494   -0.4621   -0.6567 H   0  0  0  0  0  0  0  0  0  0  0  0
    1.1877   -2.3930    0.1261 C   0  0  0  0  0  0  0  0  0  0  0  0
    1.6002   -2.2055    1.1204 H   0  0  0  0  0  0  0  0  0  0  0  0
    0.2648   -2.9664    0.2467 H   0  0  0  0  0  0  0  0  0  0  0  0
    2.1986   -3.2236   -0.6782 C   0  0  0  0  0  0  0  0  0  0  0  0
    2.5293   -2.8185   -1.8153 O   0  5  0  0  0  0  0  0  0  0  0  0
    2.6480   -4.2511   -0.1235 O   0  0  0  0  0  0  0  0  0  0  0  0
   -0.3449    1.2198   -0.2606 C   0  0  0  0  0  0  0  0  0  0  0  0
   -1.4467    1.6526   -0.6050 O   0  0  0  0  0  0  0  0  0  0  0  0
    0.7582    1.9786   -0.2963 N   0  0  0  0  0  0  0  0  0  0  0  0
    1.6332    1.5400   -0.0505 H   0  0  0  0  0  0  0  0  0  0  0  0
    0.7899    3.3572   -0.7779 C   0  0  0  0  0  0  0  0  0  0  0  0
    0.0137    3.9397   -0.2786 H   0  0  0  0  0  0  0  0  0  0  0  0
    1.7655    3.8025   -0.5777 H   0  0  0  0  0  0  0  0  0  0  0  0
    0.6001    3.3699   -1.8529 H   0  0  0  0  0  0  0  0  0  0  0  0
  5  6  2  0  0  0  0
  5  7  1  0  0  0  0
  2  3  1  0  0  0  0
  2  4  1  0  0  0  0
  2  5  1  0  0  0  0
  1  2  1  0  0  0  0
 20 21  2  0  0  0  0
 20 22  1  0  0  0  0
 17 18  1  0  0  0  0
 17 19  2  0  0  0  0
 14 15  1  0  0  0  0
 14 16  1  0  0  0  0
 14 17  1  0  0  0  0
 11 12  1  0  0  0  0
 11 13  1  0  0  0  0
 11 14  1  0  0  0  0
  9 10  1  0  0  0  0
  9 11  1  0  0  0  0
  9 20  1  0  0  0  0
  7  8  1  0  0  0  0
  7  9  1  0  0  0  0
 24 25  1  0  0  0  0
 24 26  1  0  0  0  0
 24 27  1  0  0  0  0
 22 23  1  0  0  0  0
 22 24  1  0  0  0  0
M  CHG  1  18  -1
M  END
$$$$
default_name
  -OEChem-01062215323D

 27 26  0     1  0  0  0  0  0999 V2000
   -3.2406   -3.5400    1.2326 H   0  0  0  0  0  0  0  0  0  0  0  0
   -3.1436   -2.6190    0.6606 C   0  0  0  0  0  0  0  0  0  0  0  0
   -3.8786   -1.8920    0.9996 H   0  0  0  0  0  0  0  0  0  0  0  0
   -3.2846   -2.8280   -0.3984 H   0  0  0  0  0  0  0  0  0  0  0  0
   -1.7586   -2.0580    0.8686 C   0  0  0  0  0  0  0  0  0  0  0  0
   -0.9666   -2.6340    1.6026 O   0  0  0  0  0  0  0  0  0  0  0  0
   -1.4866   -0.9220    0.2366 N   0  0  0  0  0  0  0  0  0  0  0  0
   -2.2166   -0.4790   -0.2994 H   0  0  0  0  0  0  0  0  0  0  0  0
   -0.1956   -0.2250    0.2596 C   0  0  1  0  0  0  0  0  0  0  0  0
    0.1536   -0.1661    1.2909 H   0  0  0  0  0  0  0  0  0  0  0  0
    0.8378   -1.0490   -0.5347 C   0  0  0  0  0  0  0  0  0  0  0  0
    0.4210   -1.2478   -1.5233 H   0  0  0  0  0  0  0  0  0  0  0  0
    1.7494   -0.4621   -0.6567 H   0  0  0  0  0  0  0  0  0  0  0  0
    1.1877   -2.3930    0.1261 C   0  0  0  0  0  0  0  0  0  0  0  0
    1.6002   -2.2055    1.1204 H   0  0  0  0  0  0  0  0  0  0  0  0
    0.2648   -2.9664    0.2467 H   0  0  0  0  0  0  0  0  0  0  0  0
    2.1986   -3.2236   -0.6782 C   0  0  0  0  0  0  0  0  0  0  0  0
    2.5293   -2.8185   -1.8153 O   0  5  0  0  0  0  0  0  0  0  0  0
    2.6480   -4.2511   -0.1235 O   0  0  0  0  0  0  0  0  0  0  0  0
   -0.3449    1.2198   -0.2606 C   0  0  0  0  0  0  0  0  0  0  0  0
   -1.4569    1.7454   -0.3443 O   0  0  0  0  0  0  0  0  0  0  0  0
    0.7761    1.8753   -0.5886 N   0  0  0  0  0  0  0  0  0  0  0  0
    1.6445    1.3629   -0.5456 H   0  0  0  0  0  0  0  0  0  0  0  0
    0.8056    3.2383   -1.1126 C   0  0  0  0  0  0  0  0  0  0  0  0
    0.2262    3.8956   -0.4620 H   0  0  0  0  0  0  0  0  0  0  0  0
    1.8345    3.5965   -1.1698 H   0  0  0  0  0  0  0  0  0  0  0  0
    0.3615    3.2527   -2.1098 H   0  0  0  0  0  0  0  0  0  0  0  0
  5  6  2  0  0  0  0
  5  7  1  0  0  0  0
  2  3  1  0  0  0  0
  2  4  1  0  0  0  0
  2  5  1  0  0  0  0
  1  2  1  0  0  0  0
 20 21  2  0  0  0  0
 20 22  1  0  0  0  0
 17 18  1  0  0  0  0
 17 19  2  0  0  0  0
 14 15  1  0  0  0  0
 14 16  1  0  0  0  0
 14 17  1  0  0  0  0
 11 12  1  0  0  0  0
 11 13  1  0  0  0  0
 11 14  1  0  0  0  0
  9 10  1  0  0  0  0
  9 11  1  0  0  0  0
  9 20  1  0  0  0  0
  7  8  1  0  0  0  0
  7  9  1  0  0  0  0
 24 25  1  0  0  0  0
 24 26  1  0  0  0  0
 24 27  1  0  0  0  0
 22 23  1  0  0  0  0
 22 24  1  0  0  0  0
M  CHG  1  18  -1
M  END
$$$$
default_name
  -OEChem-01062215323D

 27 26  0     1  0  0  0  0  0999 V2000
   -3.2406   -3.5400    1.2326 H   0  0  0  0  0  0  0  0  0  0  0  0
   -3.1436   -2.6190    0.6606 C   0  0  0  0  0  0  0  0  0  0  0  0
   -3.8786   -1.8920    0.9996 H   0  0  0  0  0  0  0  0  0  0  0  0
   -3.2846   -2.8280   -0.3984 H   0  0  0  0  0  0  0  0  0  0  0  0
   -1.7586   -2.0580    0.8686 C   0  0  0  0  0  0  0  0  0  0  0  0
   -0.9666   -2.6340    1.6026 O   0  0  0  0  0  0  0  0  0  0  0  0
   -1.4866   -0.9220    0.2366 N   0  0  0  0  0  0  0  0  0  0  0  0
   -2.2166   -0.4790   -0.2994 H   0  0  0  0  0  0  0  0  0  0  0  0
   -0.1956   -0.2250    0.2596 C   0  0  1  0  0  0  0  0  0  0  0  0
    0.1536   -0.1661    1.2909 H   0  0  0  0  0  0  0  0  0  0  0  0
    0.8378   -1.0490   -0.5347 C   0  0  0  0  0  0  0  0  0  0  0  0
    0.4210   -1.2478   -1.5233 H   0  0  0  0  0  0  0  0  0  0  0  0
    1.7494   -0.4621   -0.6567 H   0  0  0  0  0  0  0  0  0  0  0  0
    1.1877   -2.3930    0.1261 C   0  0  0  0  0  0  0  0  0  0  0  0
    1.6002   -2.2055    1.1204 H   0  0  0  0  0  0  0  0  0  0  0  0
    0.2648   -2.9664    0.2467 H   0  0  0  0  0  0  0  0  0  0  0  0
    2.1986   -3.2236   -0.6782 C   0  0  0  0  0  0  0  0  0  0  0  0
    2.5293   -2.8185   -1.8153 O   0  5  0  0  0  0  0  0  0  0  0  0
    2.6480   -4.2511   -0.1235 O   0  0  0  0  0  0  0  0  0  0  0  0
   -0.3449    1.2198   -0.2606 C   0  0  0  0  0  0  0  0  0  0  0  0
   -1.3955    1.8425   -0.0923 O   0  0  0  0  0  0  0  0  0  0  0  0
    0.7136    1.7665   -0.8726 N   0  0  0  0  0  0  0  0  0  0  0  0
    1.5200    1.1785   -1.0221 H   0  0  0  0  0  0  0  0  0  0  0  0
    0.7292    3.1137   -1.4367 C   0  0  0  0  0  0  0  0  0  0  0  0
    0.3831    3.8299   -0.6895 H   0  0  0  0  0  0  0  0  0  0  0  0
    1.7396    3.3766   -1.7532 H   0  0  0  0  0  0  0  0  0  0  0  0
    0.0585    3.1539   -2.2972 H   0  0  0  0  0  0  0  0  0  0  0  0
  5  6  2  0  0  0  0
  5  7  1  0  0  0  0
  2  3  1  0  0  0  0
  2  4  1  0  0  0  0
  2  5  1  0  0  0  0
  1  2  1  0  0  0  0
 20 21  2  0  0  0  0
 20 22  1  0  0  0  0
 17 18  1  0  0  0  0
 17 19  2  0  0  0  0
 14 15  1  0  0  0  0
 14 16  1  0  0  0  0
 14 17  1  0  0  0  0
 11 12  1  0  0  0  0
 11 13  1  0  0  0  0
 11 14  1  0  0  0  0
  9 10  1  0  0  0  0
  9 11  1  0  0  0  0
  9 20  1  0  0  0  0
  7  8  1  0  0  0  0
  7  9  1  0  0  0  0
 24 25  1  0  0  0  0
 24 26  1  0  0  0  0
 24 27  1  0  0  0  0
 22 23  1  0  0  0  0
 22 24  1  0  0  0  0
M  CHG  1  18  -1
M  END
$$$$
default_name
  -OEChem-01062215323D

 27 26  0     1  0  0  0  0  0999 V2000
   -3.2406   -3.5400    1.2326 H   0  0  0  0  0  0  0  0  0  0  0  0
   -3.1436   -2.6190    0.6606 C   0  0  0  0  0  0  0  0  0  0  0  0
   -3.8786   -1.8920    0.9996 H   0  0  0  0  0  0  0  0  0  0  0  0
   -3.2846   -2.8280   -0.3984 H   0  0  0  0  0  0  0  0  0  0  0  0
   -1.7586   -2.0580    0.8686 C   0  0  0  0  0  0  0  0  0  0  0  0
   -0.9666   -2.6340    1.6026 O   0  0  0  0  0  0  0  0  0  0  0  0
   -1.4866   -0.9220    0.2366 N   0  0  0  0  0  0  0  0  0  0  0  0
   -2.2166   -0.4790   -0.2994 H   0  0  0  0  0  0  0  0  0  0  0  0
   -0.1956   -0.2250    0.2596 C   0  0  1  0  0  0  0  0  0  0  0  0
    0.1536   -0.1661    1.2909 H   0  0  0  0  0  0  0  0  0  0  0  0
    0.8378   -1.0490   -0.5347 C   0  0  0  0  0  0  0  0  0  0  0  0
    0.4210   -1.2478   -1.5233 H   0  0  0  0  0  0  0  0  0  0  0  0
    1.7494   -0.4621   -0.6567 H   0  0  0  0  0  0  0  0  0  0  0  0
    1.1877   -2.3930    0.1261 C   0  0  0  0  0  0  0  0  0  0  0  0
    1.6002   -2.2055    1.1204 H   0  0  0  0  0  0  0  0  0  0  0  0
    0.2648   -2.9664    0.2467 H   0  0  0  0  0  0  0  0  0  0  0  0
    2.1986   -3.2236   -0.6782 C   0  0  0  0  0  0  0  0  0  0  0  0
    2.5293   -2.8185   -1.8153 O   0  5  0  0  0  0  0  0  0  0  0  0
    2.6480   -4.2511   -0.1235 O   0  0  0  0  0  0  0  0  0  0  0  0
   -0.3449    1.2198   -0.2606 C   0  0  0  0  0  0  0  0  0  0  0  0
   -1.2667    1.9372    0.1337 O   0  0  0  0  0  0  0  0  0  0  0  0
    0.5749    1.6599   -1.1291 N   0  0  0  0  0  0  0  0  0  0  0  0
    1.2682    0.9992   -1.4476 H   0  0  0  0  0  0  0  0  0  0  0  0
    0.5660    2.9919   -1.7282 C   0  0  0  0  0  0  0  0  0  0  0  0
    0.4738    3.7470   -0.9457 H   0  0  0  0  0  0  0  0  0  0  0  0
    1.4873    3.1578   -2.2883 H   0  0  0  0  0  0  0  0  0  0  0  0
   -0.2882    3.0803   -2.4023 H   0  0  0  0  0  0  0  0  0  0  0  0
  5  6  2  0  0  0  0
  5  7  1  0  0  0  0
  2  3  1  0  0  0  0
  2  4  1  0  0  0  0
  2  5  1  0  0  0  0
  1  2  1  0  0  0  0
 20 21  2  0  0  0  0
 20 22  1  0  0  0  0
 17 18  1  0  0  0  0
 17 19  2  0  0  0  0
 14 15  1  0  0  0  0
 14 16  1  0  0  0  0
 14 17  1  0  0  0  0
 11 12  1  0  0  0  0
 11 13  1  0  0  0  0
 11 14  1  0  0  0  0
  9 10  1  0  0  0  0
  9 11  1  0  0  0  0
  9 20  1  0  0  0  0
  7  8  1  0  0  0  0
  7  9  1  0  0  0  0
 24 25  1  0  0  0  0
 24 26  1  0  0  0  0
 24 27  1  0  0  0  0
 22 23  1  0  0  0  0
 22 24  1  0  0  0  0
M  CHG  1  18  -1
M  END
$$$$
default_name
  -OEChem-01062215323D

 27 26  0     1  0  0  0  0  0999 V2000
   -3.2406   -3.5400    1.2326 H   0  0  0  0  0  0  0  0  0  0  0  0
   -3.1436   -2.6190    0.6606 C   0  0  0  0  0  0  0  0  0  0  0  0
   -3.8786   -1.8920    0.9996 H   0  0  0  0  0  0  0  0  0  0  0  0
   -3.2846   -2.8280   -0.3984 H   0  0  0  0  0  0  0  0  0  0  0  0
   -1.7586   -2.0580    0.8686 C   0  0  0  0  0  0  0  0  0  0  0  0
   -0.9666   -2.6340    1.6026 O   0  0  0  0  0  0  0  0  0  0  0  0
   -1.4866   -0.9220    0.2366 N   0  0  0  0  0  0  0  0  0  0  0  0
   -2.2166   -0.4790   -0.2994 H   0  0  0  0  0  0  0  0  0  0  0  0
   -0.1956   -0.2250    0.2596 C   0  0  1  0  0  0  0  0  0  0  0  0
    0.1536   -0.1661    1.2909 H   0  0  0  0  0  0  0  0  0  0  0  0
    0.8378   -1.0490   -0.5347 C   0  0  0  0  0  0  0  0  0  0  0  0
    0.4210   -1.2478   -1.5233 H   0  0  0  0  0  0  0  0  0  0  0  0
    1.7494   -0.4621   -0.6567 H   0  0  0  0  0  0  0  0  0  0  0  0
    1.1877   -2.3930    0.1261 C   0  0  0  0  0  0  0  0  0  0  0  0
    1.6002   -2.2055    1.1204 H   0  0  0  0  0  0  0  0  0  0  0  0
    0.2648   -2.9664    0.2467 H   0  0  0  0  0  0  0  0  0  0  0  0
    2.1986   -3.2236   -0.6782 C   0  0  0  0  0  0  0  0  0  0  0  0
    2.5293   -2.8185   -1.8153 O   0  5  0  0  0  0  0  0  0  0  0  0
    2.6480   -4.2511   -0.1235 O   0  0  0  0  0  0  0  0  0  0  0  0
   -0.3449    1.2198   -0.2606 C   0  0  0  0  0  0  0  0  0  0  0  0
   -1.0791    2.0231    0.3185 O   0  0  0  0  0  0  0  0  0  0  0  0
    0.3694    1.5625   -1.3405 N   0  0  0  0  0  0  0  0  0  0  0  0
    0.9062    0.8374   -1.7930 H   0  0  0  0  0  0  0  0  0  0  0  0
    0.3271    2.8812   -1.9671 C   0  0  0  0  0  0  0  0  0  0  0  0
    0.4921    3.6526   -1.2131 H   0  0  0  0  0  0  0  0  0  0  0  0
    1.0949    2.9552   -2.7386 H   0  0  0  0  0  0  0  0  0  0  0  0
   -0.6550    3.0367   -2.4180 H   0  0  0  0  0  0  0  0  0  0  0  0
  5  6  2  0  0  0  0
  5  7  1  0  0  0  0
  2  3  1  0  0  0  0
  2  4  1  0  0  0  0
  2  5  1  0  0  0  0
  1  2  1  0  0  0  0
 20 21  2  0  0  0  0
 20 22  1  0  0  0  0
 17 18  1  0  0  0  0
 17 19  2  0  0  0  0
 14 15  1  0  0  0  0
 14 16  1  0  0  0  0
 14 17  1  0  0  0  0
 11 12  1  0  0  0  0
 11 13  1  0  0  0  0
 11 14  1  0  0  0  0
  9 10  1  0  0  0  0
  9 11  1  0  0  0  0
  9 20  1  0  0  0  0
  7  8  1  0  0  0  0
  7  9  1  0  0  0  0
 24 25  1  0  0  0  0
 24 26  1  0  0  0  0
 24 27  1  0  0  0  0
 22 23  1  0  0  0  0
 22 24  1  0  0  0  0
M  CHG  1  18  -1
M  END
$$$$
default_name
  -OEChem-01062215323D

 27 26  0     1  0  0  0  0  0999 V2000
   -3.2406   -3.5400    1.2326 H   0  0  0  0  0  0  0  0  0  0  0  0
   -3.1436   -2.6190    0.6606 C   0  0  0  0  0  0  0  0  0  0  0  0
   -3.8786   -1.8920    0.9996 H   0  0  0  0  0  0  0  0  0  0  0  0
   -3.2846   -2.8280   -0.3984 H   0  0  0  0  0  0  0  0  0  0  0  0
   -1.7586   -2.0580    0.8686 C   0  0  0  0  0  0  0  0  0  0  0  0
   -0.9666   -2.6340    1.6026 O   0  0  0  0  0  0  0  0  0  0  0  0
   -1.4866   -0.9220    0.2366 N   0  0  0  0  0  0  0  0  0  0  0  0
   -2.2166   -0.4790   -0.2994 H   0  0  0  0  0  0  0  0  0  0  0  0
   -0.1956   -0.2250    0.2596 C   0  0  1  0  0  0  0  0  0  0  0  0
    0.1536   -0.1661    1.2909 H   0  0  0  0  0  0  0  0  0  0  0  0
    0.8378   -1.0490   -0.5347 C   0  0  0  0  0  0  0  0  0  0  0  0
    0.4210   -1.2478   -1.5233 H   0  0  0  0  0  0  0  0  0  0  0  0
    1.7494   -0.4621   -0.6567 H   0  0  0  0  0  0  0  0  0  0  0  0
    1.1877   -2.3930    0.1261 C   0  0  0  0  0  0  0  0  0  0  0  0
    1.6002   -2.2055    1.1204 H   0  0  0  0  0  0  0  0  0  0  0  0
    0.2648   -2.9664    0.2467 H   0  0  0  0  0  0  0  0  0  0  0  0
    2.1986   -3.2236   -0.6782 C   0  0  0  0  0  0  0  0  0  0  0  0
    2.5293   -2.8185   -1.8153 O   0  5  0  0  0  0  0  0  0  0  0  0
    2.6480   -4.2511   -0.1235 O   0  0  0  0  0  0  0  0  0  0  0  0
   -0.3449    1.2198   -0.2606 C   0  0  0  0  0  0  0  0  0  0  0  0
   -0.8457    2.0944    0.4494 O   0  0  0  0  0  0  0  0  0  0  0  0
    0.1112    1.4811   -1.4925 N   0  0  0  0  0  0  0  0  0  0  0  0
    0.4586    0.7041   -2.0348 H   0  0  0  0  0  0  0  0  0  0  0  0
    0.0287    2.7891   -2.1372 C   0  0  0  0  0  0  0  0  0  0  0  0
    0.4367    3.5532   -1.4734 H   0  0  0  0  0  0  0  0  0  0  0  0
    0.5890    2.7824   -3.0732 H   0  0  0  0  0  0  0  0  0  0  0  0
   -1.0169    3.0263   -2.3431 H   0  0  0  0  0  0  0  0  0  0  0  0
  5  6  2  0  0  0  0
  5  7  1  0  0  0  0
  2  3  1  0  0  0  0
  2  4  1  0  0  0  0
  2  5  1  0  0  0  0
  1  2  1  0  0  0  0
 20 21  2  0  0  0  0
 20 22  1  0  0  0  0
 17 18  1  0  0  0  0
 17 19  2  0  0  0  0
 14 15  1  0  0  0  0
 14 16  1  0  0  0  0
 14 17  1  0  0  0  0
 11 12  1  0  0  0  0
 11 13  1  0  0  0  0
 11 14  1  0  0  0  0
  9 10  1  0  0  0  0
  9 11  1  0  0  0  0
  9 20  1  0  0  0  0
  7  8  1  0  0  0  0
  7  9  1  0  0  0  0
 24 25  1  0  0  0  0
 24 26  1  0  0  0  0
 24 27  1  0  0  0  0
 22 23  1  0  0  0  0
 22 24  1  0  0  0  0
M  CHG  1  18  -1
M  END
$$$$
default_name
  -OEChem-01062215323D

 27 26  0     1  0  0  0  0  0999 V2000
   -3.2406   -3.5400    1.2326 H   0  0  0  0  0  0  0  0  0  0  0  0
   -3.1436   -2.6190    0.6606 C   0  0  0  0  0  0  0  0  0  0  0  0
   -3.8786   -1.8920    0.9996 H   0  0  0  0  0  0  0  0  0  0  0  0
   -3.2846   -2.8280   -0.3984 H   0  0  0  0  0  0  0  0  0  0  0  0
   -1.7586   -2.0580    0.8686 C   0  0  0  0  0  0  0  0  0  0  0  0
   -0.9666   -2.6340    1.6026 O   0  0  0  0  0  0  0  0  0  0  0  0
   -1.4866   -0.9220    0.2366 N   0  0  0  0  0  0  0  0  0  0  0  0
   -2.2166   -0.4790   -0.2994 H   0  0  0  0  0  0  0  0  0  0  0  0
   -0.1956   -0.2250    0.2596 C   0  0  1  0  0  0  0  0  0  0  0  0
    0.1536   -0.1661    1.2909 H   0  0  0  0  0  0  0  0  0  0  0  0
    0.8378   -1.0490   -0.5347 C   0  0  0  0  0  0  0  0  0  0  0  0
    0.4210   -1.2478   -1.5233 H   0  0  0  0  0  0  0  0  0  0  0  0
    1.7494   -0.4621   -0.6567 H   0  0  0  0  0  0  0  0  0  0  0  0
    1.1877   -2.3930    0.1261 C   0  0  0  0  0  0  0  0  0  0  0  0
    1.6002   -2.2055    1.1204 H   0  0  0  0  0  0  0  0  0  0  0  0
    0.2648   -2.9664    0.2467 H   0  0  0  0  0  0  0  0  0  0  0  0
    2.1986   -3.2236   -0.6782 C   0  0  0  0  0  0  0  0  0  0  0  0
    2.5293   -2.8185   -1.8153 O   0  5  0  0  0  0  0  0  0  0  0  0
    2.6480   -4.2511   -0.1235 O   0  0  0  0  0  0  0  0  0  0  0  0
   -0.3449    1.2198   -0.2606 C   0  0  0  0  0  0  0  0  0  0  0  0
   -0.5824    2.1461    0.5174 O   0  0  0  0  0  0  0  0  0  0  0  0
   -0.1822    1.4211   -1.5747 N   0  0  0  0  0  0  0  0  0  0  0  0
   -0.0439    0.6083   -2.1567 H   0  0  0  0  0  0  0  0  0  0  0  0
   -0.3087    2.7219   -2.2269 C   0  0  0  0  0  0  0  0  0  0  0  0
    0.3114    3.4554   -1.7089 H   0  0  0  0  0  0  0  0  0  0  0  0
    0.0042    2.6512   -3.2696 H   0  0  0  0  0  0  0  0  0  0  0  0
   -1.3492    3.0496   -2.1828 H   0  0  0  0  0  0  0  0  0  0  0  0
  5  6  2  0  0  0  0
  5  7  1  0  0  0  0
  2  3  1  0  0  0  0
  2  4  1  0  0  0  0
  2  5  1  0  0  0  0
  1  2  1  0  0  0  0
 20 21  2  0  0  0  0
 20 22  1  0  0  0  0
 17 18  1  0  0  0  0
 17 19  2  0  0  0  0
 14 15  1  0  0  0  0
 14 16  1  0  0  0  0
 14 17  1  0  0  0  0
 11 12  1  0  0  0  0
 11 13  1  0  0  0  0
 11 14  1  0  0  0  0
  9 10  1  0  0  0  0
  9 11  1  0  0  0  0
  9 20  1  0  0  0  0
  7  8  1  0  0  0  0
  7  9  1  0  0  0  0
 24 25  1  0  0  0  0
 24 26  1  0  0  0  0
 24 27  1  0  0  0  0
 22 23  1  0  0  0  0
 22 24  1  0  0  0  0
M  CHG  1  18  -1
M  END
$$$$
default_name
  -OEChem-01062215323D

 27 26  0     1  0  0  0  0  0999 V2000
   -3.2406   -3.5400    1.2326 H   0  0  0  0  0  0  0  0  0  0  0  0
   -3.1436   -2.6190    0.6606 C   0  0  0  0  0  0  0  0  0  0  0  0
   -3.8786   -1.8920    0.9996 H   0  0  0  0  0  0  0  0  0  0  0  0
   -3.2846   -2.8280   -0.3984 H   0  0  0  0  0  0  0  0  0  0  0  0
   -1.7586   -2.0580    0.8686 C   0  0  0  0  0  0  0  0  0  0  0  0
   -0.9666   -2.6340    1.6026 O   0  0  0  0  0  0  0  0  0  0  0  0
   -1.4866   -0.9220    0.2366 N   0  0  0  0  0  0  0  0  0  0  0  0
   -2.2166   -0.4790   -0.2994 H   0  0  0  0  0  0  0  0  0  0  0  0
   -0.1956   -0.2250    0.2596 C   0  0  1  0  0  0  0  0  0  0  0  0
    0.1536   -0.1661    1.2909 H   0  0  0  0  0  0  0  0  0  0  0  0
    0.8378   -1.0490   -0.5347 C   0  0  0  0  0  0  0  0  0  0  0  0
    0.4210   -1.2478   -1.5233 H   0  0  0  0  0  0  0  0  0  0  0  0
    1.7494   -0.4621   -0.6567 H   0  0  0  0  0  0  0  0  0  0  0  0
    1.1877   -2.3930    0.1261 C   0  0  0  0  0  0  0  0  0  0  0  0
    1.6002   -2.2055    1.1204 H   0  0  0  0  0  0  0  0  0  0  0  0
    0.2648   -2.9664    0.2467 H   0  0  0  0  0  0  0  0  0  0  0  0
    2.1986   -3.2236   -0.6782 C   0  0  0  0  0  0  0  0  0  0  0  0
    2.5293   -2.8185   -1.8153 O   0  5  0  0  0  0  0  0  0  0  0  0
    2.6480   -4.2511   -0.1235 O   0  0  0  0  0  0  0  0  0  0  0  0
   -0.3449    1.2198   -0.2606 C   0  0  0  0  0  0  0  0  0  0  0  0
   -0.3069    2.1748    0.5181 O   0  0  0  0  0  0  0  0  0  0  0  0
   -0.4907    1.3868   -1.5815 N   0  0  0  0  0  0  0  0  0  0  0  0
   -0.5672    0.5565   -2.1501 H   0  0  0  0  0  0  0  0  0  0  0  0
   -0.6623    2.6842   -2.2301 C   0  0  0  0  0  0  0  0  0  0  0  0
    0.1248    3.3661   -1.9036 H   0  0  0  0  0  0  0  0  0  0  0  0
   -0.6198    2.5706   -3.3142 H   0  0  0  0  0  0  0  0  0  0  0  0
   -1.6293    3.1052   -1.9480 H   0  0  0  0  0  0  0  0  0  0  0  0
  5  6  2  0  0  0  0
  5  7  1  0  0  0  0
  2  3  1  0  0  0  0
  2  4  1  0  0  0  0
  2  5  1  0  0  0  0
  1  2  1  0  0  0  0
 20 21  2  0  0  0  0
 20 22  1  0  0  0  0
 17 18  1  0  0  0  0
 17 19  2  0  0  0  0
 14 15  1  0  0  0  0
 14 16  1  0  0  0  0
 14 17  1  0  0  0  0
 11 12  1  0  0  0  0
 11 13  1  0  0  0  0
 11 14  1  0  0  0  0
  9 10  1  0  0  0  0
  9 11  1  0  0  0  0
  9 20  1  0  0  0  0
  7  8  1  0  0  0  0
  7  9  1  0  0  0  0
 24 25  1  0  0  0  0
 24 26  1  0  0  0  0
 24 27  1  0  0  0  0
 22 23  1  0  0  0  0
 22 24  1  0  0  0  0
M  CHG  1  18  -1
M  END
$$$$
default_name
  -OEChem-01062215323D

 27 26  0     1  0  0  0  0  0999 V2000
   -3.2406   -3.5400    1.2326 H   0  0  0  0  0  0  0  0  0  0  0  0
   -3.1436   -2.6190    0.6606 C   0  0  0  0  0  0  0  0  0  0  0  0
   -3.8786   -1.8920    0.9996 H   0  0  0  0  0  0  0  0  0  0  0  0
   -3.2846   -2.8280   -0.3984 H   0  0  0  0  0  0  0  0  0  0  0  0
   -1.7586   -2.0580    0.8686 C   0  0  0  0  0  0  0  0  0  0  0  0
   -0.9666   -2.6340    1.6026 O   0  0  0  0  0  0  0  0  0  0  0  0
   -1.4866   -0.9220    0.2366 N   0  0  0  0  0  0  0  0  0  0  0  0
   -2.2166   -0.4790   -0.2994 H   0  0  0  0  0  0  0  0  0  0  0  0
   -0.1956   -0.2250    0.2596 C   0  0  1  0  0  0  0  0  0  0  0  0
    0.1536   -0.1661    1.2909 H   0  0  0  0  0  0  0  0  0  0  0  0
    0.8378   -1.0490   -0.5347 C   0  0  0  0  0  0  0  0  0  0  0  0
    0.4210   -1.2478   -1.5233 H   0  0  0  0  0  0  0  0  0  0  0  0
    1.7494   -0.4621   -0.6567 H   0  0  0  0  0  0  0  0  0  0  0  0
    1.1877   -2.3930    0.1261 C   0  0  0  0  0  0  0  0  0  0  0  0
    1.6002   -2.2055    1.1204 H   0  0  0  0  0  0  0  0  0  0  0  0
    0.2648   -2.9664    0.2467 H   0  0  0  0  0  0  0  0  0  0  0  0
    2.1986   -3.2236   -0.6782 C   0  0  0  0  0  0  0  0  0  0  0  0
    2.5293   -2.8185   -1.8153 O   0  5  0  0  0  0  0  0  0  0  0  0
    2.6480   -4.2511   -0.1235 O   0  0  0  0  0  0  0  0  0  0  0  0
   -0.3449    1.2198   -0.2606 C   0  0  0  0  0  0  0  0  0  0  0  0
   -0.0382    2.1785    0.4512 O   0  0  0  0  0  0  0  0  0  0  0  0
   -0.7933    1.3804   -1.5124 N   0  0  0  0  0  0  0  0  0  0  0  0
   -1.0756    0.5524   -2.0157 H   0  0  0  0  0  0  0  0  0  0  0  0
   -1.0078    2.6786   -2.1465 C   0  0  0  0  0  0  0  0  0  0  0  0
   -0.1104    3.2911   -2.0442 H   0  0  0  0  0  0  0  0  0  0  0  0
   -1.2403    2.5461   -3.2041 H   0  0  0  0  0  0  0  0  0  0  0  0
   -1.8381    3.1892   -1.6547 H   0  0  0  0  0  0  0  0  0  0  0  0
  5  6  2  0  0  0  0
  5  7  1  0  0  0  0
  2  3  1  0  0  0  0
  2  4  1  0  0  0  0
  2  5  1  0  0  0  0
  1  2  1  0  0  0  0
 20 21  2  0  0  0  0
 20 22  1  0  0  0  0
 17 18  1  0  0  0  0
 17 19  2  0  0  0  0
 14 15  1  0  0  0  0
 14 16  1  0  0  0  0
 14 17  1  0  0  0  0
 11 12  1  0  0  0  0
 11 13  1  0  0  0  0
 11 14  1  0  0  0  0
  9 10  1  0  0  0  0
  9 11  1  0  0  0  0
  9 20  1  0  0  0  0
  7  8  1  0  0  0  0
  7  9  1  0  0  0  0
 24 25  1  0  0  0  0
 24 26  1  0  0  0  0
 24 27  1  0  0  0  0
 22 23  1  0  0  0  0
 22 24  1  0  0  0  0
M  CHG  1  18  -1
M  END
$$$$
default_name
  -OEChem-01062215323D

 27 26  0     1  0  0  0  0  0999 V2000
   -3.2406   -3.5400    1.2326 H   0  0  0  0  0  0  0  0  0  0  0  0
   -3.1436   -2.6190    0.6606 C   0  0  0  0  0  0  0  0  0  0  0  0
   -3.8786   -1.8920    0.9996 H   0  0  0  0  0  0  0  0  0  0  0  0
   -3.2846   -2.8280   -0.3984 H   0  0  0  0  0  0  0  0  0  0  0  0
   -1.7586   -2.0580    0.8686 C   0  0  0  0  0  0  0  0  0  0  0  0
   -0.9666   -2.6340    1.6026 O   0  0  0  0  0  0  0  0  0  0  0  0
   -1.4866   -0.9220    0.2366 N   0  0  0  0  0  0  0  0  0  0  0  0
   -2.2166   -0.4790   -0.2994 H   0  0  0  0  0  0  0  0  0  0  0  0
   -0.1956   -0.2250    0.2596 C   0  0  1  0  0  0  0  0  0  0  0  0
    0.1536   -0.1661    1.2909 H   0  0  0  0  0  0  0  0  0  0  0  0
    0.8378   -1.0490   -0.5347 C   0  0  0  0  0  0  0  0  0  0  0  0
    0.4210   -1.2478   -1.5233 H   0  0  0  0  0  0  0  0  0  0  0  0
    1.7494   -0.4621   -0.6567 H   0  0  0  0  0  0  0  0  0  0  0  0
    1.1877   -2.3930    0.1261 C   0  0  0  0  0  0  0  0  0  0  0  0
    1.6002   -2.2055    1.1204 H   0  0  0  0  0  0  0  0  0  0  0  0
    0.2648   -2.9664    0.2467 H   0  0  0  0  0  0  0  0  0  0  0  0
    2.1986   -3.2236   -0.6782 C   0  0  0  0  0  0  0  0  0  0  0  0
    2.5293   -2.8185   -1.8153 O   0  5  0  0  0  0  0  0  0  0  0  0
    2.6480   -4.2511   -0.1235 O   0  0  0  0  0  0  0  0  0  0  0  0
   -0.3449    1.2198   -0.2606 C   0  0  0  0  0  0  0  0  0  0  0  0
    0.2054    2.1569    0.3213 O   0  0  0  0  0  0  0  0  0  0  0  0
   -1.0695    1.4023   -1.3722 N   0  0  0  0  0  0  0  0  0  0  0  0
   -1.5345    0.5961   -1.7625 H   0  0  0  0  0  0  0  0  0  0  0  0
   -1.3218    2.7054   -1.9819 C   0  0  0  0  0  0  0  0  0  0  0  0
   -0.3783    3.2357   -2.1211 H   0  0  0  0  0  0  0  0  0  0  0  0
   -1.8151    2.5794   -2.9467 H   0  0  0  0  0  0  0  0  0  0  0  0
   -1.9613    3.2959   -1.3229 H   0  0  0  0  0  0  0  0  0  0  0  0
  5  6  2  0  0  0  0
  5  7  1  0  0  0  0
  2  3  1  0  0  0  0
  2  4  1  0  0  0  0
  2  5  1  0  0  0  0
  1  2  1  0  0  0  0
 20 21  2  0  0  0  0
 20 22  1  0  0  0  0
 17 18  1  0  0  0  0
 17 19  2  0  0  0  0
 14 15  1  0  0  0  0
 14 16  1  0  0  0  0
 14 17  1  0  0  0  0
 11 12  1  0  0  0  0
 11 13  1  0  0  0  0
 11 14  1  0  0  0  0
  9 10  1  0  0  0  0
  9 11  1  0  0  0  0
  9 20  1  0  0  0  0
  7  8  1  0  0  0  0
  7  9  1  0  0  0  0
 24 25  1  0  0  0  0
 24 26  1  0  0  0  0
 24 27  1  0  0  0  0
 22 23  1  0  0  0  0
 22 24  1  0  0  0  0
M  CHG  1  18  -1
M  END
$$$$
default_name
  -OEChem-01062215323D

 27 26  0     1  0  0  0  0  0999 V2000
   -3.2406   -3.5400    1.2326 H   0  0  0  0  0  0  0  0  0  0  0  0
   -3.1436   -2.6190    0.6606 C   0  0  0  0  0  0  0  0  0  0  0  0
   -3.8786   -1.8920    0.9996 H   0  0  0  0  0  0  0  0  0  0  0  0
   -3.2846   -2.8280   -0.3984 H   0  0  0  0  0  0  0  0  0  0  0  0
   -1.7586   -2.0580    0.8686 C   0  0  0  0  0  0  0  0  0  0  0  0
   -0.9666   -2.6340    1.6026 O   0  0  0  0  0  0  0  0  0  0  0  0
   -1.4866   -0.9220    0.2366 N   0  0  0  0  0  0  0  0  0  0  0  0
   -2.2166   -0.4790   -0.2994 H   0  0  0  0  0  0  0  0  0  0  0  0
   -0.1956   -0.2250    0.2596 C   0  0  1  0  0  0  0  0  0  0  0  0
    0.1536   -0.1661    1.2909 H   0  0  0  0  0  0  0  0  0  0  0  0
    0.8378   -1.0490   -0.5347 C   0  0  0  0  0  0  0  0  0  0  0  0
    0.4210   -1.2478   -1.5233 H   0  0  0  0  0  0  0  0  0  0  0  0
    1.7494   -0.4621   -0.6567 H   0  0  0  0  0  0  0  0  0  0  0  0
    1.1877   -2.3930    0.1261 C   0  0  0  0  0  0  0  0  0  0  0  0
    1.6002   -2.2055    1.1204 H   0  0  0  0  0  0  0  0  0  0  0  0
    0.2648   -2.9664    0.2467 H   0  0  0  0  0  0  0  0  0  0  0  0
    2.1986   -3.2236   -0.6782 C   0  0  0  0  0  0  0  0  0  0  0  0
    2.5293   -2.8185   -1.8153 O   0  5  0  0  0  0  0  0  0  0  0  0
    2.6480   -4.2511   -0.1235 O   0  0  0  0  0  0  0  0  0  0  0  0
   -0.3449    1.2198   -0.2606 C   0  0  0  0  0  0  0  0  0  0  0  0
    0.4074    2.1116    0.1374 O   0  0  0  0  0  0  0  0  0  0  0  0
   -1.3004    1.4511   -1.1704 N   0  0  0  0  0  0  0  0  0  0  0  0
   -1.9125    0.6847   -1.4078 H   0  0  0  0  0  0  0  0  0  0  0  0
   -1.5829    2.7628   -1.7474 C   0  0  0  0  0  0  0  0  0  0  0  0
   -0.6604    3.2037   -2.1291 H   0  0  0  0  0  0  0  0  0  0  0  0
   -2.3051    2.6681   -2.5596 H   0  0  0  0  0  0  0  0  0  0  0  0
   -1.9907    3.4181   -0.9752 H   0  0  0  0  0  0  0  0  0  0  0  0
  5  6  2  0  0  0  0
  5  7  1  0  0  0  0
  2  3  1  0  0  0  0
  2  4  1  0  0  0  0
  2  5  1  0  0  0  0
  1  2  1  0  0  0  0
 20 21  2  0  0  0  0
 20 22  1  0  0  0  0
 17 18  1  0  0  0  0
 17 19  2  0  0  0  0
 14 15  1  0  0  0  0
 14 16  1  0  0  0  0
 14 17  1  0  0  0  0
 11 12  1  0  0  0  0
 11 13  1  0  0  0  0
 11 14  1  0  0  0  0
  9 10  1  0  0  0  0
  9 11  1  0  0  0  0
  9 20  1  0  0  0  0
  7  8  1  0  0  0  0
  7  9  1  0  0  0  0
 24 25  1  0  0  0  0
 24 26  1  0  0  0  0
 24 27  1  0  0  0  0
 22 23  1  0  0  0  0
 22 24  1  0  0  0  0
M  CHG  1  18  -1
M  END
$$$$
default_name
  -OEChem-01062215323D

 27 26  0     1  0  0  0  0  0999 V2000
   -3.2406   -3.5400    1.2326 H   0  0  0  0  0  0  0  0  0  0  0  0
   -3.1436   -2.6190    0.6606 C   0  0  0  0  0  0  0  0  0  0  0  0
   -3.8786   -1.8920    0.9996 H   0  0  0  0  0  0  0  0  0  0  0  0
   -3.2846   -2.8280   -0.3984 H   0  0  0  0  0  0  0  0  0  0  0  0
   -1.7586   -2.0580    0.8686 C   0  0  0  0  0  0  0  0  0  0  0  0
   -0.9666   -2.6340    1.6026 O   0  0  0  0  0  0  0  0  0  0  0  0
   -1.4866   -0.9220    0.2366 N   0  0  0  0  0  0  0  0  0  0  0  0
   -2.2166   -0.4790   -0.2994 H   0  0  0  0  0  0  0  0  0  0  0  0
   -0.1956   -0.2250    0.2596 C   0  0  1  0  0  0  0  0  0  0  0  0
    0.1536   -0.1661    1.2909 H   0  0  0  0  0  0  0  0  0  0  0  0
    0.8378   -1.0490   -0.5347 C   0  0  0  0  0  0  0  0  0  0  0  0
    0.4210   -1.2478   -1.5233 H   0  0  0  0  0  0  0  0  0  0  0  0
    1.7494   -0.4621   -0.6567 H   0  0  0  0  0  0  0  0  0  0  0  0
    1.1877   -2.3930    0.1261 C   0  0  0  0  0  0  0  0  0  0  0  0
    1.6002   -2.2055    1.1204 H   0  0  0  0  0  0  0  0  0  0  0  0
    0.2648   -2.9664    0.2467 H   0  0  0  0  0  0  0  0  0  0  0  0
    2.1986   -3.2236   -0.6782 C   0  0  0  0  0  0  0  0  0  0  0  0
    2.5293   -2.8185   -1.8153 O   0  5  0  0  0  0  0  0  0  0  0  0
    2.6480   -4.2511   -0.1235 O   0  0  0  0  0  0  0  0  0  0  0  0
   -0.3449    1.2198   -0.2606 C   0  0  0  0  0  0  0  0  0  0  0  0
    0.5540    2.0456   -0.0880 O   0  0  0  0  0  0  0  0  0  0  0  0
   -1.4701    1.5235   -0.9207 N   0  0  0  0  0  0  0  0  0  0  0  0
   -2.1840    0.8122   -0.9758 H   0  0  0  0  0  0  0  0  0  0  0  0
   -1.7732    2.8470   -1.4591 C   0  0  0  0  0  0  0  0  0  0  0  0
   -0.9377    3.1971   -2.0676 H   0  0  0  0  0  0  0  0  0  0  0  0
   -2.6768    2.8062   -2.0691 H   0  0  0  0  0  0  0  0  0  0  0  0
   -1.9241    3.5473   -0.6353 H   0  0  0  0  0  0  0  0  0  0  0  0
  5  6  2  0  0  0  0
  5  7  1  0  0  0  0
  2  3  1  0  0  0  0
  2  4  1  0  0  0  0
  2  5  1  0  0  0  0
  1  2  1  0  0  0  0
 20 21  2  0  0  0  0
 20 22  1  0  0  0  0
 17 18  1  0  0  0  0
 17 19  2  0  0  0  0
 14 15  1  0  0  0  0
 14 16  1  0  0  0  0
 14 17  1  0  0  0  0
 11 12  1  0  0  0  0
 11 13  1  0  0  0  0
 11 14  1  0  0  0  0
  9 10  1  0  0  0  0
  9 11  1  0  0  0  0
  9 20  1  0  0  0  0
  7  8  1  0  0  0  0
  7  9  1  0  0  0  0
 24 25  1  0  0  0  0
 24 26  1  0  0  0  0
 24 27  1  0  0  0  0
 22 23  1  0  0  0  0
 22 24  1  0  0  0  0
M  CHG  1  18  -1
M  END
$$$$
default_name
  -OEChem-01062215323D

 27 26  0     1  0  0  0  0  0999 V2000
   -3.2406   -3.5400    1.2326 H   0  0  0  0  0  0  0  0  0  0  0  0
   -3.1436   -2.6190    0.6606 C   0  0  0  0  0  0  0  0  0  0  0  0
   -3.8786   -1.8920    0.9996 H   0  0  0  0  0  0  0  0  0  0  0  0
   -3.2846   -2.8280   -0.3984 H   0  0  0  0  0  0  0  0  0  0  0  0
   -1.7586   -2.0580    0.8686 C   0  0  0  0  0  0  0  0  0  0  0  0
   -0.9666   -2.6340    1.6026 O   0  0  0  0  0  0  0  0  0  0  0  0
   -1.4866   -0.9220    0.2366 N   0  0  0  0  0  0  0  0  0  0  0  0
   -2.2166   -0.4790   -0.2994 H   0  0  0  0  0  0  0  0  0  0  0  0
   -0.1956   -0.2250    0.2596 C   0  0  1  0  0  0  0  0  0  0  0  0
    0.1536   -0.1661    1.2909 H   0  0  0  0  0  0  0  0  0  0  0  0
    0.8378   -1.0490   -0.5347 C   0  0  0  0  0  0  0  0  0  0  0  0
    0.4210   -1.2478   -1.5233 H   0  0  0  0  0  0  0  0  0  0  0  0
    1.7494   -0.4621   -0.6567 H   0  0  0  0  0  0  0  0  0  0  0  0
    1.1877   -2.3930    0.1261 C   0  0  0  0  0  0  0  0  0  0  0  0
    1.6002   -2.2055    1.1204 H   0  0  0  0  0  0  0  0  0  0  0  0
    0.2648   -2.9664    0.2467 H   0  0  0  0  0  0  0  0  0  0  0  0
    2.1986   -3.2236   -0.6782 C   0  0  0  0  0  0  0  0  0  0  0  0
    2.5293   -2.8185   -1.8153 O   0  5  0  0  0  0  0  0  0  0  0  0
    2.6480   -4.2511   -0.1235 O   0  0  0  0  0  0  0  0  0  0  0  0
   -0.3449    1.2198   -0.2606 C   0  0  0  0  0  0  0  0  0  0  0  0
    0.6352    1.9633   -0.3397 O   0  0  0  0  0  0  0  0  0  0  0  0
   -1.5673    1.6144   -0.6401 N   0  0  0  0  0  0  0  0  0  0  0  0
   -2.3303    0.9698   -0.4959 H   0  0  0  0  0  0  0  0  0  0  0  0
   -1.8799    2.9521   -1.1366 C   0  0  0  0  0  0  0  0  0  0  0  0
   -1.1913    3.2166   -1.9408 H   0  0  0  0  0  0  0  0  0  0  0  0
   -2.9048    2.9844   -1.5087 H   0  0  0  0  0  0  0  0  0  0  0  0
   -1.7661    3.6749   -0.3264 H   0  0  0  0  0  0  0  0  0  0  0  0
  5  6  2  0  0  0  0
  5  7  1  0  0  0  0
  2  3  1  0  0  0  0
  2  4  1  0  0  0  0
  2  5  1  0  0  0  0
  1  2  1  0  0  0  0
 20 21  2  0  0  0  0
 20 22  1  0  0  0  0
 17 18  1  0  0  0  0
 17 19  2  0  0  0  0
 14 15  1  0  0  0  0
 14 16  1  0  0  0  0
 14 17  1  0  0  0  0
 11 12  1  0  0  0  0
 11 13  1  0  0  0  0
 11 14  1  0  0  0  0
  9 10  1  0  0  0  0
  9 11  1  0  0  0  0
  9 20  1  0  0  0  0
  7  8  1  0  0  0  0
  7  9  1  0  0  0  0
 24 25  1  0  0  0  0
 24 26  1  0  0  0  0
 24 27  1  0  0  0  0
 22 23  1  0  0  0  0
 22 24  1  0  0  0  0
M  CHG  1  18  -1
M  END
$$$$
default_name
  -OEChem-01062215323D

 27 26  0     1  0  0  0  0  0999 V2000
   -3.2406   -3.5400    1.2326 H   0  0  0  0  0  0  0  0  0  0  0  0
   -3.1436   -2.6190    0.6606 C   0  0  0  0  0  0  0  0  0  0  0  0
   -3.8786   -1.8920    0.9996 H   0  0  0  0  0  0  0  0  0  0  0  0
   -3.2846   -2.8280   -0.3984 H   0  0  0  0  0  0  0  0  0  0  0  0
   -1.7586   -2.0580    0.8686 C   0  0  0  0  0  0  0  0  0  0  0  0
   -0.9666   -2.6340    1.6026 O   0  0  0  0  0  0  0  0  0  0  0  0
   -1.4866   -0.9220    0.2366 N   0  0  0  0  0  0  0  0  0  0  0  0
   -2.2166   -0.4790   -0.2994 H   0  0  0  0  0  0  0  0  0  0  0  0
   -0.1956   -0.2250    0.2596 C   0  0  1  0  0  0  0  0  0  0  0  0
    0.1536   -0.1661    1.2909 H   0  0  0  0  0  0  0  0  0  0  0  0
    0.8378   -1.0490   -0.5347 C   0  0  0  0  0  0  0  0  0  0  0  0
    0.4210   -1.2478   -1.5233 H   0  0  0  0  0  0  0  0  0  0  0  0
    1.7494   -0.4621   -0.6567 H   0  0  0  0  0  0  0  0  0  0  0  0
    1.1877   -2.3930    0.1261 C   0  0  0  0  0  0  0  0  0  0  0  0
    1.6002   -2.2055    1.1204 H   0  0  0  0  0  0  0  0  0  0  0  0
    0.2648   -2.9664    0.2467 H   0  0  0  0  0  0  0  0  0  0  0  0
    2.1986   -3.2236   -0.6782 C   0  0  0  0  0  0  0  0  0  0  0  0
    2.5293   -2.8185   -1.8153 O   0  5  0  0  0  0  0  0  0  0  0  0
    2.6480   -4.2511   -0.1235 O   0  0  0  0  0  0  0  0  0  0  0  0
   -0.3449    1.2198   -0.2606 C   0  0  0  0  0  0  0  0  0  0  0  0
    0.6454    1.8705   -0.6004 O   0  0  0  0  0  0  0  0  0  0  0  0
   -1.5853    1.7178   -0.3479 N   0  0  0  0  0  0  0  0  0  0  0  0
   -2.3417    1.1469   -0.0008 H   0  0  0  0  0  0  0  0  0  0  0  0
   -1.8955    3.0710   -0.8019 C   0  0  0  0  0  0  0  0  0  0  0  0
   -1.4037    3.2607   -1.7574 H   0  0  0  0  0  0  0  0  0  0  0  0
   -2.9738    3.1905   -0.9166 H   0  0  0  0  0  0  0  0  0  0  0  0
   -1.5275    3.7921   -0.0695 H   0  0  0  0  0  0  0  0  0  0  0  0
  5  6  2  0  0  0  0
  5  7  1  0  0  0  0
  2  3  1  0  0  0  0
  2  4  1  0  0  0  0
  2  5  1  0  0  0  0
  1  2  1  0  0  0  0
 20 21  2  0  0  0  0
 20 22  1  0  0  0  0
 17 18  1  0  0  0  0
 17 19  2  0  0  0  0
 14 15  1  0  0  0  0
 14 16  1  0  0  0  0
 14 17  1  0  0  0  0
 11 12  1  0  0  0  0
 11 13  1  0  0  0  0
 11 14  1  0  0  0  0
  9 10  1  0  0  0  0
  9 11  1  0  0  0  0
  9 20  1  0  0  0  0
  7  8  1  0  0  0  0
  7  9  1  0  0  0  0
 24 25  1  0  0  0  0
 24 26  1  0  0  0  0
 24 27  1  0  0  0  0
 22 23  1  0  0  0  0
 22 24  1  0  0  0  0
M  CHG  1  18  -1
M  END
$$$$
default_name
  -OEChem-01062215323D

 27 26  0     1  0  0  0  0  0999 V2000
   -3.2406   -3.5400    1.2326 H   0  0  0  0  0  0  0  0  0  0  0  0
   -3.1436   -2.6190    0.6606 C   0  0  0  0  0  0  0  0  0  0  0  0
   -3.8786   -1.8920    0.9996 H   0  0  0  0  0  0  0  0  0  0  0  0
   -3.2846   -2.8280   -0.3984 H   0  0  0  0  0  0  0  0  0  0  0  0
   -1.7586   -2.0580    0.8686 C   0  0  0  0  0  0  0  0  0  0  0  0
   -0.9666   -2.6340    1.6026 O   0  0  0  0  0  0  0  0  0  0  0  0
   -1.4866   -0.9220    0.2366 N   0  0  0  0  0  0  0  0  0  0  0  0
   -2.2166   -0.4790   -0.2994 H   0  0  0  0  0  0  0  0  0  0  0  0
   -0.1956   -0.2250    0.2596 C   0  0  1  0  0  0  0  0  0  0  0  0
    0.1536   -0.1661    1.2909 H   0  0  0  0  0  0  0  0  0  0  0  0
    0.8378   -1.0490   -0.5347 C   0  0  0  0  0  0  0  0  0  0  0  0
    0.4210   -1.2478   -1.5233 H   0  0  0  0  0  0  0  0  0  0  0  0
    1.7494   -0.4621   -0.6567 H   0  0  0  0  0  0  0  0  0  0  0  0
    1.1877   -2.3930    0.1261 C   0  0  0  0  0  0  0  0  0  0  0  0
    1.6002   -2.2055    1.1204 H   0  0  0  0  0  0  0  0  0  0  0  0
    0.2648   -2.9664    0.2467 H   0  0  0  0  0  0  0  0  0  0  0  0
    2.1986   -3.2236   -0.6782 C   0  0  0  0  0  0  0  0  0  0  0  0
    2.5293   -2.8185   -1.8153 O   0  5  0  0  0  0  0  0  0  0  0  0
    2.6480   -4.2511   -0.1235 O   0  0  0  0  0  0  0  0  0  0  0  0
   -0.3449    1.2198   -0.2606 C   0  0  0  0  0  0  0  0  0  0  0  0
    0.5840    1.7735   -0.8524 O   0  0  0  0  0  0  0  0  0  0  0  0
   -1.5227    1.8265   -0.0639 N   0  0  0  0  0  0  0  0  0  0  0  0
   -2.2172    1.3313    0.4756 H   0  0  0  0  0  0  0  0  0  0  0  0
   -1.8192    3.1956   -0.4777 C   0  0  0  0  0  0  0  0  0  0  0  0
   -1.5606    3.3264   -1.5299 H   0  0  0  0  0  0  0  0  0  0  0  0
   -2.8789    3.4104   -0.3332 H   0  0  0  0  0  0  0  0  0  0  0  0
   -1.2245    3.8909    0.1179 H   0  0  0  0  0  0  0  0  0  0  0  0
  5  6  2  0  0  0  0
  5  7  1  0  0  0  0
  2  3  1  0  0  0  0
  2  4  1  0  0  0  0
  2  5  1  0  0  0  0
  1  2  1  0  0  0  0
 20 21  2  0  0  0  0
 20 22  1  0  0  0  0
 17 18  1  0  0  0  0
 17 19  2  0  0  0  0
 14 15  1  0  0  0  0
 14 16  1  0  0  0  0
 14 17  1  0  0  0  0
 11 12  1  0  0  0  0
 11 13  1  0  0  0  0
 11 14  1  0  0  0  0
  9 10  1  0  0  0  0
  9 11  1  0  0  0  0
  9 20  1  0  0  0  0
  7  8  1  0  0  0  0
  7  9  1  0  0  0  0
 24 25  1  0  0  0  0
 24 26  1  0  0  0  0
 24 27  1  0  0  0  0
 22 23  1  0  0  0  0
 22 24  1  0  0  0  0
M  CHG  1  18  -1
M  END
$$$$
default_name
  -OEChem-01062215323D

 27 26  0     1  0  0  0  0  0999 V2000
   -3.2406   -3.5400    1.2326 H   0  0  0  0  0  0  0  0  0  0  0  0
   -3.1436   -2.6190    0.6606 C   0  0  0  0  0  0  0  0  0  0  0  0
   -3.8786   -1.8920    0.9996 H   0  0  0  0  0  0  0  0  0  0  0  0
   -3.2846   -2.8280   -0.3984 H   0  0  0  0  0  0  0  0  0  0  0  0
   -1.7586   -2.0580    0.8686 C   0  0  0  0  0  0  0  0  0  0  0  0
   -0.9666   -2.6340    1.6026 O   0  0  0  0  0  0  0  0  0  0  0  0
   -1.4866   -0.9220    0.2366 N   0  0  0  0  0  0  0  0  0  0  0  0
   -2.2166   -0.4790   -0.2994 H   0  0  0  0  0  0  0  0  0  0  0  0
   -0.1956   -0.2250    0.2596 C   0  0  1  0  0  0  0  0  0  0  0  0
    0.1536   -0.1661    1.2909 H   0  0  0  0  0  0  0  0  0  0  0  0
    0.8378   -1.0490   -0.5347 C   0  0  0  0  0  0  0  0  0  0  0  0
    0.4210   -1.2478   -1.5233 H   0  0  0  0  0  0  0  0  0  0  0  0
    1.7494   -0.4621   -0.6567 H   0  0  0  0  0  0  0  0  0  0  0  0
    1.1877   -2.3930    0.1261 C   0  0  0  0  0  0  0  0  0  0  0  0
    1.6002   -2.2055    1.1204 H   0  0  0  0  0  0  0  0  0  0  0  0
    0.2648   -2.9664    0.2467 H   0  0  0  0  0  0  0  0  0  0  0  0
    2.1986   -3.2236   -0.6782 C   0  0  0  0  0  0  0  0  0  0  0  0
    2.5293   -2.8185   -1.8153 O   0  5  0  0  0  0  0  0  0  0  0  0
    2.6480   -4.2511   -0.1235 O   0  0  0  0  0  0  0  0  0  0  0  0
   -0.3449    1.2198   -0.2606 C   0  0  0  0  0  0  0  0  0  0  0  0
    0.4552    1.6788   -1.0785 O   0  0  0  0  0  0  0  0  0  0  0  0
   -1.3840    1.9332    0.1926 N   0  0  0  0  0  0  0  0  0  0  0  0
   -1.9653    1.5106    0.9011 H   0  0  0  0  0  0  0  0  0  0  0  0
   -1.6560    3.3174   -0.1862 C   0  0  0  0  0  0  0  0  0  0  0  0
   -1.6513    3.4092   -1.2737 H   0  0  0  0  0  0  0  0  0  0  0  0
   -2.6267    3.6291    0.2019 H   0  0  0  0  0  0  0  0  0  0  0  0
   -0.8778    3.9646    0.2230 H   0  0  0  0  0  0  0  0  0  0  0  0
  5  6  2  0  0  0  0
  5  7  1  0  0  0  0
  2  3  1  0  0  0  0
  2  4  1  0  0  0  0
  2  5  1  0  0  0  0
  1  2  1  0  0  0  0
 20 21  2  0  0  0  0
 20 22  1  0  0  0  0
 17 18  1  0  0  0  0
 17 19  2  0  0  0  0
 14 15  1  0  0  0  0
 14 16  1  0  0  0  0
 14 17  1  0  0  0  0
 11 12  1  0  0  0  0
 11 13  1  0  0  0  0
 11 14  1  0  0  0  0
  9 10  1  0  0  0  0
  9 11  1  0  0  0  0
  9 20  1  0  0  0  0
  7  8  1  0  0  0  0
  7  9  1  0  0  0  0
 24 25  1  0  0  0  0
 24 26  1  0  0  0  0
 24 27  1  0  0  0  0
 22 23  1  0  0  0  0
 22 24  1  0  0  0  0
M  CHG  1  18  -1
M  END
$$$$
default_name
  -OEChem-01062215323D

 27 26  0     1  0  0  0  0  0999 V2000
   -3.2406   -3.5400    1.2326 H   0  0  0  0  0  0  0  0  0  0  0  0
   -3.1436   -2.6190    0.6606 C   0  0  0  0  0  0  0  0  0  0  0  0
   -3.8786   -1.8920    0.9996 H   0  0  0  0  0  0  0  0  0  0  0  0
   -3.2846   -2.8280   -0.3984 H   0  0  0  0  0  0  0  0  0  0  0  0
   -1.7586   -2.0580    0.8686 C   0  0  0  0  0  0  0  0  0  0  0  0
   -0.9666   -2.6340    1.6026 O   0  0  0  0  0  0  0  0  0  0  0  0
   -1.4866   -0.9220    0.2366 N   0  0  0  0  0  0  0  0  0  0  0  0
   -2.2166   -0.4790   -0.2994 H   0  0  0  0  0  0  0  0  0  0  0  0
   -0.1956   -0.2250    0.2596 C   0  0  1  0  0  0  0  0  0  0  0  0
    0.1536   -0.1661    1.2909 H   0  0  0  0  0  0  0  0  0  0  0  0
    0.8378   -1.0490   -0.5347 C   0  0  0  0  0  0  0  0  0  0  0  0
    0.4210   -1.2478   -1.5233 H   0  0  0  0  0  0  0  0  0  0  0  0
    1.7494   -0.4621   -0.6567 H   0  0  0  0  0  0  0  0  0  0  0  0
    1.1877   -2.3930    0.1261 C   0  0  0  0  0  0  0  0  0  0  0  0
    1.6002   -2.2055    1.1204 H   0  0  0  0  0  0  0  0  0  0  0  0
    0.2648   -2.9664    0.2467 H   0  0  0  0  0  0  0  0  0  0  0  0
    2.1986   -3.2236   -0.6782 C   0  0  0  0  0  0  0  0  0  0  0  0
    2.5293   -2.8185   -1.8153 O   0  5  0  0  0  0  0  0  0  0  0  0
    2.6480   -4.2511   -0.1235 O   0  0  0  0  0  0  0  0  0  0  0  0
   -0.3449    1.2198   -0.2606 C   0  0  0  0  0  0  0  0  0  0  0  0
    0.2676    1.5928   -1.2632 O   0  0  0  0  0  0  0  0  0  0  0  0
   -1.1785    2.0306    0.4041 N   0  0  0  0  0  0  0  0  0  0  0  0
   -1.6033    1.6724    1.2465 H   0  0  0  0  0  0  0  0  0  0  0  0
   -1.4170    3.4281    0.0527 C   0  0  0  0  0  0  0  0  0  0  0  0
   -1.6696    3.5036   -1.0063 H   0  0  0  0  0  0  0  0  0  0  0  0
   -2.2342    3.8318    0.6521 H   0  0  0  0  0  0  0  0  0  0  0  0
   -0.5110    4.0081    0.2387 H   0  0  0  0  0  0  0  0  0  0  0  0
  5  6  2  0  0  0  0
  5  7  1  0  0  0  0
  2  3  1  0  0  0  0
  2  4  1  0  0  0  0
  2  5  1  0  0  0  0
  1  2  1  0  0  0  0
 20 21  2  0  0  0  0
 20 22  1  0  0  0  0
 17 18  1  0  0  0  0
 17 19  2  0  0  0  0
 14 15  1  0  0  0  0
 14 16  1  0  0  0  0
 14 17  1  0  0  0  0
 11 12  1  0  0  0  0
 11 13  1  0  0  0  0
 11 14  1  0  0  0  0
  9 10  1  0  0  0  0
  9 11  1  0  0  0  0
  9 20  1  0  0  0  0
  7  8  1  0  0  0  0
  7  9  1  0  0  0  0
 24 25  1  0  0  0  0
 24 26  1  0  0  0  0
 24 27  1  0  0  0  0
 22 23  1  0  0  0  0
 22 24  1  0  0  0  0
M  CHG  1  18  -1
M  END
$$$$
default_name
  -OEChem-01062215323D

 27 26  0     1  0  0  0  0  0999 V2000
   -3.2406   -3.5400    1.2326 H   0  0  0  0  0  0  0  0  0  0  0  0
   -3.1436   -2.6190    0.6606 C   0  0  0  0  0  0  0  0  0  0  0  0
   -3.8786   -1.8920    0.9996 H   0  0  0  0  0  0  0  0  0  0  0  0
   -3.2846   -2.8280   -0.3984 H   0  0  0  0  0  0  0  0  0  0  0  0
   -1.7586   -2.0580    0.8686 C   0  0  0  0  0  0  0  0  0  0  0  0
   -0.9666   -2.6340    1.6026 O   0  0  0  0  0  0  0  0  0  0  0  0
   -1.4866   -0.9220    0.2366 N   0  0  0  0  0  0  0  0  0  0  0  0
   -2.2166   -0.4790   -0.2994 H   0  0  0  0  0  0  0  0  0  0  0  0
   -0.1956   -0.2250    0.2596 C   0  0  1  0  0  0  0  0  0  0  0  0
    0.1536   -0.1661    1.2909 H   0  0  0  0  0  0  0  0  0  0  0  0
    0.8378   -1.0490   -0.5347 C   0  0  0  0  0  0  0  0  0  0  0  0
    0.4210   -1.2478   -1.5233 H   0  0  0  0  0  0  0  0  0  0  0  0
    1.7494   -0.4621   -0.6567 H   0  0  0  0  0  0  0  0  0  0  0  0
    1.1877   -2.3930    0.1261 C   0  0  0  0  0  0  0  0  0  0  0  0
    1.6002   -2.2055    1.1204 H   0  0  0  0  0  0  0  0  0  0  0  0
    0.2648   -2.9664    0.2467 H   0  0  0  0  0  0  0  0  0  0  0  0
    2.1986   -3.2236   -0.6782 C   0  0  0  0  0  0  0  0  0  0  0  0
    2.5293   -2.8185   -1.8153 O   0  5  0  0  0  0  0  0  0  0  0  0
    2.6480   -4.2511   -0.1235 O   0  0  0  0  0  0  0  0  0  0  0  0
   -0.3449    1.2198   -0.2606 C   0  0  0  0  0  0  0  0  0  0  0  0
    0.0342    1.5216   -1.3941 O   0  0  0  0  0  0  0  0  0  0  0  0
   -0.9203    2.1120    0.5561 N   0  0  0  0  0  0  0  0  0  0  0  0
   -1.1558    1.8057    1.4884 H   0  0  0  0  0  0  0  0  0  0  0  0
   -1.1187    3.5202    0.2228 C   0  0  0  0  0  0  0  0  0  0  0  0
   -1.6142    3.6030   -0.7460 H   0  0  0  0  0  0  0  0  0  0  0  0
   -1.7284    4.0046    0.9868 H   0  0  0  0  0  0  0  0  0  0  0  0
   -0.1491    4.0186    0.1638 H   0  0  0  0  0  0  0  0  0  0  0  0
  5  6  2  0  0  0  0
  5  7  1  0  0  0  0
  2  3  1  0  0  0  0
  2  4  1  0  0  0  0
  2  5  1  0  0  0  0
  1  2  1  0  0  0  0
 20 21  2  0  0  0  0
 20 22  1  0  0  0  0
 17 18  1  0  0  0  0
 17 19  2  0  0  0  0
 14 15  1  0  0  0  0
 14 16  1  0  0  0  0
 14 17  1  0  0  0  0
 11 12  1  0  0  0  0
 11 13  1  0  0  0  0
 11 14  1  0  0  0  0
  9 10  1  0  0  0  0
  9 11  1  0  0  0  0
  9 20  1  0  0  0  0
  7  8  1  0  0  0  0
  7  9  1  0  0  0  0
 24 25  1  0  0  0  0
 24 26  1  0  0  0  0
 24 27  1  0  0  0  0
 22 23  1  0  0  0  0
 22 24  1  0  0  0  0
M  CHG  1  18  -1
M  END
$$$$
default_name
  -OEChem-01062215323D

 27 26  0     1  0  0  0  0  0999 V2000
   -3.2406   -3.5400    1.2326 H   0  0  0  0  0  0  0  0  0  0  0  0
   -3.1436   -2.6190    0.6606 C   0  0  0  0  0  0  0  0  0  0  0  0
   -3.8786   -1.8920    0.9996 H   0  0  0  0  0  0  0  0  0  0  0  0
   -3.2846   -2.8280   -0.3984 H   0  0  0  0  0  0  0  0  0  0  0  0
   -1.7586   -2.0580    0.8686 C   0  0  0  0  0  0  0  0  0  0  0  0
   -0.9666   -2.6340    1.6026 O   0  0  0  0  0  0  0  0  0  0  0  0
   -1.4866   -0.9220    0.2366 N   0  0  0  0  0  0  0  0  0  0  0  0
   -2.2166   -0.4790   -0.2994 H   0  0  0  0  0  0  0  0  0  0  0  0
   -0.1956   -0.2250    0.2596 C   0  0  1  0  0  0  0  0  0  0  0  0
    0.1536   -0.1661    1.2909 H   0  0  0  0  0  0  0  0  0  0  0  0
    0.8378   -1.0490   -0.5347 C   0  0  0  0  0  0  0  0  0  0  0  0
    0.4210   -1.2478   -1.5233 H   0  0  0  0  0  0  0  0  0  0  0  0
    1.7494   -0.4621   -0.6567 H   0  0  0  0  0  0  0  0  0  0  0  0
    1.1877   -2.3930    0.1261 C   0  0  0  0  0  0  0  0  0  0  0  0
    1.6002   -2.2055    1.1204 H   0  0  0  0  0  0  0  0  0  0  0  0
    0.2648   -2.9664    0.2467 H   0  0  0  0  0  0  0  0  0  0  0  0
    2.1986   -3.2236   -0.6782 C   0  0  0  0  0  0  0  0  0  0  0  0
    2.5293   -2.8185   -1.8153 O   0  5  0  0  0  0  0  0  0  0  0  0
    2.6480   -4.2511   -0.1235 O   0  0  0  0  0  0  0  0  0  0  0  0
   -0.3449    1.2198   -0.2606 C   0  0  0  0  0  0  0  0  0  0  0  0
   -0.2291    1.4699   -1.4622 O   0  0  0  0  0  0  0  0  0  0  0  0
   -0.6270    2.1719    0.6383 N   0  0  0  0  0  0  0  0  0  0  0  0
   -0.6532    1.9015    1.6102 H   0  0  0  0  0  0  0  0  0  0  0  0
   -0.7812    3.5874    0.3125 C   0  0  0  0  0  0  0  0  0  0  0  0
   -1.4890    3.7008   -0.5105 H   0  0  0  0  0  0  0  0  0  0  0  0
   -1.1435    4.1357    1.1832 H   0  0  0  0  0  0  0  0  0  0  0  0
    0.1832    3.9952    0.0035 H   0  0  0  0  0  0  0  0  0  0  0  0
  5  6  2  0  0  0  0
  5  7  1  0  0  0  0
  2  3  1  0  0  0  0
  2  4  1  0  0  0  0
  2  5  1  0  0  0  0
  1  2  1  0  0  0  0
 20 21  2  0  0  0  0
 20 22  1  0  0  0  0
 17 18  1  0  0  0  0
 17 19  2  0  0  0  0
 14 15  1  0  0  0  0
 14 16  1  0  0  0  0
 14 17  1  0  0  0  0
 11 12  1  0  0  0  0
 11 13  1  0  0  0  0
 11 14  1  0  0  0  0
  9 10  1  0  0  0  0
  9 11  1  0  0  0  0
  9 20  1  0  0  0  0
  7  8  1  0  0  0  0
  7  9  1  0  0  0  0
 24 25  1  0  0  0  0
 24 26  1  0  0  0  0
 24 27  1  0  0  0  0
 22 23  1  0  0  0  0
 22 24  1  0  0  0  0
M  CHG  1  18  -1
M  END
$$$$
default_name
  -OEChem-01062215323D

 27 26  0     1  0  0  0  0  0999 V2000
   -3.2406   -3.5400    1.2326 H   0  0  0  0  0  0  0  0  0  0  0  0
   -3.1436   -2.6190    0.6606 C   0  0  0  0  0  0  0  0  0  0  0  0
   -3.8786   -1.8920    0.9996 H   0  0  0  0  0  0  0  0  0  0  0  0
   -3.2846   -2.8280   -0.3984 H   0  0  0  0  0  0  0  0  0  0  0  0
   -1.7586   -2.0580    0.8686 C   0  0  0  0  0  0  0  0  0  0  0  0
   -0.9666   -2.6340    1.6026 O   0  0  0  0  0  0  0  0  0  0  0  0
   -1.4866   -0.9220    0.2366 N   0  0  0  0  0  0  0  0  0  0  0  0
   -2.2166   -0.4790   -0.2994 H   0  0  0  0  0  0  0  0  0  0  0  0
   -0.1956   -0.2250    0.2596 C   0  0  1  0  0  0  0  0  0  0  0  0
    0.1536   -0.1661    1.2909 H   0  0  0  0  0  0  0  0  0  0  0  0
    0.8378   -1.0490   -0.5347 C   0  0  0  0  0  0  0  0  0  0  0  0
    0.4210   -1.2478   -1.5233 H   0  0  0  0  0  0  0  0  0  0  0  0
    1.7494   -0.4621   -0.6567 H   0  0  0  0  0  0  0  0  0  0  0  0
    1.1877   -2.3930    0.1261 C   0  0  0  0  0  0  0  0  0  0  0  0
    1.6002   -2.2055    1.1204 H   0  0  0  0  0  0  0  0  0  0  0  0
    0.2648   -2.9664    0.2467 H   0  0  0  0  0  0  0  0  0  0  0  0
    2.1986   -3.2236   -0.6782 C   0  0  0  0  0  0  0  0  0  0  0  0
    2.5293   -2.8185   -1.8153 O   0  5  0  0  0  0  0  0  0  0  0  0
    2.6480   -4.2511   -0.1235 O   0  0  0  0  0  0  0  0  0  0  0  0
   -0.3449    1.2198   -0.2606 C   0  0  0  0  0  0  0  0  0  0  0  0
   -0.5046    1.4412   -1.4628 O   0  0  0  0  0  0  0  0  0  0  0  0
   -0.3184    2.2063    0.6451 N   0  0  0  0  0  0  0  0  0  0  0  0
   -0.1299    1.9533    1.6037 H   0  0  0  0  0  0  0  0  0  0  0  0
   -0.4277    3.6251    0.3156 C   0  0  0  0  0  0  0  0  0  0  0  0
   -1.3024    3.7902   -0.3158 H   0  0  0  0  0  0  0  0  0  0  0  0
   -0.5196    4.2163    1.2278 H   0  0  0  0  0  0  0  0  0  0  0  0
    0.4633    3.9396   -0.2313 H   0  0  0  0  0  0  0  0  0  0  0  0
  5  6  2  0  0  0  0
  5  7  1  0  0  0  0
  2  3  1  0  0  0  0
  2  4  1  0  0  0  0
  2  5  1  0  0  0  0
  1  2  1  0  0  0  0
 20 21  2  0  0  0  0
 20 22  1  0  0  0  0
 17 18  1  0  0  0  0
 17 19  2  0  0  0  0
 14 15  1  0  0  0  0
 14 16  1  0  0  0  0
 14 17  1  0  0  0  0
 11 12  1  0  0  0  0
 11 13  1  0  0  0  0
 11 14  1  0  0  0  0
  9 10  1  0  0  0  0
  9 11  1  0  0  0  0
  9 20  1  0  0  0  0
  7  8  1  0  0  0  0
  7  9  1  0  0  0  0
 24 25  1  0  0  0  0
 24 26  1  0  0  0  0
 24 27  1  0  0  0  0
 22 23  1  0  0  0  0
 22 24  1  0  0  0  0
M  CHG  1  18  -1
M  END
$$$$
default_name
  -OEChem-01062215323D

 27 26  0     1  0  0  0  0  0999 V2000
   -3.2406   -3.5400    1.2326 H   0  0  0  0  0  0  0  0  0  0  0  0
   -3.1436   -2.6190    0.6606 C   0  0  0  0  0  0  0  0  0  0  0  0
   -3.8786   -1.8920    0.9996 H   0  0  0  0  0  0  0  0  0  0  0  0
   -3.2846   -2.8280   -0.3984 H   0  0  0  0  0  0  0  0  0  0  0  0
   -1.7586   -2.0580    0.8686 C   0  0  0  0  0  0  0  0  0  0  0  0
   -0.9666   -2.6340    1.6026 O   0  0  0  0  0  0  0  0  0  0  0  0
   -1.4866   -0.9220    0.2366 N   0  0  0  0  0  0  0  0  0  0  0  0
   -2.2166   -0.4790   -0.2994 H   0  0  0  0  0  0  0  0  0  0  0  0
   -0.1956   -0.2250    0.2596 C   0  0  1  0  0  0  0  0  0  0  0  0
    0.1536   -0.1661    1.2909 H   0  0  0  0  0  0  0  0  0  0  0  0
    0.8378   -1.0490   -0.5347 C   0  0  0  0  0  0  0  0  0  0  0  0
    0.4210   -1.2478   -1.5233 H   0  0  0  0  0  0  0  0  0  0  0  0
    1.7494   -0.4621   -0.6567 H   0  0  0  0  0  0  0  0  0  0  0  0
    1.1877   -2.3930    0.1261 C   0  0  0  0  0  0  0  0  0  0  0  0
    1.6002   -2.2055    1.1204 H   0  0  0  0  0  0  0  0  0  0  0  0
    0.2648   -2.9664    0.2467 H   0  0  0  0  0  0  0  0  0  0  0  0
    2.1986   -3.2236   -0.6782 C   0  0  0  0  0  0  0  0  0  0  0  0
    2.5293   -2.8185   -1.8153 O   0  5  0  0  0  0  0  0  0  0  0  0
    2.6480   -4.2511   -0.1235 O   0  0  0  0  0  0  0  0  0  0  0  0
   -0.3449    1.2198   -0.2606 C   0  0  0  0  0  0  0  0  0  0  0  0
   -0.7733    1.4375   -1.3959 O   0  0  0  0  0  0  0  0  0  0  0  0
   -0.0158    2.2127    0.5760 N   0  0  0  0  0  0  0  0  0  0  0  0
    0.3785    1.9574    1.4692 H   0  0  0  0  0  0  0  0  0  0  0  0
   -0.0821    3.6307    0.2320 C   0  0  0  0  0  0  0  0  0  0  0  0
   -1.0671    3.8651   -0.1752 H   0  0  0  0  0  0  0  0  0  0  0  0
    0.1009    4.2408    1.1177 H   0  0  0  0  0  0  0  0  0  0  0  0
    0.6721    3.8556   -0.5246 H   0  0  0  0  0  0  0  0  0  0  0  0
  5  6  2  0  0  0  0
  5  7  1  0  0  0  0
  2  3  1  0  0  0  0
  2  4  1  0  0  0  0
  2  5  1  0  0  0  0
  1  2  1  0  0  0  0
 20 21  2  0  0  0  0
 20 22  1  0  0  0  0
 17 18  1  0  0  0  0
 17 19  2  0  0  0  0
 14 15  1  0  0  0  0
 14 16  1  0  0  0  0
 14 17  1  0  0  0  0
 11 12  1  0  0  0  0
 11 13  1  0  0  0  0
 11 14  1  0  0  0  0
  9 10  1  0  0  0  0
  9 11  1  0  0  0  0
  9 20  1  0  0  0  0
  7  8  1  0  0  0  0
  7  9  1  0  0  0  0
 24 25  1  0  0  0  0
 24 26  1  0  0  0  0
 24 27  1  0  0  0  0
 22 23  1  0  0  0  0
 22 24  1  0  0  0  0
M  CHG  1  18  -1
M  END
$$$$
default_name
  -OEChem-01062215323D

 27 26  0     1  0  0  0  0  0999 V2000
   -3.2406   -3.5400    1.2326 H   0  0  0  0  0  0  0  0  0  0  0  0
   -3.1436   -2.6190    0.6606 C   0  0  0  0  0  0  0  0  0  0  0  0
   -3.8786   -1.8920    0.9996 H   0  0  0  0  0  0  0  0  0  0  0  0
   -3.2846   -2.8280   -0.3984 H   0  0  0  0  0  0  0  0  0  0  0  0
   -1.7586   -2.0580    0.8686 C   0  0  0  0  0  0  0  0  0  0  0  0
   -0.9666   -2.6340    1.6026 O   0  0  0  0  0  0  0  0  0  0  0  0
   -1.4866   -0.9220    0.2366 N   0  0  0  0  0  0  0  0  0  0  0  0
   -2.2166   -0.4790   -0.2994 H   0  0  0  0  0  0  0  0  0  0  0  0
   -0.1956   -0.2250    0.2596 C   0  0  1  0  0  0  0  0  0  0  0  0
    0.1536   -0.1661    1.2909 H   0  0  0  0  0  0  0  0  0  0  0  0
    0.8378   -1.0490   -0.5347 C   0  0  0  0  0  0  0  0  0  0  0  0
    0.4210   -1.2478   -1.5233 H   0  0  0  0  0  0  0  0  0  0  0  0
    1.7494   -0.4621   -0.6567 H   0  0  0  0  0  0  0  0  0  0  0  0
    1.1877   -2.3930    0.1261 C   0  0  0  0  0  0  0  0  0  0  0  0
    1.6002   -2.2055    1.1204 H   0  0  0  0  0  0  0  0  0  0  0  0
    0.2648   -2.9664    0.2467 H   0  0  0  0  0  0  0  0  0  0  0  0
    2.1986   -3.2236   -0.6782 C   0  0  0  0  0  0  0  0  0  0  0  0
    2.5293   -2.8185   -1.8153 O   0  5  0  0  0  0  0  0  0  0  0  0
    2.6480   -4.2511   -0.1235 O   0  0  0  0  0  0  0  0  0  0  0  0
   -0.3449    1.2198   -0.2606 C   0  0  0  0  0  0  0  0  0  0  0  0
   -1.0169    1.4590   -1.2660 O   0  0  0  0  0  0  0  0  0  0  0  0
    0.2604    2.1908    0.4357 N   0  0  0  0  0  0  0  0  0  0  0  0
    0.8373    1.9137    1.2160 H   0  0  0  0  0  0  0  0  0  0  0  0
    0.2319    3.6039    0.0674 C   0  0  0  0  0  0  0  0  0  0  0  0
   -0.7993    3.9205   -0.0983 H   0  0  0  0  0  0  0  0  0  0  0  0
    0.6758    4.2076    0.8602 H   0  0  0  0  0  0  0  0  0  0  0  0
    0.7953    3.7489   -0.8564 H   0  0  0  0  0  0  0  0  0  0  0  0
  5  6  2  0  0  0  0
  5  7  1  0  0  0  0
  2  3  1  0  0  0  0
  2  4  1  0  0  0  0
  2  5  1  0  0  0  0
  1  2  1  0  0  0  0
 20 21  2  0  0  0  0
 20 22  1  0  0  0  0
 17 18  1  0  0  0  0
 17 19  2  0  0  0  0
 14 15  1  0  0  0  0
 14 16  1  0  0  0  0
 14 17  1  0  0  0  0
 11 12  1  0  0  0  0
 11 13  1  0  0  0  0
 11 14  1  0  0  0  0
  9 10  1  0  0  0  0
  9 11  1  0  0  0  0
  9 20  1  0  0  0  0
  7  8  1  0  0  0  0
  7  9  1  0  0  0  0
 24 25  1  0  0  0  0
 24 26  1  0  0  0  0
 24 27  1  0  0  0  0
 22 23  1  0  0  0  0
 22 24  1  0  0  0  0
M  CHG  1  18  -1
M  END
$$$$
default_name
  -OEChem-01062215323D

 27 26  0     1  0  0  0  0  0999 V2000
   -3.2406   -3.5400    1.2326 H   0  0  0  0  0  0  0  0  0  0  0  0
   -3.1436   -2.6190    0.6606 C   0  0  0  0  0  0  0  0  0  0  0  0
   -3.8786   -1.8920    0.9996 H   0  0  0  0  0  0  0  0  0  0  0  0
   -3.2846   -2.8280   -0.3984 H   0  0  0  0  0  0  0  0  0  0  0  0
   -1.7586   -2.0580    0.8686 C   0  0  0  0  0  0  0  0  0  0  0  0
   -0.9666   -2.6340    1.6026 O   0  0  0  0  0  0  0  0  0  0  0  0
   -1.4866   -0.9220    0.2366 N   0  0  0  0  0  0  0  0  0  0  0  0
   -2.2166   -0.4790   -0.2994 H   0  0  0  0  0  0  0  0  0  0  0  0
   -0.1956   -0.2250    0.2596 C   0  0  1  0  0  0  0  0  0  0  0  0
    0.1536   -0.1661    1.2909 H   0  0  0  0  0  0  0  0  0  0  0  0
    0.8378   -1.0490   -0.5347 C   0  0  0  0  0  0  0  0  0  0  0  0
    0.4210   -1.2478   -1.5233 H   0  0  0  0  0  0  0  0  0  0  0  0
    1.7494   -0.4621   -0.6567 H   0  0  0  0  0  0  0  0  0  0  0  0
    1.1877   -2.3930    0.1261 C   0  0  0  0  0  0  0  0  0  0  0  0
    1.6002   -2.2055    1.1204 H   0  0  0  0  0  0  0  0  0  0  0  0
    0.2648   -2.9664    0.2467 H   0  0  0  0  0  0  0  0  0  0  0  0
    2.1986   -3.2236   -0.6782 C   0  0  0  0  0  0  0  0  0  0  0  0
    2.5293   -2.8185   -1.8153 O   0  5  0  0  0  0  0  0  0  0  0  0
    2.6480   -4.2511   -0.1235 O   0  0  0  0  0  0  0  0  0  0  0  0
   -0.3449    1.2198   -0.2606 C   0  0  0  0  0  0  0  0  0  0  0  0
   -1.2189    1.5043   -1.0821 O   0  0  0  0  0  0  0  0  0  0  0  0
    0.4912    2.1419    0.2339 N   0  0  0  0  0  0  0  0  0  0  0  0
    1.2154    1.8251    0.8613 H   0  0  0  0  0  0  0  0  0  0  0  0
    0.4929    3.5465   -0.1671 C   0  0  0  0  0  0  0  0  0  0  0  0
   -0.5171    3.9526   -0.0903 H   0  0  0  0  0  0  0  0  0  0  0  0
    1.1657    4.1188    0.4731 H   0  0  0  0  0  0  0  0  0  0  0  0
    0.8247    3.6267   -1.2041 H   0  0  0  0  0  0  0  0  0  0  0  0
  5  6  2  0  0  0  0
  5  7  1  0  0  0  0
  2  3  1  0  0  0  0
  2  4  1  0  0  0  0
  2  5  1  0  0  0  0
  1  2  1  0  0  0  0
 20 21  2  0  0  0  0
 20 22  1  0  0  0  0
 17 18  1  0  0  0  0
 17 19  2  0  0  0  0
 14 15  1  0  0  0  0
 14 16  1  0  0  0  0
 14 17  1  0  0  0  0
 11 12  1  0  0  0  0
 11 13  1  0  0  0  0
 11 14  1  0  0  0  0
  9 10  1  0  0  0  0
  9 11  1  0  0  0  0
  9 20  1  0  0  0  0
  7  8  1  0  0  0  0
  7  9  1  0  0  0  0
 24 25  1  0  0  0  0
 24 26  1  0  0  0  0
 24 27  1  0  0  0  0
 22 23  1  0  0  0  0
 22 24  1  0  0  0  0
M  CHG  1  18  -1
M  END
$$$$
default_name
  -OEChem-01062215323D

 27 26  0     1  0  0  0  0  0999 V2000
   -3.2406   -3.5400    1.2326 H   0  0  0  0  0  0  0  0  0  0  0  0
   -3.1436   -2.6190    0.6606 C   0  0  0  0  0  0  0  0  0  0  0  0
   -3.8786   -1.8920    0.9996 H   0  0  0  0  0  0  0  0  0  0  0  0
   -3.2846   -2.8280   -0.3984 H   0  0  0  0  0  0  0  0  0  0  0  0
   -1.7586   -2.0580    0.8686 C   0  0  0  0  0  0  0  0  0  0  0  0
   -0.9666   -2.6340    1.6026 O   0  0  0  0  0  0  0  0  0  0  0  0
   -1.4866   -0.9220    0.2366 N   0  0  0  0  0  0  0  0  0  0  0  0
   -2.2166   -0.4790   -0.2994 H   0  0  0  0  0  0  0  0  0  0  0  0
   -0.1956   -0.2250    0.2596 C   0  0  1  0  0  0  0  0  0  0  0  0
    0.1536   -0.1661    1.2909 H   0  0  0  0  0  0  0  0  0  0  0  0
    0.8378   -1.0490   -0.5347 C   0  0  0  0  0  0  0  0  0  0  0  0
    0.4210   -1.2478   -1.5233 H   0  0  0  0  0  0  0  0  0  0  0  0
    1.7494   -0.4621   -0.6567 H   0  0  0  0  0  0  0  0  0  0  0  0
    1.1877   -2.3930    0.1261 C   0  0  0  0  0  0  0  0  0  0  0  0
    1.6002   -2.2055    1.1204 H   0  0  0  0  0  0  0  0  0  0  0  0
    0.2648   -2.9664    0.2467 H   0  0  0  0  0  0  0  0  0  0  0  0
    2.1986   -3.2236   -0.6782 C   0  0  0  0  0  0  0  0  0  0  0  0
    2.5293   -2.8185   -1.8153 O   0  5  0  0  0  0  0  0  0  0  0  0
    2.6480   -4.2511   -0.1235 O   0  0  0  0  0  0  0  0  0  0  0  0
   -0.3449    1.2198   -0.2606 C   0  0  0  0  0  0  0  0  0  0  0  0
   -1.3655    1.5704   -0.8567 O   0  0  0  0  0  0  0  0  0  0  0  0
    0.6610    2.0696   -0.0158 N   0  0  0  0  0  0  0  0  0  0  0  0
    1.4868    1.6976    0.4293 H   0  0  0  0  0  0  0  0  0  0  0  0
    0.6833    3.4623   -0.4554 C   0  0  0  0  0  0  0  0  0  0  0  0
   -0.2398    3.9591   -0.1518 H   0  0  0  0  0  0  0  0  0  0  0  0
    1.5374    3.9807   -0.0173 H   0  0  0  0  0  0  0  0  0  0  0  0
    0.7581    3.4975   -1.5440 H   0  0  0  0  0  0  0  0  0  0  0  0
  5  6  2  0  0  0  0
  5  7  1  0  0  0  0
  2  3  1  0  0  0  0
  2  4  1  0  0  0  0
  2  5  1  0  0  0  0
  1  2  1  0  0  0  0
 20 21  2  0  0  0  0
 20 22  1  0  0  0  0
 17 18  1  0  0  0  0
 17 19  2  0  0  0  0
 14 15  1  0  0  0  0
 14 16  1  0  0  0  0
 14 17  1  0  0  0  0
 11 12  1  0  0  0  0
 11 13  1  0  0  0  0
 11 14  1  0  0  0  0
  9 10  1  0  0  0  0
  9 11  1  0  0  0  0
  9 20  1  0  0  0  0
  7  8  1  0  0  0  0
  7  9  1  0  0  0  0
 24 25  1  0  0  0  0
 24 26  1  0  0  0  0
 24 27  1  0  0  0  0
 22 23  1  0  0  0  0
 22 24  1  0  0  0  0
M  CHG  1  18  -1
M  END
$$$$
default_name
  -OEChem-01062215323D

 27 26  0     1  0  0  0  0  0999 V2000
   -3.2406   -3.5400    1.2326 H   0  0  0  0  0  0  0  0  0  0  0  0
   -3.1436   -2.6190    0.6606 C   0  0  0  0  0  0  0  0  0  0  0  0
   -3.8786   -1.8920    0.9996 H   0  0  0  0  0  0  0  0  0  0  0  0
   -3.2846   -2.8280   -0.3984 H   0  0  0  0  0  0  0  0  0  0  0  0
   -1.7586   -2.0580    0.8686 C   0  0  0  0  0  0  0  0  0  0  0  0
   -0.9666   -2.6340    1.6026 O   0  0  0  0  0  0  0  0  0  0  0  0
   -1.4866   -0.9220    0.2366 N   0  0  0  0  0  0  0  0  0  0  0  0
   -2.2166   -0.4790   -0.2994 H   0  0  0  0  0  0  0  0  0  0  0  0
   -0.1956   -0.2250    0.2596 C   0  0  1  0  0  0  0  0  0  0  0  0
    0.2788   -0.3959    1.2264 H   0  0  0  0  0  0  0  0  0  0  0  0
    0.7234   -0.8276   -0.8221 C   0  0  0  0  0  0  0  0  0  0  0  0
    0.1858   -0.8039   -1.7713 H   0  0  0  0  0  0  0  0  0  0  0  0
    1.6189   -0.2118   -0.9177 H   0  0  0  0  0  0  0  0  0  0  0  0
    1.1385   -2.2801   -0.5330 C   0  0  0  0  0  0  0  0  0  0  0  0
    1.6724   -2.3162    0.4197 H   0  0  0  0  0  0  0  0  0  0  0  0
    0.2318   -2.8827   -0.4342 H   0  0  0  0  0  0  0  0  0  0  0  0
    2.0339   -2.8873   -1.6231 C   0  0  0  0  0  0  0  0  0  0  0  0
    2.2258   -2.2282   -2.6696 O   0  5  0  0  0  0  0  0  0  0  0  0
    2.5378   -4.0057   -1.3766 O   0  0  0  0  0  0  0  0  0  0  0  0
   -0.3933    1.2973    0.1048 C   0  0  0  0  0  0  0  0  0  0  0  0
   -1.5246    1.7768    0.0057 O   0  0  0  0  0  0  0  0  0  0  0  0
    0.7047    2.0644    0.1082 N   0  0  0  0  0  0  0  0  0  0  0  0
    1.5988    1.5974    0.1384 H   0  0  0  0  0  0  0  0  0  0  0  0
    0.6908    3.5168   -0.0466 C   0  0  0  0  0  0  0  0  0  0  0  0
   -0.0119    3.9560    0.6636 H   0  0  0  0  0  0  0  0  0  0  0  0
    1.6881    3.9226    0.1288 H   0  0  0  0  0  0  0  0  0  0  0  0
    0.3699    3.7701   -1.0588 H   0  0  0  0  0  0  0  0  0  0  0  0
  5  6  2  0  0  0  0
  5  7  1  0  0  0  0
  2  3  1  0  0  0  0
  2  4  1  0  0  0  0
  2  5  1  0  0  0  0
  1  2  1  0  0  0  0
 20 21  2  0  0  0  0
 20 22  1  0  0  0  0
 17 18  1  0  0  0  0
 17 19  2  0  0  0  0
 14 15  1  0  0  0  0
 14 16  1  0  0  0  0
 14 17  1  0  0  0  0
 11 12  1  0  0  0  0
 11 13  1  0  0  0  0
 11 14  1  0  0  0  0
  9 10  1  0  0  0  0
  9 11  1  0  0  0  0
  9 20  1  0  0  0  0
  7  8  1  0  0  0  0
  7  9  1  0  0  0  0
 24 25  1  0  0  0  0
 24 26  1  0  0  0  0
 24 27  1  0  0  0  0
 22 23  1  0  0  0  0
 22 24  1  0  0  0  0
M  CHG  1  18  -1
M  END
$$$$
default_name
  -OEChem-01062215323D

 27 26  0     1  0  0  0  0  0999 V2000
   -3.2406   -3.5400    1.2326 H   0  0  0  0  0  0  0  0  0  0  0  0
   -3.1436   -2.6190    0.6606 C   0  0  0  0  0  0  0  0  0  0  0  0
   -3.8786   -1.8920    0.9996 H   0  0  0  0  0  0  0  0  0  0  0  0
   -3.2846   -2.8280   -0.3984 H   0  0  0  0  0  0  0  0  0  0  0  0
   -1.7586   -2.0580    0.8686 C   0  0  0  0  0  0  0  0  0  0  0  0
   -0.9666   -2.6340    1.6026 O   0  0  0  0  0  0  0  0  0  0  0  0
   -1.4866   -0.9220    0.2366 N   0  0  0  0  0  0  0  0  0  0  0  0
   -2.2166   -0.4790   -0.2994 H   0  0  0  0  0  0  0  0  0  0  0  0
   -0.1956   -0.2250    0.2596 C   0  0  1  0  0  0  0  0  0  0  0  0
    0.2788   -0.3959    1.2264 H   0  0  0  0  0  0  0  0  0  0  0  0
    0.7234   -0.8276   -0.8221 C   0  0  0  0  0  0  0  0  0  0  0  0
    0.1858   -0.8039   -1.7713 H   0  0  0  0  0  0  0  0  0  0  0  0
    1.6189   -0.2118   -0.9177 H   0  0  0  0  0  0  0  0  0  0  0  0
    1.1385   -2.2801   -0.5330 C   0  0  0  0  0  0  0  0  0  0  0  0
    1.6724   -2.3162    0.4197 H   0  0  0  0  0  0  0  0  0  0  0  0
    0.2318   -2.8827   -0.4342 H   0  0  0  0  0  0  0  0  0  0  0  0
    2.0339   -2.8873   -1.6231 C   0  0  0  0  0  0  0  0  0  0  0  0
    2.2258   -2.2282   -2.6696 O   0  5  0  0  0  0  0  0  0  0  0  0
    2.5378   -4.0057   -1.3766 O   0  0  0  0  0  0  0  0  0  0  0  0
   -0.3933    1.2973    0.1048 C   0  0  0  0  0  0  0  0  0  0  0  0
   -1.5016    1.8077    0.2800 O   0  0  0  0  0  0  0  0  0  0  0  0
    0.6854    2.0306   -0.1999 N   0  0  0  0  0  0  0  0  0  0  0  0
    1.5472    1.5378   -0.3815 H   0  0  0  0  0  0  0  0  0  0  0  0
    0.6638    3.4774   -0.3989 C   0  0  0  0  0  0  0  0  0  0  0  0
    0.1759    3.9587    0.4503 H   0  0  0  0  0  0  0  0  0  0  0  0
    1.6813    3.8579   -0.4985 H   0  0  0  0  0  0  0  0  0  0  0  0
    0.1002    3.7101   -1.3045 H   0  0  0  0  0  0  0  0  0  0  0  0
  5  6  2  0  0  0  0
  5  7  1  0  0  0  0
  2  3  1  0  0  0  0
  2  4  1  0  0  0  0
  2  5  1  0  0  0  0
  1  2  1  0  0  0  0
 20 21  2  0  0  0  0
 20 22  1  0  0  0  0
 17 18  1  0  0  0  0
 17 19  2  0  0  0  0
 14 15  1  0  0  0  0
 14 16  1  0  0  0  0
 14 17  1  0  0  0  0
 11 12  1  0  0  0  0
 11 13  1  0  0  0  0
 11 14  1  0  0  0  0
  9 10  1  0  0  0  0
  9 11  1  0  0  0  0
  9 20  1  0  0  0  0
  7  8  1  0  0  0  0
  7  9  1  0  0  0  0
 24 25  1  0  0  0  0
 24 26  1  0  0  0  0
 24 27  1  0  0  0  0
 22 23  1  0  0  0  0
 22 24  1  0  0  0  0
M  CHG  1  18  -1
M  END
$$$$
default_name
  -OEChem-01062215323D

 27 26  0     1  0  0  0  0  0999 V2000
   -3.2406   -3.5400    1.2326 H   0  0  0  0  0  0  0  0  0  0  0  0
   -3.1436   -2.6190    0.6606 C   0  0  0  0  0  0  0  0  0  0  0  0
   -3.8786   -1.8920    0.9996 H   0  0  0  0  0  0  0  0  0  0  0  0
   -3.2846   -2.8280   -0.3984 H   0  0  0  0  0  0  0  0  0  0  0  0
   -1.7586   -2.0580    0.8686 C   0  0  0  0  0  0  0  0  0  0  0  0
   -0.9666   -2.6340    1.6026 O   0  0  0  0  0  0  0  0  0  0  0  0
   -1.4866   -0.9220    0.2366 N   0  0  0  0  0  0  0  0  0  0  0  0
   -2.2166   -0.4790   -0.2994 H   0  0  0  0  0  0  0  0  0  0  0  0
   -0.1956   -0.2250    0.2596 C   0  0  1  0  0  0  0  0  0  0  0  0
    0.2788   -0.3959    1.2264 H   0  0  0  0  0  0  0  0  0  0  0  0
    0.7234   -0.8276   -0.8221 C   0  0  0  0  0  0  0  0  0  0  0  0
    0.1858   -0.8039   -1.7713 H   0  0  0  0  0  0  0  0  0  0  0  0
    1.6189   -0.2118   -0.9177 H   0  0  0  0  0  0  0  0  0  0  0  0
    1.1385   -2.2801   -0.5330 C   0  0  0  0  0  0  0  0  0  0  0  0
    1.6724   -2.3162    0.4197 H   0  0  0  0  0  0  0  0  0  0  0  0
    0.2318   -2.8827   -0.4342 H   0  0  0  0  0  0  0  0  0  0  0  0
    2.0339   -2.8873   -1.6231 C   0  0  0  0  0  0  0  0  0  0  0  0
    2.2258   -2.2282   -2.6696 O   0  5  0  0  0  0  0  0  0  0  0  0
    2.5378   -4.0057   -1.3766 O   0  0  0  0  0  0  0  0  0  0  0  0
   -0.3933    1.2973    0.1048 C   0  0  0  0  0  0  0  0  0  0  0  0
   -1.4086    1.8460    0.5380 O   0  0  0  0  0  0  0  0  0  0  0  0
    0.5872    1.9882   -0.4914 N   0  0  0  0  0  0  0  0  0  0  0  0
    1.3629    1.4644   -0.8686 H   0  0  0  0  0  0  0  0  0  0  0  0
    0.5467    3.4284   -0.7311 C   0  0  0  0  0  0  0  0  0  0  0  0
    0.3028    3.9494    0.1963 H   0  0  0  0  0  0  0  0  0  0  0  0
    1.5129    3.7748   -1.1006 H   0  0  0  0  0  0  0  0  0  0  0  0
   -0.2246    3.6510   -1.4709 H   0  0  0  0  0  0  0  0  0  0  0  0
  5  6  2  0  0  0  0
  5  7  1  0  0  0  0
  2  3  1  0  0  0  0
  2  4  1  0  0  0  0
  2  5  1  0  0  0  0
  1  2  1  0  0  0  0
 20 21  2  0  0  0  0
 20 22  1  0  0  0  0
 17 18  1  0  0  0  0
 17 19  2  0  0  0  0
 14 15  1  0  0  0  0
 14 16  1  0  0  0  0
 14 17  1  0  0  0  0
 11 12  1  0  0  0  0
 11 13  1  0  0  0  0
 11 14  1  0  0  0  0
  9 10  1  0  0  0  0
  9 11  1  0  0  0  0
  9 20  1  0  0  0  0
  7  8  1  0  0  0  0
  7  9  1  0  0  0  0
 24 25  1  0  0  0  0
 24 26  1  0  0  0  0
 24 27  1  0  0  0  0
 22 23  1  0  0  0  0
 22 24  1  0  0  0  0
M  CHG  1  18  -1
M  END
$$$$
default_name
  -OEChem-01062215323D

 27 26  0     1  0  0  0  0  0999 V2000
   -3.2406   -3.5400    1.2326 H   0  0  0  0  0  0  0  0  0  0  0  0
   -3.1436   -2.6190    0.6606 C   0  0  0  0  0  0  0  0  0  0  0  0
   -3.8786   -1.8920    0.9996 H   0  0  0  0  0  0  0  0  0  0  0  0
   -3.2846   -2.8280   -0.3984 H   0  0  0  0  0  0  0  0  0  0  0  0
   -1.7586   -2.0580    0.8686 C   0  0  0  0  0  0  0  0  0  0  0  0
   -0.9666   -2.6340    1.6026 O   0  0  0  0  0  0  0  0  0  0  0  0
   -1.4866   -0.9220    0.2366 N   0  0  0  0  0  0  0  0  0  0  0  0
   -2.2166   -0.4790   -0.2994 H   0  0  0  0  0  0  0  0  0  0  0  0
   -0.1956   -0.2250    0.2596 C   0  0  1  0  0  0  0  0  0  0  0  0
    0.2788   -0.3959    1.2264 H   0  0  0  0  0  0  0  0  0  0  0  0
    0.7234   -0.8276   -0.8221 C   0  0  0  0  0  0  0  0  0  0  0  0
    0.1858   -0.8039   -1.7713 H   0  0  0  0  0  0  0  0  0  0  0  0
    1.6189   -0.2118   -0.9177 H   0  0  0  0  0  0  0  0  0  0  0  0
    1.1385   -2.2801   -0.5330 C   0  0  0  0  0  0  0  0  0  0  0  0
    1.6724   -2.3162    0.4197 H   0  0  0  0  0  0  0  0  0  0  0  0
    0.2318   -2.8827   -0.4342 H   0  0  0  0  0  0  0  0  0  0  0  0
    2.0339   -2.8873   -1.6231 C   0  0  0  0  0  0  0  0  0  0  0  0
    2.2258   -2.2282   -2.6696 O   0  5  0  0  0  0  0  0  0  0  0  0
    2.5378   -4.0057   -1.3766 O   0  0  0  0  0  0  0  0  0  0  0  0
   -0.3933    1.2973    0.1048 C   0  0  0  0  0  0  0  0  0  0  0  0
   -1.2519    1.8892    0.7621 O   0  0  0  0  0  0  0  0  0  0  0  0
    0.4168    1.9401   -0.7464 N   0  0  0  0  0  0  0  0  0  0  0  0
    1.0587    1.3820   -1.2896 H   0  0  0  0  0  0  0  0  0  0  0  0
    0.3476    3.3731   -1.0204 C   0  0  0  0  0  0  0  0  0  0  0  0
    0.3604    3.9286   -0.0811 H   0  0  0  0  0  0  0  0  0  0  0  0
    1.1944    3.6789   -1.6364 H   0  0  0  0  0  0  0  0  0  0  0  0
   -0.5824    3.5969   -1.5468 H   0  0  0  0  0  0  0  0  0  0  0  0
  5  6  2  0  0  0  0
  5  7  1  0  0  0  0
  2  3  1  0  0  0  0
  2  4  1  0  0  0  0
  2  5  1  0  0  0  0
  1  2  1  0  0  0  0
 20 21  2  0  0  0  0
 20 22  1  0  0  0  0
 17 18  1  0  0  0  0
 17 19  2  0  0  0  0
 14 15  1  0  0  0  0
 14 16  1  0  0  0  0
 14 17  1  0  0  0  0
 11 12  1  0  0  0  0
 11 13  1  0  0  0  0
 11 14  1  0  0  0  0
  9 10  1  0  0  0  0
  9 11  1  0  0  0  0
  9 20  1  0  0  0  0
  7  8  1  0  0  0  0
  7  9  1  0  0  0  0
 24 25  1  0  0  0  0
 24 26  1  0  0  0  0
 24 27  1  0  0  0  0
 22 23  1  0  0  0  0
 22 24  1  0  0  0  0
M  CHG  1  18  -1
M  END
$$$$
default_name
  -OEChem-01062215323D

 27 26  0     1  0  0  0  0  0999 V2000
   -3.2406   -3.5400    1.2326 H   0  0  0  0  0  0  0  0  0  0  0  0
   -3.1436   -2.6190    0.6606 C   0  0  0  0  0  0  0  0  0  0  0  0
   -3.8786   -1.8920    0.9996 H   0  0  0  0  0  0  0  0  0  0  0  0
   -3.2846   -2.8280   -0.3984 H   0  0  0  0  0  0  0  0  0  0  0  0
   -1.7586   -2.0580    0.8686 C   0  0  0  0  0  0  0  0  0  0  0  0
   -0.9666   -2.6340    1.6026 O   0  0  0  0  0  0  0  0  0  0  0  0
   -1.4866   -0.9220    0.2366 N   0  0  0  0  0  0  0  0  0  0  0  0
   -2.2166   -0.4790   -0.2994 H   0  0  0  0  0  0  0  0  0  0  0  0
   -0.1956   -0.2250    0.2596 C   0  0  1  0  0  0  0  0  0  0  0  0
    0.2788   -0.3959    1.2264 H   0  0  0  0  0  0  0  0  0  0  0  0
    0.7234   -0.8276   -0.8221 C   0  0  0  0  0  0  0  0  0  0  0  0
    0.1858   -0.8039   -1.7713 H   0  0  0  0  0  0  0  0  0  0  0  0
    1.6189   -0.2118   -0.9177 H   0  0  0  0  0  0  0  0  0  0  0  0
    1.1385   -2.2801   -0.5330 C   0  0  0  0  0  0  0  0  0  0  0  0
    1.6724   -2.3162    0.4197 H   0  0  0  0  0  0  0  0  0  0  0  0
    0.2318   -2.8827   -0.4342 H   0  0  0  0  0  0  0  0  0  0  0  0
    2.0339   -2.8873   -1.6231 C   0  0  0  0  0  0  0  0  0  0  0  0
    2.2258   -2.2282   -2.6696 O   0  5  0  0  0  0  0  0  0  0  0  0
    2.5378   -4.0057   -1.3766 O   0  0  0  0  0  0  0  0  0  0  0  0
   -0.3933    1.2973    0.1048 C   0  0  0  0  0  0  0  0  0  0  0  0
   -1.0422    1.9342    0.9372 O   0  0  0  0  0  0  0  0  0  0  0  0
    0.1858    1.8896   -0.9477 N   0  0  0  0  0  0  0  0  0  0  0  0
    0.6552    1.2965   -1.6158 H   0  0  0  0  0  0  0  0  0  0  0  0
    0.0799    3.3153   -1.2471 C   0  0  0  0  0  0  0  0  0  0  0  0
    0.3445    3.8979   -0.3631 H   0  0  0  0  0  0  0  0  0  0  0  0
    0.7473    3.5768   -2.0695 H   0  0  0  0  0  0  0  0  0  0  0  0
   -0.9487    3.5513   -1.5269 H   0  0  0  0  0  0  0  0  0  0  0  0
  5  6  2  0  0  0  0
  5  7  1  0  0  0  0
  2  3  1  0  0  0  0
  2  4  1  0  0  0  0
  2  5  1  0  0  0  0
  1  2  1  0  0  0  0
 20 21  2  0  0  0  0
 20 22  1  0  0  0  0
 17 18  1  0  0  0  0
 17 19  2  0  0  0  0
 14 15  1  0  0  0  0
 14 16  1  0  0  0  0
 14 17  1  0  0  0  0
 11 12  1  0  0  0  0
 11 13  1  0  0  0  0
 11 14  1  0  0  0  0
  9 10  1  0  0  0  0
  9 11  1  0  0  0  0
  9 20  1  0  0  0  0
  7  8  1  0  0  0  0
  7  9  1  0  0  0  0
 24 25  1  0  0  0  0
 24 26  1  0  0  0  0
 24 27  1  0  0  0  0
 22 23  1  0  0  0  0
 22 24  1  0  0  0  0
M  CHG  1  18  -1
M  END
$$$$
default_name
  -OEChem-01062215323D

 27 26  0     1  0  0  0  0  0999 V2000
   -3.2406   -3.5400    1.2326 H   0  0  0  0  0  0  0  0  0  0  0  0
   -3.1436   -2.6190    0.6606 C   0  0  0  0  0  0  0  0  0  0  0  0
   -3.8786   -1.8920    0.9996 H   0  0  0  0  0  0  0  0  0  0  0  0
   -3.2846   -2.8280   -0.3984 H   0  0  0  0  0  0  0  0  0  0  0  0
   -1.7586   -2.0580    0.8686 C   0  0  0  0  0  0  0  0  0  0  0  0
   -0.9666   -2.6340    1.6026 O   0  0  0  0  0  0  0  0  0  0  0  0
   -1.4866   -0.9220    0.2366 N   0  0  0  0  0  0  0  0  0  0  0  0
   -2.2166   -0.4790   -0.2994 H   0  0  0  0  0  0  0  0  0  0  0  0
   -0.1956   -0.2250    0.2596 C   0  0  1  0  0  0  0  0  0  0  0  0
    0.2788   -0.3959    1.2264 H   0  0  0  0  0  0  0  0  0  0  0  0
    0.7234   -0.8276   -0.8221 C   0  0  0  0  0  0  0  0  0  0  0  0
    0.1858   -0.8039   -1.7713 H   0  0  0  0  0  0  0  0  0  0  0  0
    1.6189   -0.2118   -0.9177 H   0  0  0  0  0  0  0  0  0  0  0  0
    1.1385   -2.2801   -0.5330 C   0  0  0  0  0  0  0  0  0  0  0  0
    1.6724   -2.3162    0.4197 H   0  0  0  0  0  0  0  0  0  0  0  0
    0.2318   -2.8827   -0.4342 H   0  0  0  0  0  0  0  0  0  0  0  0
    2.0339   -2.8873   -1.6231 C   0  0  0  0  0  0  0  0  0  0  0  0
    2.2258   -2.2282   -2.6696 O   0  5  0  0  0  0  0  0  0  0  0  0
    2.5378   -4.0057   -1.3766 O   0  0  0  0  0  0  0  0  0  0  0  0
   -0.3933    1.2973    0.1048 C   0  0  0  0  0  0  0  0  0  0  0  0
   -0.7937    1.9781    1.0513 O   0  0  0  0  0  0  0  0  0  0  0  0
   -0.0900    1.8402   -1.0815 N   0  0  0  0  0  0  0  0  0  0  0  0
    0.1799    1.2135   -1.8250 H   0  0  0  0  0  0  0  0  0  0  0  0
   -0.2381    3.2589   -1.3959 C   0  0  0  0  0  0  0  0  0  0  0  0
    0.2564    3.8593   -0.6304 H   0  0  0  0  0  0  0  0  0  0  0  0
    0.2023    3.4755   -2.3702 H   0  0  0  0  0  0  0  0  0  0  0  0
   -1.2986    3.5175   -1.4126 H   0  0  0  0  0  0  0  0  0  0  0  0
  5  6  2  0  0  0  0
  5  7  1  0  0  0  0
  2  3  1  0  0  0  0
  2  4  1  0  0  0  0
  2  5  1  0  0  0  0
  1  2  1  0  0  0  0
 20 21  2  0  0  0  0
 20 22  1  0  0  0  0
 17 18  1  0  0  0  0
 17 19  2  0  0  0  0
 14 15  1  0  0  0  0
 14 16  1  0  0  0  0
 14 17  1  0  0  0  0
 11 12  1  0  0  0  0
 11 13  1  0  0  0  0
 11 14  1  0  0  0  0
  9 10  1  0  0  0  0
  9 11  1  0  0  0  0
  9 20  1  0  0  0  0
  7  8  1  0  0  0  0
  7  9  1  0  0  0  0
 24 25  1  0  0  0  0
 24 26  1  0  0  0  0
 24 27  1  0  0  0  0
 22 23  1  0  0  0  0
 22 24  1  0  0  0  0
M  CHG  1  18  -1
M  END
$$$$
default_name
  -OEChem-01062215323D

 27 26  0     1  0  0  0  0  0999 V2000
   -3.2406   -3.5400    1.2326 H   0  0  0  0  0  0  0  0  0  0  0  0
   -3.1436   -2.6190    0.6606 C   0  0  0  0  0  0  0  0  0  0  0  0
   -3.8786   -1.8920    0.9996 H   0  0  0  0  0  0  0  0  0  0  0  0
   -3.2846   -2.8280   -0.3984 H   0  0  0  0  0  0  0  0  0  0  0  0
   -1.7586   -2.0580    0.8686 C   0  0  0  0  0  0  0  0  0  0  0  0
   -0.9666   -2.6340    1.6026 O   0  0  0  0  0  0  0  0  0  0  0  0
   -1.4866   -0.9220    0.2366 N   0  0  0  0  0  0  0  0  0  0  0  0
   -2.2166   -0.4790   -0.2994 H   0  0  0  0  0  0  0  0  0  0  0  0
   -0.1956   -0.2250    0.2596 C   0  0  1  0  0  0  0  0  0  0  0  0
    0.2788   -0.3959    1.2264 H   0  0  0  0  0  0  0  0  0  0  0  0
    0.7234   -0.8276   -0.8221 C   0  0  0  0  0  0  0  0  0  0  0  0
    0.1858   -0.8039   -1.7713 H   0  0  0  0  0  0  0  0  0  0  0  0
    1.6189   -0.2118   -0.9177 H   0  0  0  0  0  0  0  0  0  0  0  0
    1.1385   -2.2801   -0.5330 C   0  0  0  0  0  0  0  0  0  0  0  0
    1.6724   -2.3162    0.4197 H   0  0  0  0  0  0  0  0  0  0  0  0
    0.2318   -2.8827   -0.4342 H   0  0  0  0  0  0  0  0  0  0  0  0
    2.0339   -2.8873   -1.6231 C   0  0  0  0  0  0  0  0  0  0  0  0
    2.2258   -2.2282   -2.6696 O   0  5  0  0  0  0  0  0  0  0  0  0
    2.5378   -4.0057   -1.3766 O   0  0  0  0  0  0  0  0  0  0  0  0
   -0.3933    1.2973    0.1048 C   0  0  0  0  0  0  0  0  0  0  0  0
   -0.5234    2.0178    1.0966 O   0  0  0  0  0  0  0  0  0  0  0  0
   -0.3919    1.7952   -1.1386 N   0  0  0  0  0  0  0  0  0  0  0  0
   -0.3348    1.1387   -1.9029 H   0  0  0  0  0  0  0  0  0  0  0  0
   -0.5847    3.2077   -1.4565 C   0  0  0  0  0  0  0  0  0  0  0  0
    0.1021    3.8154   -0.8649 H   0  0  0  0  0  0  0  0  0  0  0  0
   -0.4036    3.3817   -2.5181 H   0  0  0  0  0  0  0  0  0  0  0  0
   -1.6084    3.4977   -1.2118 H   0  0  0  0  0  0  0  0  0  0  0  0
  5  6  2  0  0  0  0
  5  7  1  0  0  0  0
  2  3  1  0  0  0  0
  2  4  1  0  0  0  0
  2  5  1  0  0  0  0
  1  2  1  0  0  0  0
 20 21  2  0  0  0  0
 20 22  1  0  0  0  0
 17 18  1  0  0  0  0
 17 19  2  0  0  0  0
 14 15  1  0  0  0  0
 14 16  1  0  0  0  0
 14 17  1  0  0  0  0
 11 12  1  0  0  0  0
 11 13  1  0  0  0  0
 11 14  1  0  0  0  0
  9 10  1  0  0  0  0
  9 11  1  0  0  0  0
  9 20  1  0  0  0  0
  7  8  1  0  0  0  0
  7  9  1  0  0  0  0
 24 25  1  0  0  0  0
 24 26  1  0  0  0  0
 24 27  1  0  0  0  0
 22 23  1  0  0  0  0
 22 24  1  0  0  0  0
M  CHG  1  18  -1
M  END
$$$$
default_name
  -OEChem-01062215323D

 27 26  0     1  0  0  0  0  0999 V2000
   -3.2406   -3.5400    1.2326 H   0  0  0  0  0  0  0  0  0  0  0  0
   -3.1436   -2.6190    0.6606 C   0  0  0  0  0  0  0  0  0  0  0  0
   -3.8786   -1.8920    0.9996 H   0  0  0  0  0  0  0  0  0  0  0  0
   -3.2846   -2.8280   -0.3984 H   0  0  0  0  0  0  0  0  0  0  0  0
   -1.7586   -2.0580    0.8686 C   0  0  0  0  0  0  0  0  0  0  0  0
   -0.9666   -2.6340    1.6026 O   0  0  0  0  0  0  0  0  0  0  0  0
   -1.4866   -0.9220    0.2366 N   0  0  0  0  0  0  0  0  0  0  0  0
   -2.2166   -0.4790   -0.2994 H   0  0  0  0  0  0  0  0  0  0  0  0
   -0.1956   -0.2250    0.2596 C   0  0  1  0  0  0  0  0  0  0  0  0
    0.2788   -0.3959    1.2264 H   0  0  0  0  0  0  0  0  0  0  0  0
    0.7234   -0.8276   -0.8221 C   0  0  0  0  0  0  0  0  0  0  0  0
    0.1858   -0.8039   -1.7713 H   0  0  0  0  0  0  0  0  0  0  0  0
    1.6189   -0.2118   -0.9177 H   0  0  0  0  0  0  0  0  0  0  0  0
    1.1385   -2.2801   -0.5330 C   0  0  0  0  0  0  0  0  0  0  0  0
    1.6724   -2.3162    0.4197 H   0  0  0  0  0  0  0  0  0  0  0  0
    0.2318   -2.8827   -0.4342 H   0  0  0  0  0  0  0  0  0  0  0  0
    2.0339   -2.8873   -1.6231 C   0  0  0  0  0  0  0  0  0  0  0  0
    2.2258   -2.2282   -2.6696 O   0  5  0  0  0  0  0  0  0  0  0  0
    2.5378   -4.0057   -1.3766 O   0  0  0  0  0  0  0  0  0  0  0  0
   -0.3933    1.2973    0.1048 C   0  0  0  0  0  0  0  0  0  0  0  0
   -0.2497    2.0506    1.0700 O   0  0  0  0  0  0  0  0  0  0  0  0
   -0.6992    1.7577   -1.1152 N   0  0  0  0  0  0  0  0  0  0  0  0
   -0.8538    1.0772   -1.8443 H   0  0  0  0  0  0  0  0  0  0  0  0
   -0.9363    3.1653   -1.4249 C   0  0  0  0  0  0  0  0  0  0  0  0
   -0.1080    3.7692   -1.0505 H   0  0  0  0  0  0  0  0  0  0  0  0
   -1.0291    3.3020   -2.5032 H   0  0  0  0  0  0  0  0  0  0  0  0
   -1.8568    3.4932   -0.9380 H   0  0  0  0  0  0  0  0  0  0  0  0
  5  6  2  0  0  0  0
  5  7  1  0  0  0  0
  2  3  1  0  0  0  0
  2  4  1  0  0  0  0
  2  5  1  0  0  0  0
  1  2  1  0  0  0  0
 20 21  2  0  0  0  0
 20 22  1  0  0  0  0
 17 18  1  0  0  0  0
 17 19  2  0  0  0  0
 14 15  1  0  0  0  0
 14 16  1  0  0  0  0
 14 17  1  0  0  0  0
 11 12  1  0  0  0  0
 11 13  1  0  0  0  0
 11 14  1  0  0  0  0
  9 10  1  0  0  0  0
  9 11  1  0  0  0  0
  9 20  1  0  0  0  0
  7  8  1  0  0  0  0
  7  9  1  0  0  0  0
 24 25  1  0  0  0  0
 24 26  1  0  0  0  0
 24 27  1  0  0  0  0
 22 23  1  0  0  0  0
 22 24  1  0  0  0  0
M  CHG  1  18  -1
M  END
$$$$
default_name
  -OEChem-01062215323D

 27 26  0     1  0  0  0  0  0999 V2000
   -3.2406   -3.5400    1.2326 H   0  0  0  0  0  0  0  0  0  0  0  0
   -3.1436   -2.6190    0.6606 C   0  0  0  0  0  0  0  0  0  0  0  0
   -3.8786   -1.8920    0.9996 H   0  0  0  0  0  0  0  0  0  0  0  0
   -3.2846   -2.8280   -0.3984 H   0  0  0  0  0  0  0  0  0  0  0  0
   -1.7586   -2.0580    0.8686 C   0  0  0  0  0  0  0  0  0  0  0  0
   -0.9666   -2.6340    1.6026 O   0  0  0  0  0  0  0  0  0  0  0  0
   -1.4866   -0.9220    0.2366 N   0  0  0  0  0  0  0  0  0  0  0  0
   -2.2166   -0.4790   -0.2994 H   0  0  0  0  0  0  0  0  0  0  0  0
   -0.1956   -0.2250    0.2596 C   0  0  1  0  0  0  0  0  0  0  0  0
    0.2788   -0.3959    1.2264 H   0  0  0  0  0  0  0  0  0  0  0  0
    0.7234   -0.8276   -0.8221 C   0  0  0  0  0  0  0  0  0  0  0  0
    0.1858   -0.8039   -1.7713 H   0  0  0  0  0  0  0  0  0  0  0  0
    1.6189   -0.2118   -0.9177 H   0  0  0  0  0  0  0  0  0  0  0  0
    1.1385   -2.2801   -0.5330 C   0  0  0  0  0  0  0  0  0  0  0  0
    1.6724   -2.3162    0.4197 H   0  0  0  0  0  0  0  0  0  0  0  0
    0.2318   -2.8827   -0.4342 H   0  0  0  0  0  0  0  0  0  0  0  0
    2.0339   -2.8873   -1.6231 C   0  0  0  0  0  0  0  0  0  0  0  0
    2.2258   -2.2282   -2.6696 O   0  5  0  0  0  0  0  0  0  0  0  0
    2.5378   -4.0057   -1.3766 O   0  0  0  0  0  0  0  0  0  0  0  0
   -0.3933    1.2973    0.1048 C   0  0  0  0  0  0  0  0  0  0  0  0
    0.0087    2.0744    0.9733 O   0  0  0  0  0  0  0  0  0  0  0  0
   -0.9911    1.7302   -1.0129 N   0  0  0  0  0  0  0  0  0  0  0  0
   -1.3417    1.0333   -1.6531 H   0  0  0  0  0  0  0  0  0  0  0  0
   -1.2689    3.1344   -1.3031 C   0  0  0  0  0  0  0  0  0  0  0  0
   -0.3596    3.7239   -1.1746 H   0  0  0  0  0  0  0  0  0  0  0  0
   -1.6315    3.2418   -2.3264 H   0  0  0  0  0  0  0  0  0  0  0  0
   -2.0269    3.5045   -0.6100 H   0  0  0  0  0  0  0  0  0  0  0  0
  5  6  2  0  0  0  0
  5  7  1  0  0  0  0
  2  3  1  0  0  0  0
  2  4  1  0  0  0  0
  2  5  1  0  0  0  0
  1  2  1  0  0  0  0
 20 21  2  0  0  0  0
 20 22  1  0  0  0  0
 17 18  1  0  0  0  0
 17 19  2  0  0  0  0
 14 15  1  0  0  0  0
 14 16  1  0  0  0  0
 14 17  1  0  0  0  0
 11 12  1  0  0  0  0
 11 13  1  0  0  0  0
 11 14  1  0  0  0  0
  9 10  1  0  0  0  0
  9 11  1  0  0  0  0
  9 20  1  0  0  0  0
  7  8  1  0  0  0  0
  7  9  1  0  0  0  0
 24 25  1  0  0  0  0
 24 26  1  0  0  0  0
 24 27  1  0  0  0  0
 22 23  1  0  0  0  0
 22 24  1  0  0  0  0
M  CHG  1  18  -1
M  END
$$$$
default_name
  -OEChem-01062215323D

 27 26  0     1  0  0  0  0  0999 V2000
   -3.2406   -3.5400    1.2326 H   0  0  0  0  0  0  0  0  0  0  0  0
   -3.1436   -2.6190    0.6606 C   0  0  0  0  0  0  0  0  0  0  0  0
   -3.8786   -1.8920    0.9996 H   0  0  0  0  0  0  0  0  0  0  0  0
   -3.2846   -2.8280   -0.3984 H   0  0  0  0  0  0  0  0  0  0  0  0
   -1.7586   -2.0580    0.8686 C   0  0  0  0  0  0  0  0  0  0  0  0
   -0.9666   -2.6340    1.6026 O   0  0  0  0  0  0  0  0  0  0  0  0
   -1.4866   -0.9220    0.2366 N   0  0  0  0  0  0  0  0  0  0  0  0
   -2.2166   -0.4790   -0.2994 H   0  0  0  0  0  0  0  0  0  0  0  0
   -0.1956   -0.2250    0.2596 C   0  0  1  0  0  0  0  0  0  0  0  0
    0.2788   -0.3959    1.2264 H   0  0  0  0  0  0  0  0  0  0  0  0
    0.7234   -0.8276   -0.8221 C   0  0  0  0  0  0  0  0  0  0  0  0
    0.1858   -0.8039   -1.7713 H   0  0  0  0  0  0  0  0  0  0  0  0
    1.6189   -0.2118   -0.9177 H   0  0  0  0  0  0  0  0  0  0  0  0
    1.1385   -2.2801   -0.5330 C   0  0  0  0  0  0  0  0  0  0  0  0
    1.6724   -2.3162    0.4197 H   0  0  0  0  0  0  0  0  0  0  0  0
    0.2318   -2.8827   -0.4342 H   0  0  0  0  0  0  0  0  0  0  0  0
    2.0339   -2.8873   -1.6231 C   0  0  0  0  0  0  0  0  0  0  0  0
    2.2258   -2.2282   -2.6696 O   0  5  0  0  0  0  0  0  0  0  0  0
    2.5378   -4.0057   -1.3766 O   0  0  0  0  0  0  0  0  0  0  0  0
   -0.3933    1.2973    0.1048 C   0  0  0  0  0  0  0  0  0  0  0  0
    0.2342    2.0874    0.8131 O   0  0  0  0  0  0  0  0  0  0  0  0
   -1.2476    1.7146   -0.8386 N   0  0  0  0  0  0  0  0  0  0  0  0
   -1.7654    1.0099   -1.3424 H   0  0  0  0  0  0  0  0  0  0  0  0
   -1.5599    3.1173   -1.0995 C   0  0  0  0  0  0  0  0  0  0  0  0
   -0.6354    3.6826   -1.2287 H   0  0  0  0  0  0  0  0  0  0  0  0
   -2.1698    3.2051   -1.9998 H   0  0  0  0  0  0  0  0  0  0  0  0
   -2.1072    3.5307   -0.2500 H   0  0  0  0  0  0  0  0  0  0  0  0
  5  6  2  0  0  0  0
  5  7  1  0  0  0  0
  2  3  1  0  0  0  0
  2  4  1  0  0  0  0
  2  5  1  0  0  0  0
  1  2  1  0  0  0  0
 20 21  2  0  0  0  0
 20 22  1  0  0  0  0
 17 18  1  0  0  0  0
 17 19  2  0  0  0  0
 14 15  1  0  0  0  0
 14 16  1  0  0  0  0
 14 17  1  0  0  0  0
 11 12  1  0  0  0  0
 11 13  1  0  0  0  0
 11 14  1  0  0  0  0
  9 10  1  0  0  0  0
  9 11  1  0  0  0  0
  9 20  1  0  0  0  0
  7  8  1  0  0  0  0
  7  9  1  0  0  0  0
 24 25  1  0  0  0  0
 24 26  1  0  0  0  0
 24 27  1  0  0  0  0
 22 23  1  0  0  0  0
 22 24  1  0  0  0  0
M  CHG  1  18  -1
M  END
$$$$
default_name
  -OEChem-01062215323D

 27 26  0     1  0  0  0  0  0999 V2000
   -3.2406   -3.5400    1.2326 H   0  0  0  0  0  0  0  0  0  0  0  0
   -3.1436   -2.6190    0.6606 C   0  0  0  0  0  0  0  0  0  0  0  0
   -3.8786   -1.8920    0.9996 H   0  0  0  0  0  0  0  0  0  0  0  0
   -3.2846   -2.8280   -0.3984 H   0  0  0  0  0  0  0  0  0  0  0  0
   -1.7586   -2.0580    0.8686 C   0  0  0  0  0  0  0  0  0  0  0  0
   -0.9666   -2.6340    1.6026 O   0  0  0  0  0  0  0  0  0  0  0  0
   -1.4866   -0.9220    0.2366 N   0  0  0  0  0  0  0  0  0  0  0  0
   -2.2166   -0.4790   -0.2994 H   0  0  0  0  0  0  0  0  0  0  0  0
   -0.1956   -0.2250    0.2596 C   0  0  1  0  0  0  0  0  0  0  0  0
    0.2788   -0.3959    1.2264 H   0  0  0  0  0  0  0  0  0  0  0  0
    0.7234   -0.8276   -0.8221 C   0  0  0  0  0  0  0  0  0  0  0  0
    0.1858   -0.8039   -1.7713 H   0  0  0  0  0  0  0  0  0  0  0  0
    1.6189   -0.2118   -0.9177 H   0  0  0  0  0  0  0  0  0  0  0  0
    1.1385   -2.2801   -0.5330 C   0  0  0  0  0  0  0  0  0  0  0  0
    1.6724   -2.3162    0.4197 H   0  0  0  0  0  0  0  0  0  0  0  0
    0.2318   -2.8827   -0.4342 H   0  0  0  0  0  0  0  0  0  0  0  0
    2.0339   -2.8873   -1.6231 C   0  0  0  0  0  0  0  0  0  0  0  0
    2.2258   -2.2282   -2.6696 O   0  5  0  0  0  0  0  0  0  0  0  0
    2.5378   -4.0057   -1.3766 O   0  0  0  0  0  0  0  0  0  0  0  0
   -0.3933    1.2973    0.1048 C   0  0  0  0  0  0  0  0  0  0  0  0
    0.4115    2.0888    0.6004 O   0  0  0  0  0  0  0  0  0  0  0  0
   -1.4513    1.7119   -0.6042 N   0  0  0  0  0  0  0  0  0  0  0  0
   -2.0958    1.0086   -0.9333 H   0  0  0  0  0  0  0  0  0  0  0  0
   -1.7895    3.1151   -0.8280 C   0  0  0  0  0  0  0  0  0  0  0  0
   -0.9167    3.6481   -1.2091 H   0  0  0  0  0  0  0  0  0  0  0  0
   -2.6073    3.1944   -1.5456 H   0  0  0  0  0  0  0  0  0  0  0  0
   -2.0922    3.5700    0.1173 H   0  0  0  0  0  0  0  0  0  0  0  0
  5  6  2  0  0  0  0
  5  7  1  0  0  0  0
  2  3  1  0  0  0  0
  2  4  1  0  0  0  0
  2  5  1  0  0  0  0
  1  2  1  0  0  0  0
 20 21  2  0  0  0  0
 20 22  1  0  0  0  0
 17 18  1  0  0  0  0
 17 19  2  0  0  0  0
 14 15  1  0  0  0  0
 14 16  1  0  0  0  0
 14 17  1  0  0  0  0
 11 12  1  0  0  0  0
 11 13  1  0  0  0  0
 11 14  1  0  0  0  0
  9 10  1  0  0  0  0
  9 11  1  0  0  0  0
  9 20  1  0  0  0  0
  7  8  1  0  0  0  0
  7  9  1  0  0  0  0
 24 25  1  0  0  0  0
 24 26  1  0  0  0  0
 24 27  1  0  0  0  0
 22 23  1  0  0  0  0
 22 24  1  0  0  0  0
M  CHG  1  18  -1
M  END
$$$$
default_name
  -OEChem-01062215323D

 27 26  0     1  0  0  0  0  0999 V2000
   -3.2406   -3.5400    1.2326 H   0  0  0  0  0  0  0  0  0  0  0  0
   -3.1436   -2.6190    0.6606 C   0  0  0  0  0  0  0  0  0  0  0  0
   -3.8786   -1.8920    0.9996 H   0  0  0  0  0  0  0  0  0  0  0  0
   -3.2846   -2.8280   -0.3984 H   0  0  0  0  0  0  0  0  0  0  0  0
   -1.7586   -2.0580    0.8686 C   0  0  0  0  0  0  0  0  0  0  0  0
   -0.9666   -2.6340    1.6026 O   0  0  0  0  0  0  0  0  0  0  0  0
   -1.4866   -0.9220    0.2366 N   0  0  0  0  0  0  0  0  0  0  0  0
   -2.2166   -0.4790   -0.2994 H   0  0  0  0  0  0  0  0  0  0  0  0
   -0.1956   -0.2250    0.2596 C   0  0  1  0  0  0  0  0  0  0  0  0
    0.2788   -0.3959    1.2264 H   0  0  0  0  0  0  0  0  0  0  0  0
    0.7234   -0.8276   -0.8221 C   0  0  0  0  0  0  0  0  0  0  0  0
    0.1858   -0.8039   -1.7713 H   0  0  0  0  0  0  0  0  0  0  0  0
    1.6189   -0.2118   -0.9177 H   0  0  0  0  0  0  0  0  0  0  0  0
    1.1385   -2.2801   -0.5330 C   0  0  0  0  0  0  0  0  0  0  0  0
    1.6724   -2.3162    0.4197 H   0  0  0  0  0  0  0  0  0  0  0  0
    0.2318   -2.8827   -0.4342 H   0  0  0  0  0  0  0  0  0  0  0  0
    2.0339   -2.8873   -1.6231 C   0  0  0  0  0  0  0  0  0  0  0  0
    2.2258   -2.2282   -2.6696 O   0  5  0  0  0  0  0  0  0  0  0  0
    2.5378   -4.0057   -1.3766 O   0  0  0  0  0  0  0  0  0  0  0  0
   -0.3933    1.2973    0.1048 C   0  0  0  0  0  0  0  0  0  0  0  0
    0.5284    2.0785    0.3496 O   0  0  0  0  0  0  0  0  0  0  0  0
   -1.5882    1.7225   -0.3258 N   0  0  0  0  0  0  0  0  0  0  0  0
   -2.3106    1.0294   -0.4537 H   0  0  0  0  0  0  0  0  0  0  0  0
   -1.9419    3.1280   -0.5070 C   0  0  0  0  0  0  0  0  0  0  0  0
   -1.1844    3.6226   -1.1172 H   0  0  0  0  0  0  0  0  0  0  0  0
   -2.9142    3.2106   -0.9948 H   0  0  0  0  0  0  0  0  0  0  0  0
   -1.9828    3.6197    0.4669 H   0  0  0  0  0  0  0  0  0  0  0  0
  5  6  2  0  0  0  0
  5  7  1  0  0  0  0
  2  3  1  0  0  0  0
  2  4  1  0  0  0  0
  2  5  1  0  0  0  0
  1  2  1  0  0  0  0
 20 21  2  0  0  0  0
 20 22  1  0  0  0  0
 17 18  1  0  0  0  0
 17 19  2  0  0  0  0
 14 15  1  0  0  0  0
 14 16  1  0  0  0  0
 14 17  1  0  0  0  0
 11 12  1  0  0  0  0
 11 13  1  0  0  0  0
 11 14  1  0  0  0  0
  9 10  1  0  0  0  0
  9 11  1  0  0  0  0
  9 20  1  0  0  0  0
  7  8  1  0  0  0  0
  7  9  1  0  0  0  0
 24 25  1  0  0  0  0
 24 26  1  0  0  0  0
 24 27  1  0  0  0  0
 22 23  1  0  0  0  0
 22 24  1  0  0  0  0
M  CHG  1  18  -1
M  END
$$$$
default_name
  -OEChem-01062215323D

 27 26  0     1  0  0  0  0  0999 V2000
   -3.2406   -3.5400    1.2326 H   0  0  0  0  0  0  0  0  0  0  0  0
   -3.1436   -2.6190    0.6606 C   0  0  0  0  0  0  0  0  0  0  0  0
   -3.8786   -1.8920    0.9996 H   0  0  0  0  0  0  0  0  0  0  0  0
   -3.2846   -2.8280   -0.3984 H   0  0  0  0  0  0  0  0  0  0  0  0
   -1.7586   -2.0580    0.8686 C   0  0  0  0  0  0  0  0  0  0  0  0
   -0.9666   -2.6340    1.6026 O   0  0  0  0  0  0  0  0  0  0  0  0
   -1.4866   -0.9220    0.2366 N   0  0  0  0  0  0  0  0  0  0  0  0
   -2.2166   -0.4790   -0.2994 H   0  0  0  0  0  0  0  0  0  0  0  0
   -0.1956   -0.2250    0.2596 C   0  0  1  0  0  0  0  0  0  0  0  0
    0.2788   -0.3959    1.2264 H   0  0  0  0  0  0  0  0  0  0  0  0
    0.7234   -0.8276   -0.8221 C   0  0  0  0  0  0  0  0  0  0  0  0
    0.1858   -0.8039   -1.7713 H   0  0  0  0  0  0  0  0  0  0  0  0
    1.6189   -0.2118   -0.9177 H   0  0  0  0  0  0  0  0  0  0  0  0
    1.1385   -2.2801   -0.5330 C   0  0  0  0  0  0  0  0  0  0  0  0
    1.6724   -2.3162    0.4197 H   0  0  0  0  0  0  0  0  0  0  0  0
    0.2318   -2.8827   -0.4342 H   0  0  0  0  0  0  0  0  0  0  0  0
    2.0339   -2.8873   -1.6231 C   0  0  0  0  0  0  0  0  0  0  0  0
    2.2258   -2.2282   -2.6696 O   0  5  0  0  0  0  0  0  0  0  0  0
    2.5378   -4.0057   -1.3766 O   0  0  0  0  0  0  0  0  0  0  0  0
   -0.3933    1.2973    0.1048 C   0  0  0  0  0  0  0  0  0  0  0  0
    0.5771    2.0571    0.0779 O   0  0  0  0  0  0  0  0  0  0  0  0
   -1.6491    1.7454   -0.0221 N   0  0  0  0  0  0  0  0  0  0  0  0
   -2.3950    1.0711    0.0637 H   0  0  0  0  0  0  0  0  0  0  0  0
   -2.0069    3.1550   -0.1584 C   0  0  0  0  0  0  0  0  0  0  0  0
   -1.4201    3.6081   -0.9593 H   0  0  0  0  0  0  0  0  0  0  0  0
   -3.0695    3.2524   -0.3850 H   0  0  0  0  0  0  0  0  0  0  0  0
   -1.7866    3.6766    0.7750 H   0  0  0  0  0  0  0  0  0  0  0  0
  5  6  2  0  0  0  0
  5  7  1  0  0  0  0
  2  3  1  0  0  0  0
  2  4  1  0  0  0  0
  2  5  1  0  0  0  0
  1  2  1  0  0  0  0
 20 21  2  0  0  0  0
 20 22  1  0  0  0  0
 17 18  1  0  0  0  0
 17 19  2  0  0  0  0
 14 15  1  0  0  0  0
 14 16  1  0  0  0  0
 14 17  1  0  0  0  0
 11 12  1  0  0  0  0
 11 13  1  0  0  0  0
 11 14  1  0  0  0  0
  9 10  1  0  0  0  0
  9 11  1  0  0  0  0
  9 20  1  0  0  0  0
  7  8  1  0  0  0  0
  7  9  1  0  0  0  0
 24 25  1  0  0  0  0
 24 26  1  0  0  0  0
 24 27  1  0  0  0  0
 22 23  1  0  0  0  0
 22 24  1  0  0  0  0
M  CHG  1  18  -1
M  END
$$$$
default_name
  -OEChem-01062215323D

 27 26  0     1  0  0  0  0  0999 V2000
   -3.2406   -3.5400    1.2326 H   0  0  0  0  0  0  0  0  0  0  0  0
   -3.1436   -2.6190    0.6606 C   0  0  0  0  0  0  0  0  0  0  0  0
   -3.8786   -1.8920    0.9996 H   0  0  0  0  0  0  0  0  0  0  0  0
   -3.2846   -2.8280   -0.3984 H   0  0  0  0  0  0  0  0  0  0  0  0
   -1.7586   -2.0580    0.8686 C   0  0  0  0  0  0  0  0  0  0  0  0
   -0.9666   -2.6340    1.6026 O   0  0  0  0  0  0  0  0  0  0  0  0
   -1.4866   -0.9220    0.2366 N   0  0  0  0  0  0  0  0  0  0  0  0
   -2.2166   -0.4790   -0.2994 H   0  0  0  0  0  0  0  0  0  0  0  0
   -0.1956   -0.2250    0.2596 C   0  0  1  0  0  0  0  0  0  0  0  0
    0.2788   -0.3959    1.2264 H   0  0  0  0  0  0  0  0  0  0  0  0
    0.7234   -0.8276   -0.8221 C   0  0  0  0  0  0  0  0  0  0  0  0
    0.1858   -0.8039   -1.7713 H   0  0  0  0  0  0  0  0  0  0  0  0
    1.6189   -0.2118   -0.9177 H   0  0  0  0  0  0  0  0  0  0  0  0
    1.1385   -2.2801   -0.5330 C   0  0  0  0  0  0  0  0  0  0  0  0
    1.6724   -2.3162    0.4197 H   0  0  0  0  0  0  0  0  0  0  0  0
    0.2318   -2.8827   -0.4342 H   0  0  0  0  0  0  0  0  0  0  0  0
    2.0339   -2.8873   -1.6231 C   0  0  0  0  0  0  0  0  0  0  0  0
    2.2258   -2.2282   -2.6696 O   0  5  0  0  0  0  0  0  0  0  0  0
    2.5378   -4.0057   -1.3766 O   0  0  0  0  0  0  0  0  0  0  0  0
   -0.3933    1.2973    0.1048 C   0  0  0  0  0  0  0  0  0  0  0  0
    0.5541    2.0263   -0.1964 O   0  0  0  0  0  0  0  0  0  0  0  0
   -1.6298    1.7793    0.2859 N   0  0  0  0  0  0  0  0  0  0  0  0
   -2.3433    1.1307    0.5836 H   0  0  0  0  0  0  0  0  0  0  0  0
   -1.9799    3.1943    0.1939 C   0  0  0  0  0  0  0  0  0  0  0  0
   -1.6079    3.6054   -0.7461 H   0  0  0  0  0  0  0  0  0  0  0  0
   -3.0628    3.3171    0.2423 H   0  0  0  0  0  0  0  0  0  0  0  0
   -1.5169    3.7366    1.0207 H   0  0  0  0  0  0  0  0  0  0  0  0
  5  6  2  0  0  0  0
  5  7  1  0  0  0  0
  2  3  1  0  0  0  0
  2  4  1  0  0  0  0
  2  5  1  0  0  0  0
  1  2  1  0  0  0  0
 20 21  2  0  0  0  0
 20 22  1  0  0  0  0
 17 18  1  0  0  0  0
 17 19  2  0  0  0  0
 14 15  1  0  0  0  0
 14 16  1  0  0  0  0
 14 17  1  0  0  0  0
 11 12  1  0  0  0  0
 11 13  1  0  0  0  0
 11 14  1  0  0  0  0
  9 10  1  0  0  0  0
  9 11  1  0  0  0  0
  9 20  1  0  0  0  0
  7  8  1  0  0  0  0
  7  9  1  0  0  0  0
 24 25  1  0  0  0  0
 24 26  1  0  0  0  0
 24 27  1  0  0  0  0
 22 23  1  0  0  0  0
 22 24  1  0  0  0  0
M  CHG  1  18  -1
M  END
$$$$
default_name
  -OEChem-01062215323D

 27 26  0     1  0  0  0  0  0999 V2000
   -3.2406   -3.5400    1.2326 H   0  0  0  0  0  0  0  0  0  0  0  0
   -3.1436   -2.6190    0.6606 C   0  0  0  0  0  0  0  0  0  0  0  0
   -3.8786   -1.8920    0.9996 H   0  0  0  0  0  0  0  0  0  0  0  0
   -3.2846   -2.8280   -0.3984 H   0  0  0  0  0  0  0  0  0  0  0  0
   -1.7586   -2.0580    0.8686 C   0  0  0  0  0  0  0  0  0  0  0  0
   -0.9666   -2.6340    1.6026 O   0  0  0  0  0  0  0  0  0  0  0  0
   -1.4866   -0.9220    0.2366 N   0  0  0  0  0  0  0  0  0  0  0  0
   -2.2166   -0.4790   -0.2994 H   0  0  0  0  0  0  0  0  0  0  0  0
   -0.1956   -0.2250    0.2596 C   0  0  1  0  0  0  0  0  0  0  0  0
    0.2788   -0.3959    1.2264 H   0  0  0  0  0  0  0  0  0  0  0  0
    0.7234   -0.8276   -0.8221 C   0  0  0  0  0  0  0  0  0  0  0  0
    0.1858   -0.8039   -1.7713 H   0  0  0  0  0  0  0  0  0  0  0  0
    1.6189   -0.2118   -0.9177 H   0  0  0  0  0  0  0  0  0  0  0  0
    1.1385   -2.2801   -0.5330 C   0  0  0  0  0  0  0  0  0  0  0  0
    1.6724   -2.3162    0.4197 H   0  0  0  0  0  0  0  0  0  0  0  0
    0.2318   -2.8827   -0.4342 H   0  0  0  0  0  0  0  0  0  0  0  0
    2.0339   -2.8873   -1.6231 C   0  0  0  0  0  0  0  0  0  0  0  0
    2.2258   -2.2282   -2.6696 O   0  5  0  0  0  0  0  0  0  0  0  0
    2.5378   -4.0057   -1.3766 O   0  0  0  0  0  0  0  0  0  0  0  0
   -0.3933    1.2973    0.1048 C   0  0  0  0  0  0  0  0  0  0  0  0
    0.4611    1.9879   -0.4544 O   0  0  0  0  0  0  0  0  0  0  0  0
   -1.5316    1.8217    0.5774 N   0  0  0  0  0  0  0  0  0  0  0  0
   -2.1591    1.2041    1.0707 H   0  0  0  0  0  0  0  0  0  0  0  0
   -1.8628    3.2433    0.5261 C   0  0  0  0  0  0  0  0  0  0  0  0
   -1.7348    3.6147   -0.4921 H   0  0  0  0  0  0  0  0  0  0  0  0
   -2.8944    3.4002    0.8444 H   0  0  0  0  0  0  0  0  0  0  0  0
   -1.1921    3.7957    1.1871 H   0  0  0  0  0  0  0  0  0  0  0  0
  5  6  2  0  0  0  0
  5  7  1  0  0  0  0
  2  3  1  0  0  0  0
  2  4  1  0  0  0  0
  2  5  1  0  0  0  0
  1  2  1  0  0  0  0
 20 21  2  0  0  0  0
 20 22  1  0  0  0  0
 17 18  1  0  0  0  0
 17 19  2  0  0  0  0
 14 15  1  0  0  0  0
 14 16  1  0  0  0  0
 14 17  1  0  0  0  0
 11 12  1  0  0  0  0
 11 13  1  0  0  0  0
 11 14  1  0  0  0  0
  9 10  1  0  0  0  0
  9 11  1  0  0  0  0
  9 20  1  0  0  0  0
  7  8  1  0  0  0  0
  7  9  1  0  0  0  0
 24 25  1  0  0  0  0
 24 26  1  0  0  0  0
 24 27  1  0  0  0  0
 22 23  1  0  0  0  0
 22 24  1  0  0  0  0
M  CHG  1  18  -1
M  END
$$$$
default_name
  -OEChem-01062215323D

 27 26  0     1  0  0  0  0  0999 V2000
   -3.2406   -3.5400    1.2326 H   0  0  0  0  0  0  0  0  0  0  0  0
   -3.1436   -2.6190    0.6606 C   0  0  0  0  0  0  0  0  0  0  0  0
   -3.8786   -1.8920    0.9996 H   0  0  0  0  0  0  0  0  0  0  0  0
   -3.2846   -2.8280   -0.3984 H   0  0  0  0  0  0  0  0  0  0  0  0
   -1.7586   -2.0580    0.8686 C   0  0  0  0  0  0  0  0  0  0  0  0
   -0.9666   -2.6340    1.6026 O   0  0  0  0  0  0  0  0  0  0  0  0
   -1.4866   -0.9220    0.2366 N   0  0  0  0  0  0  0  0  0  0  0  0
   -2.2166   -0.4790   -0.2994 H   0  0  0  0  0  0  0  0  0  0  0  0
   -0.1956   -0.2250    0.2596 C   0  0  1  0  0  0  0  0  0  0  0  0
    0.2788   -0.3959    1.2264 H   0  0  0  0  0  0  0  0  0  0  0  0
    0.7234   -0.8276   -0.8221 C   0  0  0  0  0  0  0  0  0  0  0  0
    0.1858   -0.8039   -1.7713 H   0  0  0  0  0  0  0  0  0  0  0  0
    1.6189   -0.2118   -0.9177 H   0  0  0  0  0  0  0  0  0  0  0  0
    1.1385   -2.2801   -0.5330 C   0  0  0  0  0  0  0  0  0  0  0  0
    1.6724   -2.3162    0.4197 H   0  0  0  0  0  0  0  0  0  0  0  0
    0.2318   -2.8827   -0.4342 H   0  0  0  0  0  0  0  0  0  0  0  0
    2.0339   -2.8873   -1.6231 C   0  0  0  0  0  0  0  0  0  0  0  0
    2.2258   -2.2282   -2.6696 O   0  5  0  0  0  0  0  0  0  0  0  0
    2.5378   -4.0057   -1.3766 O   0  0  0  0  0  0  0  0  0  0  0  0
   -0.3933    1.2973    0.1048 C   0  0  0  0  0  0  0  0  0  0  0  0
    0.3044    1.9448   -0.6786 O   0  0  0  0  0  0  0  0  0  0  0  0
   -1.3612    1.8698    0.8325 N   0  0  0  0  0  0  0  0  0  0  0  0
   -1.8548    1.2865    1.4917 H   0  0  0  0  0  0  0  0  0  0  0  0
   -1.6637    3.2986    0.8154 C   0  0  0  0  0  0  0  0  0  0  0  0
   -1.7924    3.6355   -0.2146 H   0  0  0  0  0  0  0  0  0  0  0  0
   -2.5758    3.4961    1.3803 H   0  0  0  0  0  0  0  0  0  0  0  0
   -0.8344    3.8499    1.2630 H   0  0  0  0  0  0  0  0  0  0  0  0
  5  6  2  0  0  0  0
  5  7  1  0  0  0  0
  2  3  1  0  0  0  0
  2  4  1  0  0  0  0
  2  5  1  0  0  0  0
  1  2  1  0  0  0  0
 20 21  2  0  0  0  0
 20 22  1  0  0  0  0
 17 18  1  0  0  0  0
 17 19  2  0  0  0  0
 14 15  1  0  0  0  0
 14 16  1  0  0  0  0
 14 17  1  0  0  0  0
 11 12  1  0  0  0  0
 11 13  1  0  0  0  0
 11 14  1  0  0  0  0
  9 10  1  0  0  0  0
  9 11  1  0  0  0  0
  9 20  1  0  0  0  0
  7  8  1  0  0  0  0
  7  9  1  0  0  0  0
 24 25  1  0  0  0  0
 24 26  1  0  0  0  0
 24 27  1  0  0  0  0
 22 23  1  0  0  0  0
 22 24  1  0  0  0  0
M  CHG  1  18  -1
M  END
$$$$
default_name
  -OEChem-01062215323D

 27 26  0     1  0  0  0  0  0999 V2000
   -3.2406   -3.5400    1.2326 H   0  0  0  0  0  0  0  0  0  0  0  0
   -3.1436   -2.6190    0.6606 C   0  0  0  0  0  0  0  0  0  0  0  0
   -3.8786   -1.8920    0.9996 H   0  0  0  0  0  0  0  0  0  0  0  0
   -3.2846   -2.8280   -0.3984 H   0  0  0  0  0  0  0  0  0  0  0  0
   -1.7586   -2.0580    0.8686 C   0  0  0  0  0  0  0  0  0  0  0  0
   -0.9666   -2.6340    1.6026 O   0  0  0  0  0  0  0  0  0  0  0  0
   -1.4866   -0.9220    0.2366 N   0  0  0  0  0  0  0  0  0  0  0  0
   -2.2166   -0.4790   -0.2994 H   0  0  0  0  0  0  0  0  0  0  0  0
   -0.1956   -0.2250    0.2596 C   0  0  1  0  0  0  0  0  0  0  0  0
    0.2788   -0.3959    1.2264 H   0  0  0  0  0  0  0  0  0  0  0  0
    0.7234   -0.8276   -0.8221 C   0  0  0  0  0  0  0  0  0  0  0  0
    0.1858   -0.8039   -1.7713 H   0  0  0  0  0  0  0  0  0  0  0  0
    1.6189   -0.2118   -0.9177 H   0  0  0  0  0  0  0  0  0  0  0  0
    1.1385   -2.2801   -0.5330 C   0  0  0  0  0  0  0  0  0  0  0  0
    1.6724   -2.3162    0.4197 H   0  0  0  0  0  0  0  0  0  0  0  0
    0.2318   -2.8827   -0.4342 H   0  0  0  0  0  0  0  0  0  0  0  0
    2.0339   -2.8873   -1.6231 C   0  0  0  0  0  0  0  0  0  0  0  0
    2.2258   -2.2282   -2.6696 O   0  5  0  0  0  0  0  0  0  0  0  0
    2.5378   -4.0057   -1.3766 O   0  0  0  0  0  0  0  0  0  0  0  0
   -0.3933    1.2973    0.1048 C   0  0  0  0  0  0  0  0  0  0  0  0
    0.0947    1.8997   -0.8536 O   0  0  0  0  0  0  0  0  0  0  0  0
   -1.1302    1.9202    1.0338 N   0  0  0  0  0  0  0  0  0  0  0  0
   -1.4513    1.3721    1.8179 H   0  0  0  0  0  0  0  0  0  0  0  0
   -1.3960    3.3564    1.0421 C   0  0  0  0  0  0  0  0  0  0  0  0
   -1.7765    3.6662    0.0674 H   0  0  0  0  0  0  0  0  0  0  0  0
   -2.1288    3.5982    1.8133 H   0  0  0  0  0  0  0  0  0  0  0  0
   -0.4681    3.8954    1.2431 H   0  0  0  0  0  0  0  0  0  0  0  0
  5  6  2  0  0  0  0
  5  7  1  0  0  0  0
  2  3  1  0  0  0  0
  2  4  1  0  0  0  0
  2  5  1  0  0  0  0
  1  2  1  0  0  0  0
 20 21  2  0  0  0  0
 20 22  1  0  0  0  0
 17 18  1  0  0  0  0
 17 19  2  0  0  0  0
 14 15  1  0  0  0  0
 14 16  1  0  0  0  0
 14 17  1  0  0  0  0
 11 12  1  0  0  0  0
 11 13  1  0  0  0  0
 11 14  1  0  0  0  0
  9 10  1  0  0  0  0
  9 11  1  0  0  0  0
  9 20  1  0  0  0  0
  7  8  1  0  0  0  0
  7  9  1  0  0  0  0
 24 25  1  0  0  0  0
 24 26  1  0  0  0  0
 24 27  1  0  0  0  0
 22 23  1  0  0  0  0
 22 24  1  0  0  0  0
M  CHG  1  18  -1
M  END
$$$$
default_name
  -OEChem-01062215323D

 27 26  0     1  0  0  0  0  0999 V2000
   -3.2406   -3.5400    1.2326 H   0  0  0  0  0  0  0  0  0  0  0  0
   -3.1436   -2.6190    0.6606 C   0  0  0  0  0  0  0  0  0  0  0  0
   -3.8786   -1.8920    0.9996 H   0  0  0  0  0  0  0  0  0  0  0  0
   -3.2846   -2.8280   -0.3984 H   0  0  0  0  0  0  0  0  0  0  0  0
   -1.7586   -2.0580    0.8686 C   0  0  0  0  0  0  0  0  0  0  0  0
   -0.9666   -2.6340    1.6026 O   0  0  0  0  0  0  0  0  0  0  0  0
   -1.4866   -0.9220    0.2366 N   0  0  0  0  0  0  0  0  0  0  0  0
   -2.2166   -0.4790   -0.2994 H   0  0  0  0  0  0  0  0  0  0  0  0
   -0.1956   -0.2250    0.2596 C   0  0  1  0  0  0  0  0  0  0  0  0
    0.2788   -0.3959    1.2264 H   0  0  0  0  0  0  0  0  0  0  0  0
    0.7234   -0.8276   -0.8221 C   0  0  0  0  0  0  0  0  0  0  0  0
    0.1858   -0.8039   -1.7713 H   0  0  0  0  0  0  0  0  0  0  0  0
    1.6189   -0.2118   -0.9177 H   0  0  0  0  0  0  0  0  0  0  0  0
    1.1385   -2.2801   -0.5330 C   0  0  0  0  0  0  0  0  0  0  0  0
    1.6724   -2.3162    0.4197 H   0  0  0  0  0  0  0  0  0  0  0  0
    0.2318   -2.8827   -0.4342 H   0  0  0  0  0  0  0  0  0  0  0  0
    2.0339   -2.8873   -1.6231 C   0  0  0  0  0  0  0  0  0  0  0  0
    2.2258   -2.2282   -2.6696 O   0  5  0  0  0  0  0  0  0  0  0  0
    2.5378   -4.0057   -1.3766 O   0  0  0  0  0  0  0  0  0  0  0  0
   -0.3933    1.2973    0.1048 C   0  0  0  0  0  0  0  0  0  0  0  0
   -0.1538    1.8559   -0.9677 O   0  0  0  0  0  0  0  0  0  0  0  0
   -0.8544    1.9697    1.1675 N   0  0  0  0  0  0  0  0  0  0  0  0
   -0.9760    1.4551    2.0271 H   0  0  0  0  0  0  0  0  0  0  0  0
   -1.0780    3.4129    1.1909 C   0  0  0  0  0  0  0  0  0  0  0  0
   -1.6884    3.7048    0.3347 H   0  0  0  0  0  0  0  0  0  0  0  0
   -1.5837    3.6995    2.1140 H   0  0  0  0  0  0  0  0  0  0  0  0
   -0.1181    3.9292    1.1288 H   0  0  0  0  0  0  0  0  0  0  0  0
  5  6  2  0  0  0  0
  5  7  1  0  0  0  0
  2  3  1  0  0  0  0
  2  4  1  0  0  0  0
  2  5  1  0  0  0  0
  1  2  1  0  0  0  0
 20 21  2  0  0  0  0
 20 22  1  0  0  0  0
 17 18  1  0  0  0  0
 17 19  2  0  0  0  0
 14 15  1  0  0  0  0
 14 16  1  0  0  0  0
 14 17  1  0  0  0  0
 11 12  1  0  0  0  0
 11 13  1  0  0  0  0
 11 14  1  0  0  0  0
  9 10  1  0  0  0  0
  9 11  1  0  0  0  0
  9 20  1  0  0  0  0
  7  8  1  0  0  0  0
  7  9  1  0  0  0  0
 24 25  1  0  0  0  0
 24 26  1  0  0  0  0
 24 27  1  0  0  0  0
 22 23  1  0  0  0  0
 22 24  1  0  0  0  0
M  CHG  1  18  -1
M  END
$$$$
default_name
  -OEChem-01062215323D

 27 26  0     1  0  0  0  0  0999 V2000
   -3.2406   -3.5400    1.2326 H   0  0  0  0  0  0  0  0  0  0  0  0
   -3.1436   -2.6190    0.6606 C   0  0  0  0  0  0  0  0  0  0  0  0
   -3.8786   -1.8920    0.9996 H   0  0  0  0  0  0  0  0  0  0  0  0
   -3.2846   -2.8280   -0.3984 H   0  0  0  0  0  0  0  0  0  0  0  0
   -1.7586   -2.0580    0.8686 C   0  0  0  0  0  0  0  0  0  0  0  0
   -0.9666   -2.6340    1.6026 O   0  0  0  0  0  0  0  0  0  0  0  0
   -1.4866   -0.9220    0.2366 N   0  0  0  0  0  0  0  0  0  0  0  0
   -2.2166   -0.4790   -0.2994 H   0  0  0  0  0  0  0  0  0  0  0  0
   -0.1956   -0.2250    0.2596 C   0  0  1  0  0  0  0  0  0  0  0  0
    0.2788   -0.3959    1.2264 H   0  0  0  0  0  0  0  0  0  0  0  0
    0.7234   -0.8276   -0.8221 C   0  0  0  0  0  0  0  0  0  0  0  0
    0.1858   -0.8039   -1.7713 H   0  0  0  0  0  0  0  0  0  0  0  0
    1.6189   -0.2118   -0.9177 H   0  0  0  0  0  0  0  0  0  0  0  0
    1.1385   -2.2801   -0.5330 C   0  0  0  0  0  0  0  0  0  0  0  0
    1.6724   -2.3162    0.4197 H   0  0  0  0  0  0  0  0  0  0  0  0
    0.2318   -2.8827   -0.4342 H   0  0  0  0  0  0  0  0  0  0  0  0
    2.0339   -2.8873   -1.6231 C   0  0  0  0  0  0  0  0  0  0  0  0
    2.2258   -2.2282   -2.6696 O   0  5  0  0  0  0  0  0  0  0  0  0
    2.5378   -4.0057   -1.3766 O   0  0  0  0  0  0  0  0  0  0  0  0
   -0.3933    1.2973    0.1048 C   0  0  0  0  0  0  0  0  0  0  0  0
   -0.4241    1.8162   -1.0130 O   0  0  0  0  0  0  0  0  0  0  0  0
   -0.5525    2.0147    1.2246 N   0  0  0  0  0  0  0  0  0  0  0  0
   -0.4614    1.5298    2.1051 H   0  0  0  0  0  0  0  0  0  0  0  0
   -0.7314    3.4640    1.2515 C   0  0  0  0  0  0  0  0  0  0  0  0
   -1.5341    3.7487    0.5691 H   0  0  0  0  0  0  0  0  0  0  0  0
   -0.9778    3.7933    2.2619 H   0  0  0  0  0  0  0  0  0  0  0  0
    0.1916    3.9490    0.9279 H   0  0  0  0  0  0  0  0  0  0  0  0
  5  6  2  0  0  0  0
  5  7  1  0  0  0  0
  2  3  1  0  0  0  0
  2  4  1  0  0  0  0
  2  5  1  0  0  0  0
  1  2  1  0  0  0  0
 20 21  2  0  0  0  0
 20 22  1  0  0  0  0
 17 18  1  0  0  0  0
 17 19  2  0  0  0  0
 14 15  1  0  0  0  0
 14 16  1  0  0  0  0
 14 17  1  0  0  0  0
 11 12  1  0  0  0  0
 11 13  1  0  0  0  0
 11 14  1  0  0  0  0
  9 10  1  0  0  0  0
  9 11  1  0  0  0  0
  9 20  1  0  0  0  0
  7  8  1  0  0  0  0
  7  9  1  0  0  0  0
 24 25  1  0  0  0  0
 24 26  1  0  0  0  0
 24 27  1  0  0  0  0
 22 23  1  0  0  0  0
 22 24  1  0  0  0  0
M  CHG  1  18  -1
M  END
$$$$
default_name
  -OEChem-01062215323D

 27 26  0     1  0  0  0  0  0999 V2000
   -3.2406   -3.5400    1.2326 H   0  0  0  0  0  0  0  0  0  0  0  0
   -3.1436   -2.6190    0.6606 C   0  0  0  0  0  0  0  0  0  0  0  0
   -3.8786   -1.8920    0.9996 H   0  0  0  0  0  0  0  0  0  0  0  0
   -3.2846   -2.8280   -0.3984 H   0  0  0  0  0  0  0  0  0  0  0  0
   -1.7586   -2.0580    0.8686 C   0  0  0  0  0  0  0  0  0  0  0  0
   -0.9666   -2.6340    1.6026 O   0  0  0  0  0  0  0  0  0  0  0  0
   -1.4866   -0.9220    0.2366 N   0  0  0  0  0  0  0  0  0  0  0  0
   -2.2166   -0.4790   -0.2994 H   0  0  0  0  0  0  0  0  0  0  0  0
   -0.1956   -0.2250    0.2596 C   0  0  1  0  0  0  0  0  0  0  0  0
    0.2788   -0.3959    1.2264 H   0  0  0  0  0  0  0  0  0  0  0  0
    0.7234   -0.8276   -0.8221 C   0  0  0  0  0  0  0  0  0  0  0  0
    0.1858   -0.8039   -1.7713 H   0  0  0  0  0  0  0  0  0  0  0  0
    1.6189   -0.2118   -0.9177 H   0  0  0  0  0  0  0  0  0  0  0  0
    1.1385   -2.2801   -0.5330 C   0  0  0  0  0  0  0  0  0  0  0  0
    1.6724   -2.3162    0.4197 H   0  0  0  0  0  0  0  0  0  0  0  0
    0.2318   -2.8827   -0.4342 H   0  0  0  0  0  0  0  0  0  0  0  0
    2.0339   -2.8873   -1.6231 C   0  0  0  0  0  0  0  0  0  0  0  0
    2.2258   -2.2282   -2.6696 O   0  5  0  0  0  0  0  0  0  0  0  0
    2.5378   -4.0057   -1.3766 O   0  0  0  0  0  0  0  0  0  0  0  0
   -0.3933    1.2973    0.1048 C   0  0  0  0  0  0  0  0  0  0  0  0
   -0.6978    1.7833   -0.9864 O   0  0  0  0  0  0  0  0  0  0  0  0
   -0.2452    2.0522    1.2012 N   0  0  0  0  0  0  0  0  0  0  0  0
    0.0576    1.5913    2.0464 H   0  0  0  0  0  0  0  0  0  0  0  0
   -0.3798    3.5065    1.2199 C   0  0  0  0  0  0  0  0  0  0  0  0
   -1.3240    3.7949    0.7547 H   0  0  0  0  0  0  0  0  0  0  0  0
   -0.3524    3.8730    2.2470 H   0  0  0  0  0  0  0  0  0  0  0  0
    0.4400    3.9535    0.6542 H   0  0  0  0  0  0  0  0  0  0  0  0
  5  6  2  0  0  0  0
  5  7  1  0  0  0  0
  2  3  1  0  0  0  0
  2  4  1  0  0  0  0
  2  5  1  0  0  0  0
  1  2  1  0  0  0  0
 20 21  2  0  0  0  0
 20 22  1  0  0  0  0
 17 18  1  0  0  0  0
 17 19  2  0  0  0  0
 14 15  1  0  0  0  0
 14 16  1  0  0  0  0
 14 17  1  0  0  0  0
 11 12  1  0  0  0  0
 11 13  1  0  0  0  0
 11 14  1  0  0  0  0
  9 10  1  0  0  0  0
  9 11  1  0  0  0  0
  9 20  1  0  0  0  0
  7  8  1  0  0  0  0
  7  9  1  0  0  0  0
 24 25  1  0  0  0  0
 24 26  1  0  0  0  0
 24 27  1  0  0  0  0
 22 23  1  0  0  0  0
 22 24  1  0  0  0  0
M  CHG  1  18  -1
M  END
$$$$
default_name
  -OEChem-01062215323D

 27 26  0     1  0  0  0  0  0999 V2000
   -3.2406   -3.5400    1.2326 H   0  0  0  0  0  0  0  0  0  0  0  0
   -3.1436   -2.6190    0.6606 C   0  0  0  0  0  0  0  0  0  0  0  0
   -3.8786   -1.8920    0.9996 H   0  0  0  0  0  0  0  0  0  0  0  0
   -3.2846   -2.8280   -0.3984 H   0  0  0  0  0  0  0  0  0  0  0  0
   -1.7586   -2.0580    0.8686 C   0  0  0  0  0  0  0  0  0  0  0  0
   -0.9666   -2.6340    1.6026 O   0  0  0  0  0  0  0  0  0  0  0  0
   -1.4866   -0.9220    0.2366 N   0  0  0  0  0  0  0  0  0  0  0  0
   -2.2166   -0.4790   -0.2994 H   0  0  0  0  0  0  0  0  0  0  0  0
   -0.1956   -0.2250    0.2596 C   0  0  1  0  0  0  0  0  0  0  0  0
    0.2788   -0.3959    1.2264 H   0  0  0  0  0  0  0  0  0  0  0  0
    0.7234   -0.8276   -0.8221 C   0  0  0  0  0  0  0  0  0  0  0  0
    0.1858   -0.8039   -1.7713 H   0  0  0  0  0  0  0  0  0  0  0  0
    1.6189   -0.2118   -0.9177 H   0  0  0  0  0  0  0  0  0  0  0  0
    1.1385   -2.2801   -0.5330 C   0  0  0  0  0  0  0  0  0  0  0  0
    1.6724   -2.3162    0.4197 H   0  0  0  0  0  0  0  0  0  0  0  0
    0.2318   -2.8827   -0.4342 H   0  0  0  0  0  0  0  0  0  0  0  0
    2.0339   -2.8873   -1.6231 C   0  0  0  0  0  0  0  0  0  0  0  0
    2.2258   -2.2282   -2.6696 O   0  5  0  0  0  0  0  0  0  0  0  0
    2.5378   -4.0057   -1.3766 O   0  0  0  0  0  0  0  0  0  0  0  0
   -0.3933    1.2973    0.1048 C   0  0  0  0  0  0  0  0  0  0  0  0
   -0.9562    1.7596   -0.8897 O   0  0  0  0  0  0  0  0  0  0  0  0
    0.0467    2.0797    1.0989 N   0  0  0  0  0  0  0  0  0  0  0  0
    0.5456    1.6352    1.8553 H   0  0  0  0  0  0  0  0  0  0  0  0
   -0.0472    3.5373    1.0981 C   0  0  0  0  0  0  0  0  0  0  0  0
   -1.0724    3.8402    0.8788 H   0  0  0  0  0  0  0  0  0  0  0  0
    0.2500    3.9332    2.0702 H   0  0  0  0  0  0  0  0  0  0  0  0
    0.6102    3.9422    0.3261 H   0  0  0  0  0  0  0  0  0  0  0  0
  5  6  2  0  0  0  0
  5  7  1  0  0  0  0
  2  3  1  0  0  0  0
  2  4  1  0  0  0  0
  2  5  1  0  0  0  0
  1  2  1  0  0  0  0
 20 21  2  0  0  0  0
 20 22  1  0  0  0  0
 17 18  1  0  0  0  0
 17 19  2  0  0  0  0
 14 15  1  0  0  0  0
 14 16  1  0  0  0  0
 14 17  1  0  0  0  0
 11 12  1  0  0  0  0
 11 13  1  0  0  0  0
 11 14  1  0  0  0  0
  9 10  1  0  0  0  0
  9 11  1  0  0  0  0
  9 20  1  0  0  0  0
  7  8  1  0  0  0  0
  7  9  1  0  0  0  0
 24 25  1  0  0  0  0
 24 26  1  0  0  0  0
 24 27  1  0  0  0  0
 22 23  1  0  0  0  0
 22 24  1  0  0  0  0
M  CHG  1  18  -1
M  END
$$$$
default_name
  -OEChem-01062215323D

 27 26  0     1  0  0  0  0  0999 V2000
   -3.2406   -3.5400    1.2326 H   0  0  0  0  0  0  0  0  0  0  0  0
   -3.1436   -2.6190    0.6606 C   0  0  0  0  0  0  0  0  0  0  0  0
   -3.8786   -1.8920    0.9996 H   0  0  0  0  0  0  0  0  0  0  0  0
   -3.2846   -2.8280   -0.3984 H   0  0  0  0  0  0  0  0  0  0  0  0
   -1.7586   -2.0580    0.8686 C   0  0  0  0  0  0  0  0  0  0  0  0
   -0.9666   -2.6340    1.6026 O   0  0  0  0  0  0  0  0  0  0  0  0
   -1.4866   -0.9220    0.2366 N   0  0  0  0  0  0  0  0  0  0  0  0
   -2.2166   -0.4790   -0.2994 H   0  0  0  0  0  0  0  0  0  0  0  0
   -0.1956   -0.2250    0.2596 C   0  0  1  0  0  0  0  0  0  0  0  0
    0.2788   -0.3959    1.2264 H   0  0  0  0  0  0  0  0  0  0  0  0
    0.7234   -0.8276   -0.8221 C   0  0  0  0  0  0  0  0  0  0  0  0
    0.1858   -0.8039   -1.7713 H   0  0  0  0  0  0  0  0  0  0  0  0
    1.6189   -0.2118   -0.9177 H   0  0  0  0  0  0  0  0  0  0  0  0
    1.1385   -2.2801   -0.5330 C   0  0  0  0  0  0  0  0  0  0  0  0
    1.6724   -2.3162    0.4197 H   0  0  0  0  0  0  0  0  0  0  0  0
    0.2318   -2.8827   -0.4342 H   0  0  0  0  0  0  0  0  0  0  0  0
    2.0339   -2.8873   -1.6231 C   0  0  0  0  0  0  0  0  0  0  0  0
    2.2258   -2.2282   -2.6696 O   0  5  0  0  0  0  0  0  0  0  0  0
    2.5378   -4.0057   -1.3766 O   0  0  0  0  0  0  0  0  0  0  0  0
   -0.3933    1.2973    0.1048 C   0  0  0  0  0  0  0  0  0  0  0  0
   -1.1817    1.7466   -0.7296 O   0  0  0  0  0  0  0  0  0  0  0  0
    0.3032    2.0953    0.9246 N   0  0  0  0  0  0  0  0  0  0  0  0
    0.9692    1.6586    1.5445 H   0  0  0  0  0  0  0  0  0  0  0  0
    0.2438    3.5544    0.8945 C   0  0  0  0  0  0  0  0  0  0  0  0
   -0.7966    3.8815    0.9329 H   0  0  0  0  0  0  0  0  0  0  0  0
    0.7883    3.9699    1.7436 H   0  0  0  0  0  0  0  0  0  0  0  0
    0.6905    3.9160   -0.0338 H   0  0  0  0  0  0  0  0  0  0  0  0
  5  6  2  0  0  0  0
  5  7  1  0  0  0  0
  2  3  1  0  0  0  0
  2  4  1  0  0  0  0
  2  5  1  0  0  0  0
  1  2  1  0  0  0  0
 20 21  2  0  0  0  0
 20 22  1  0  0  0  0
 17 18  1  0  0  0  0
 17 19  2  0  0  0  0
 14 15  1  0  0  0  0
 14 16  1  0  0  0  0
 14 17  1  0  0  0  0
 11 12  1  0  0  0  0
 11 13  1  0  0  0  0
 11 14  1  0  0  0  0
  9 10  1  0  0  0  0
  9 11  1  0  0  0  0
  9 20  1  0  0  0  0
  7  8  1  0  0  0  0
  7  9  1  0  0  0  0
 24 25  1  0  0  0  0
 24 26  1  0  0  0  0
 24 27  1  0  0  0  0
 22 23  1  0  0  0  0
 22 24  1  0  0  0  0
M  CHG  1  18  -1
M  END
$$$$
default_name
  -OEChem-01062215323D

 27 26  0     1  0  0  0  0  0999 V2000
   -3.2406   -3.5400    1.2326 H   0  0  0  0  0  0  0  0  0  0  0  0
   -3.1436   -2.6190    0.6606 C   0  0  0  0  0  0  0  0  0  0  0  0
   -3.8786   -1.8920    0.9996 H   0  0  0  0  0  0  0  0  0  0  0  0
   -3.2846   -2.8280   -0.3984 H   0  0  0  0  0  0  0  0  0  0  0  0
   -1.7586   -2.0580    0.8686 C   0  0  0  0  0  0  0  0  0  0  0  0
   -0.9666   -2.6340    1.6026 O   0  0  0  0  0  0  0  0  0  0  0  0
   -1.4866   -0.9220    0.2366 N   0  0  0  0  0  0  0  0  0  0  0  0
   -2.2166   -0.4790   -0.2994 H   0  0  0  0  0  0  0  0  0  0  0  0
   -0.1956   -0.2250    0.2596 C   0  0  1  0  0  0  0  0  0  0  0  0
    0.2788   -0.3959    1.2264 H   0  0  0  0  0  0  0  0  0  0  0  0
    0.7234   -0.8276   -0.8221 C   0  0  0  0  0  0  0  0  0  0  0  0
    0.1858   -0.8039   -1.7713 H   0  0  0  0  0  0  0  0  0  0  0  0
    1.6189   -0.2118   -0.9177 H   0  0  0  0  0  0  0  0  0  0  0  0
    1.1385   -2.2801   -0.5330 C   0  0  0  0  0  0  0  0  0  0  0  0
    1.6724   -2.3162    0.4197 H   0  0  0  0  0  0  0  0  0  0  0  0
    0.2318   -2.8827   -0.4342 H   0  0  0  0  0  0  0  0  0  0  0  0
    2.0339   -2.8873   -1.6231 C   0  0  0  0  0  0  0  0  0  0  0  0
    2.2258   -2.2282   -2.6696 O   0  5  0  0  0  0  0  0  0  0  0  0
    2.5378   -4.0057   -1.3766 O   0  0  0  0  0  0  0  0  0  0  0  0
   -0.3933    1.2973    0.1048 C   0  0  0  0  0  0  0  0  0  0  0  0
   -1.3590    1.7452   -0.5168 O   0  0  0  0  0  0  0  0  0  0  0  0
    0.5069    2.0979    0.6903 N   0  0  0  0  0  0  0  0  0  0  0  0
    1.2997    1.6600    1.1354 H   0  0  0  0  0  0  0  0  0  0  0  0
    0.4734    3.5566    0.6229 C   0  0  0  0  0  0  0  0  0  0  0  0
   -0.5153    3.9160    0.9134 H   0  0  0  0  0  0  0  0  0  0  0  0
    1.2258    3.9806    1.2894 H   0  0  0  0  0  0  0  0  0  0  0  0
    0.6754    3.8767   -0.4011 H   0  0  0  0  0  0  0  0  0  0  0  0
  5  6  2  0  0  0  0
  5  7  1  0  0  0  0
  2  3  1  0  0  0  0
  2  4  1  0  0  0  0
  2  5  1  0  0  0  0
  1  2  1  0  0  0  0
 20 21  2  0  0  0  0
 20 22  1  0  0  0  0
 17 18  1  0  0  0  0
 17 19  2  0  0  0  0
 14 15  1  0  0  0  0
 14 16  1  0  0  0  0
 14 17  1  0  0  0  0
 11 12  1  0  0  0  0
 11 13  1  0  0  0  0
 11 14  1  0  0  0  0
  9 10  1  0  0  0  0
  9 11  1  0  0  0  0
  9 20  1  0  0  0  0
  7  8  1  0  0  0  0
  7  9  1  0  0  0  0
 24 25  1  0  0  0  0
 24 26  1  0  0  0  0
 24 27  1  0  0  0  0
 22 23  1  0  0  0  0
 22 24  1  0  0  0  0
M  CHG  1  18  -1
M  END
$$$$
default_name
  -OEChem-01062215323D

 27 26  0     1  0  0  0  0  0999 V2000
   -3.2406   -3.5400    1.2326 H   0  0  0  0  0  0  0  0  0  0  0  0
   -3.1436   -2.6190    0.6606 C   0  0  0  0  0  0  0  0  0  0  0  0
   -3.8786   -1.8920    0.9996 H   0  0  0  0  0  0  0  0  0  0  0  0
   -3.2846   -2.8280   -0.3984 H   0  0  0  0  0  0  0  0  0  0  0  0
   -1.7586   -2.0580    0.8686 C   0  0  0  0  0  0  0  0  0  0  0  0
   -0.9666   -2.6340    1.6026 O   0  0  0  0  0  0  0  0  0  0  0  0
   -1.4866   -0.9220    0.2366 N   0  0  0  0  0  0  0  0  0  0  0  0
   -2.2166   -0.4790   -0.2994 H   0  0  0  0  0  0  0  0  0  0  0  0
   -0.1956   -0.2250    0.2596 C   0  0  1  0  0  0  0  0  0  0  0  0
    0.2788   -0.3959    1.2264 H   0  0  0  0  0  0  0  0  0  0  0  0
    0.7234   -0.8276   -0.8221 C   0  0  0  0  0  0  0  0  0  0  0  0
    0.1858   -0.8039   -1.7713 H   0  0  0  0  0  0  0  0  0  0  0  0
    1.6189   -0.2118   -0.9177 H   0  0  0  0  0  0  0  0  0  0  0  0
    1.1385   -2.2801   -0.5330 C   0  0  0  0  0  0  0  0  0  0  0  0
    1.6724   -2.3162    0.4197 H   0  0  0  0  0  0  0  0  0  0  0  0
    0.2318   -2.8827   -0.4342 H   0  0  0  0  0  0  0  0  0  0  0  0
    2.0339   -2.8873   -1.6231 C   0  0  0  0  0  0  0  0  0  0  0  0
    2.2258   -2.2282   -2.6696 O   0  5  0  0  0  0  0  0  0  0  0  0
    2.5378   -4.0057   -1.3766 O   0  0  0  0  0  0  0  0  0  0  0  0
   -0.3933    1.2973    0.1048 C   0  0  0  0  0  0  0  0  0  0  0  0
   -1.4760    1.7555   -0.2660 O   0  0  0  0  0  0  0  0  0  0  0  0
    0.6438    2.0874    0.4118 N   0  0  0  0  0  0  0  0  0  0  0  0
    1.5144    1.6391    0.6558 H   0  0  0  0  0  0  0  0  0  0  0  0
    0.6258    3.5438    0.3020 C   0  0  0  0  0  0  0  0  0  0  0  0
   -0.2476    3.9415    0.8215 H   0  0  0  0  0  0  0  0  0  0  0  0
    1.5327    3.9644    0.7387 H   0  0  0  0  0  0  0  0  0  0  0  0
    0.5661    3.8270   -0.7507 H   0  0  0  0  0  0  0  0  0  0  0  0
  5  6  2  0  0  0  0
  5  7  1  0  0  0  0
  2  3  1  0  0  0  0
  2  4  1  0  0  0  0
  2  5  1  0  0  0  0
  1  2  1  0  0  0  0
 20 21  2  0  0  0  0
 20 22  1  0  0  0  0
 17 18  1  0  0  0  0
 17 19  2  0  0  0  0
 14 15  1  0  0  0  0
 14 16  1  0  0  0  0
 14 17  1  0  0  0  0
 11 12  1  0  0  0  0
 11 13  1  0  0  0  0
 11 14  1  0  0  0  0
  9 10  1  0  0  0  0
  9 11  1  0  0  0  0
  9 20  1  0  0  0  0
  7  8  1  0  0  0  0
  7  9  1  0  0  0  0
 24 25  1  0  0  0  0
 24 26  1  0  0  0  0
 24 27  1  0  0  0  0
 22 23  1  0  0  0  0
 22 24  1  0  0  0  0
M  CHG  1  18  -1
M  END
$$$$
default_name
  -OEChem-01062215323D

 27 26  0     1  0  0  0  0  0999 V2000
   -3.2406   -3.5400    1.2326 H   0  0  0  0  0  0  0  0  0  0  0  0
   -3.1436   -2.6190    0.6606 C   0  0  0  0  0  0  0  0  0  0  0  0
   -3.8786   -1.8920    0.9996 H   0  0  0  0  0  0  0  0  0  0  0  0
   -3.2846   -2.8280   -0.3984 H   0  0  0  0  0  0  0  0  0  0  0  0
   -1.7586   -2.0580    0.8686 C   0  0  0  0  0  0  0  0  0  0  0  0
   -0.9666   -2.6340    1.6026 O   0  0  0  0  0  0  0  0  0  0  0  0
   -1.4866   -0.9220    0.2366 N   0  0  0  0  0  0  0  0  0  0  0  0
   -2.2166   -0.4790   -0.2994 H   0  0  0  0  0  0  0  0  0  0  0  0
   -0.1956   -0.2250    0.2596 C   0  0  1  0  0  0  0  0  0  0  0  0
    0.3927   -0.6026    1.0964 H   0  0  0  0  0  0  0  0  0  0  0  0
    0.5767   -0.5489   -1.0351 C   0  0  0  0  0  0  0  0  0  0  0  0
   -0.0737   -0.3197   -1.8808 H   0  0  0  0  0  0  0  0  0  0  0  0
    1.4598    0.0888   -1.0968 H   0  0  0  0  0  0  0  0  0  0  0  0
    1.0095   -2.0211   -1.1378 C   0  0  0  0  0  0  0  0  0  0  0  0
    1.6565   -2.2632   -0.2913 H   0  0  0  0  0  0  0  0  0  0  0  0
    0.1158   -2.6470   -1.0688 H   0  0  0  0  0  0  0  0  0  0  0  0
    1.7573   -2.3481   -2.4389 C   0  0  0  0  0  0  0  0  0  0  0  0
    1.8253   -1.4648   -3.3230 O   0  5  0  0  0  0  0  0  0  0  0  0
    2.2763   -3.4837   -2.5175 O   0  0  0  0  0  0  0  0  0  0  0  0
   -0.3954    1.2887    0.4814 C   0  0  0  0  0  0  0  0  0  0  0  0
   -1.5253    1.7574    0.6335 O   0  0  0  0  0  0  0  0  0  0  0  0
    0.7024    2.0549    0.5250 N   0  0  0  0  0  0  0  0  0  0  0  0
    1.5886    1.6097    0.3383 H   0  0  0  0  0  0  0  0  0  0  0  0
    0.6843    3.5039    0.7083 C   0  0  0  0  0  0  0  0  0  0  0  0
    0.0791    3.7572    1.5805 H   0  0  0  0  0  0  0  0  0  0  0  0
    1.6997    3.8774    0.8481 H   0  0  0  0  0  0  0  0  0  0  0  0
    0.2435    3.9750   -0.1724 H   0  0  0  0  0  0  0  0  0  0  0  0
  5  6  2  0  0  0  0
  5  7  1  0  0  0  0
  2  3  1  0  0  0  0
  2  4  1  0  0  0  0
  2  5  1  0  0  0  0
  1  2  1  0  0  0  0
 20 21  2  0  0  0  0
 20 22  1  0  0  0  0
 17 18  1  0  0  0  0
 17 19  2  0  0  0  0
 14 15  1  0  0  0  0
 14 16  1  0  0  0  0
 14 17  1  0  0  0  0
 11 12  1  0  0  0  0
 11 13  1  0  0  0  0
 11 14  1  0  0  0  0
  9 10  1  0  0  0  0
  9 11  1  0  0  0  0
  9 20  1  0  0  0  0
  7  8  1  0  0  0  0
  7  9  1  0  0  0  0
 24 25  1  0  0  0  0
 24 26  1  0  0  0  0
 24 27  1  0  0  0  0
 22 23  1  0  0  0  0
 22 24  1  0  0  0  0
M  CHG  1  18  -1
M  END
$$$$
default_name
  -OEChem-01062215323D

 27 26  0     1  0  0  0  0  0999 V2000
   -3.2406   -3.5400    1.2326 H   0  0  0  0  0  0  0  0  0  0  0  0
   -3.1436   -2.6190    0.6606 C   0  0  0  0  0  0  0  0  0  0  0  0
   -3.8786   -1.8920    0.9996 H   0  0  0  0  0  0  0  0  0  0  0  0
   -3.2846   -2.8280   -0.3984 H   0  0  0  0  0  0  0  0  0  0  0  0
   -1.7586   -2.0580    0.8686 C   0  0  0  0  0  0  0  0  0  0  0  0
   -0.9666   -2.6340    1.6026 O   0  0  0  0  0  0  0  0  0  0  0  0
   -1.4866   -0.9220    0.2366 N   0  0  0  0  0  0  0  0  0  0  0  0
   -2.2166   -0.4790   -0.2994 H   0  0  0  0  0  0  0  0  0  0  0  0
   -0.1956   -0.2250    0.2596 C   0  0  1  0  0  0  0  0  0  0  0  0
    0.3927   -0.6026    1.0964 H   0  0  0  0  0  0  0  0  0  0  0  0
    0.5767   -0.5489   -1.0351 C   0  0  0  0  0  0  0  0  0  0  0  0
   -0.0737   -0.3197   -1.8808 H   0  0  0  0  0  0  0  0  0  0  0  0
    1.4598    0.0888   -1.0968 H   0  0  0  0  0  0  0  0  0  0  0  0
    1.0095   -2.0211   -1.1378 C   0  0  0  0  0  0  0  0  0  0  0  0
    1.6565   -2.2632   -0.2913 H   0  0  0  0  0  0  0  0  0  0  0  0
    0.1158   -2.6470   -1.0688 H   0  0  0  0  0  0  0  0  0  0  0  0
    1.7573   -2.3481   -2.4389 C   0  0  0  0  0  0  0  0  0  0  0  0
    1.8253   -1.4648   -3.3230 O   0  5  0  0  0  0  0  0  0  0  0  0
    2.2763   -3.4837   -2.5175 O   0  0  0  0  0  0  0  0  0  0  0  0
   -0.3954    1.2887    0.4814 C   0  0  0  0  0  0  0  0  0  0  0  0
   -1.4684    1.7255    0.9026 O   0  0  0  0  0  0  0  0  0  0  0  0
    0.6448    2.0917    0.2221 N   0  0  0  0  0  0  0  0  0  0  0  0
    1.4726    1.6690   -0.1712 H   0  0  0  0  0  0  0  0  0  0  0  0
    0.6136    3.5452    0.3623 C   0  0  0  0  0  0  0  0  0  0  0  0
    0.2391    3.8117    1.3521 H   0  0  0  0  0  0  0  0  0  0  0  0
    1.6149    3.9570    0.2282 H   0  0  0  0  0  0  0  0  0  0  0  0
   -0.0551    3.9675   -0.3903 H   0  0  0  0  0  0  0  0  0  0  0  0
  5  6  2  0  0  0  0
  5  7  1  0  0  0  0
  2  3  1  0  0  0  0
  2  4  1  0  0  0  0
  2  5  1  0  0  0  0
  1  2  1  0  0  0  0
 20 21  2  0  0  0  0
 20 22  1  0  0  0  0
 17 18  1  0  0  0  0
 17 19  2  0  0  0  0
 14 15  1  0  0  0  0
 14 16  1  0  0  0  0
 14 17  1  0  0  0  0
 11 12  1  0  0  0  0
 11 13  1  0  0  0  0
 11 14  1  0  0  0  0
  9 10  1  0  0  0  0
  9 11  1  0  0  0  0
  9 20  1  0  0  0  0
  7  8  1  0  0  0  0
  7  9  1  0  0  0  0
 24 25  1  0  0  0  0
 24 26  1  0  0  0  0
 24 27  1  0  0  0  0
 22 23  1  0  0  0  0
 22 24  1  0  0  0  0
M  CHG  1  18  -1
M  END
$$$$
default_name
  -OEChem-01062215323D

 27 26  0     1  0  0  0  0  0999 V2000
   -3.2406   -3.5400    1.2326 H   0  0  0  0  0  0  0  0  0  0  0  0
   -3.1436   -2.6190    0.6606 C   0  0  0  0  0  0  0  0  0  0  0  0
   -3.8786   -1.8920    0.9996 H   0  0  0  0  0  0  0  0  0  0  0  0
   -3.2846   -2.8280   -0.3984 H   0  0  0  0  0  0  0  0  0  0  0  0
   -1.7586   -2.0580    0.8686 C   0  0  0  0  0  0  0  0  0  0  0  0
   -0.9666   -2.6340    1.6026 O   0  0  0  0  0  0  0  0  0  0  0  0
   -1.4866   -0.9220    0.2366 N   0  0  0  0  0  0  0  0  0  0  0  0
   -2.2166   -0.4790   -0.2994 H   0  0  0  0  0  0  0  0  0  0  0  0
   -0.1956   -0.2250    0.2596 C   0  0  1  0  0  0  0  0  0  0  0  0
    0.3927   -0.6026    1.0964 H   0  0  0  0  0  0  0  0  0  0  0  0
    0.5767   -0.5489   -1.0351 C   0  0  0  0  0  0  0  0  0  0  0  0
   -0.0737   -0.3197   -1.8808 H   0  0  0  0  0  0  0  0  0  0  0  0
    1.4598    0.0888   -1.0968 H   0  0  0  0  0  0  0  0  0  0  0  0
    1.0095   -2.0211   -1.1378 C   0  0  0  0  0  0  0  0  0  0  0  0
    1.6565   -2.2632   -0.2913 H   0  0  0  0  0  0  0  0  0  0  0  0
    0.1158   -2.6470   -1.0688 H   0  0  0  0  0  0  0  0  0  0  0  0
    1.7573   -2.3481   -2.4389 C   0  0  0  0  0  0  0  0  0  0  0  0
    1.8253   -1.4648   -3.3230 O   0  5  0  0  0  0  0  0  0  0  0  0
    2.2763   -3.4837   -2.5175 O   0  0  0  0  0  0  0  0  0  0  0  0
   -0.3954    1.2887    0.4814 C   0  0  0  0  0  0  0  0  0  0  0  0
   -1.3439    1.7059    1.1492 O   0  0  0  0  0  0  0  0  0  0  0  0
    0.5110    2.1149   -0.0571 N   0  0  0  0  0  0  0  0  0  0  0  0
    1.2289    1.7049   -0.6359 H   0  0  0  0  0  0  0  0  0  0  0  0
    0.4560    3.5710    0.0447 C   0  0  0  0  0  0  0  0  0  0  0  0
    0.3337    3.8627    1.0891 H   0  0  0  0  0  0  0  0  0  0  0  0
    1.3727    4.0099   -0.3517 H   0  0  0  0  0  0  0  0  0  0  0  0
   -0.3985    3.9419   -0.5248 H   0  0  0  0  0  0  0  0  0  0  0  0
  5  6  2  0  0  0  0
  5  7  1  0  0  0  0
  2  3  1  0  0  0  0
  2  4  1  0  0  0  0
  2  5  1  0  0  0  0
  1  2  1  0  0  0  0
 20 21  2  0  0  0  0
 20 22  1  0  0  0  0
 17 18  1  0  0  0  0
 17 19  2  0  0  0  0
 14 15  1  0  0  0  0
 14 16  1  0  0  0  0
 14 17  1  0  0  0  0
 11 12  1  0  0  0  0
 11 13  1  0  0  0  0
 11 14  1  0  0  0  0
  9 10  1  0  0  0  0
  9 11  1  0  0  0  0
  9 20  1  0  0  0  0
  7  8  1  0  0  0  0
  7  9  1  0  0  0  0
 24 25  1  0  0  0  0
 24 26  1  0  0  0  0
 24 27  1  0  0  0  0
 22 23  1  0  0  0  0
 22 24  1  0  0  0  0
M  CHG  1  18  -1
M  END
$$$$
default_name
  -OEChem-01062215323D

 27 26  0     1  0  0  0  0  0999 V2000
   -3.2406   -3.5400    1.2326 H   0  0  0  0  0  0  0  0  0  0  0  0
   -3.1436   -2.6190    0.6606 C   0  0  0  0  0  0  0  0  0  0  0  0
   -3.8786   -1.8920    0.9996 H   0  0  0  0  0  0  0  0  0  0  0  0
   -3.2846   -2.8280   -0.3984 H   0  0  0  0  0  0  0  0  0  0  0  0
   -1.7586   -2.0580    0.8686 C   0  0  0  0  0  0  0  0  0  0  0  0
   -0.9666   -2.6340    1.6026 O   0  0  0  0  0  0  0  0  0  0  0  0
   -1.4866   -0.9220    0.2366 N   0  0  0  0  0  0  0  0  0  0  0  0
   -2.2166   -0.4790   -0.2994 H   0  0  0  0  0  0  0  0  0  0  0  0
   -0.1956   -0.2250    0.2596 C   0  0  1  0  0  0  0  0  0  0  0  0
    0.3927   -0.6026    1.0964 H   0  0  0  0  0  0  0  0  0  0  0  0
    0.5767   -0.5489   -1.0351 C   0  0  0  0  0  0  0  0  0  0  0  0
   -0.0737   -0.3197   -1.8808 H   0  0  0  0  0  0  0  0  0  0  0  0
    1.4598    0.0888   -1.0968 H   0  0  0  0  0  0  0  0  0  0  0  0
    1.0095   -2.0211   -1.1378 C   0  0  0  0  0  0  0  0  0  0  0  0
    1.6565   -2.2632   -0.2913 H   0  0  0  0  0  0  0  0  0  0  0  0
    0.1158   -2.6470   -1.0688 H   0  0  0  0  0  0  0  0  0  0  0  0
    1.7573   -2.3481   -2.4389 C   0  0  0  0  0  0  0  0  0  0  0  0
    1.8253   -1.4648   -3.3230 O   0  5  0  0  0  0  0  0  0  0  0  0
    2.2763   -3.4837   -2.5175 O   0  0  0  0  0  0  0  0  0  0  0  0
   -0.3954    1.2887    0.4814 C   0  0  0  0  0  0  0  0  0  0  0  0
   -1.1603    1.6998    1.3564 O   0  0  0  0  0  0  0  0  0  0  0  0
    0.3099    2.1230   -0.2936 N   0  0  0  0  0  0  0  0  0  0  0  0
    0.8742    1.7150   -1.0240 H   0  0  0  0  0  0  0  0  0  0  0  0
    0.2221    3.5793   -0.2230 C   0  0  0  0  0  0  0  0  0  0  0  0
    0.3563    3.9067    0.8093 H   0  0  0  0  0  0  0  0  0  0  0  0
    0.9894    4.0327   -0.8521 H   0  0  0  0  0  0  0  0  0  0  0  0
   -0.7634    3.8998   -0.5666 H   0  0  0  0  0  0  0  0  0  0  0  0
  5  6  2  0  0  0  0
  5  7  1  0  0  0  0
  2  3  1  0  0  0  0
  2  4  1  0  0  0  0
  2  5  1  0  0  0  0
  1  2  1  0  0  0  0
 20 21  2  0  0  0  0
 20 22  1  0  0  0  0
 17 18  1  0  0  0  0
 17 19  2  0  0  0  0
 14 15  1  0  0  0  0
 14 16  1  0  0  0  0
 14 17  1  0  0  0  0
 11 12  1  0  0  0  0
 11 13  1  0  0  0  0
 11 14  1  0  0  0  0
  9 10  1  0  0  0  0
  9 11  1  0  0  0  0
  9 20  1  0  0  0  0
  7  8  1  0  0  0  0
  7  9  1  0  0  0  0
 24 25  1  0  0  0  0
 24 26  1  0  0  0  0
 24 27  1  0  0  0  0
 22 23  1  0  0  0  0
 22 24  1  0  0  0  0
M  CHG  1  18  -1
M  END
$$$$
default_name
  -OEChem-01062215323D

 27 26  0     1  0  0  0  0  0999 V2000
   -3.2406   -3.5400    1.2326 H   0  0  0  0  0  0  0  0  0  0  0  0
   -3.1436   -2.6190    0.6606 C   0  0  0  0  0  0  0  0  0  0  0  0
   -3.8786   -1.8920    0.9996 H   0  0  0  0  0  0  0  0  0  0  0  0
   -3.2846   -2.8280   -0.3984 H   0  0  0  0  0  0  0  0  0  0  0  0
   -1.7586   -2.0580    0.8686 C   0  0  0  0  0  0  0  0  0  0  0  0
   -0.9666   -2.6340    1.6026 O   0  0  0  0  0  0  0  0  0  0  0  0
   -1.4866   -0.9220    0.2366 N   0  0  0  0  0  0  0  0  0  0  0  0
   -2.2166   -0.4790   -0.2994 H   0  0  0  0  0  0  0  0  0  0  0  0
   -0.1956   -0.2250    0.2596 C   0  0  1  0  0  0  0  0  0  0  0  0
    0.3927   -0.6026    1.0964 H   0  0  0  0  0  0  0  0  0  0  0  0
    0.5767   -0.5489   -1.0351 C   0  0  0  0  0  0  0  0  0  0  0  0
   -0.0737   -0.3197   -1.8808 H   0  0  0  0  0  0  0  0  0  0  0  0
    1.4598    0.0888   -1.0968 H   0  0  0  0  0  0  0  0  0  0  0  0
    1.0095   -2.0211   -1.1378 C   0  0  0  0  0  0  0  0  0  0  0  0
    1.6565   -2.2632   -0.2913 H   0  0  0  0  0  0  0  0  0  0  0  0
    0.1158   -2.6470   -1.0688 H   0  0  0  0  0  0  0  0  0  0  0  0
    1.7573   -2.3481   -2.4389 C   0  0  0  0  0  0  0  0  0  0  0  0
    1.8253   -1.4648   -3.3230 O   0  5  0  0  0  0  0  0  0  0  0  0
    2.2763   -3.4837   -2.5175 O   0  0  0  0  0  0  0  0  0  0  0  0
   -0.3954    1.2887    0.4814 C   0  0  0  0  0  0  0  0  0  0  0  0
   -0.9300    1.7076    1.5101 O   0  0  0  0  0  0  0  0  0  0  0  0
    0.0554    2.1154   -0.4712 N   0  0  0  0  0  0  0  0  0  0  0  0
    0.4327    1.6985   -1.3092 H   0  0  0  0  0  0  0  0  0  0  0  0
   -0.0721    3.5697   -0.4224 C   0  0  0  0  0  0  0  0  0  0  0  0
    0.3055    3.9407    0.5319 H   0  0  0  0  0  0  0  0  0  0  0  0
    0.4913    4.0236   -1.2389 H   0  0  0  0  0  0  0  0  0  0  0  0
   -1.1249    3.8442   -0.5129 H   0  0  0  0  0  0  0  0  0  0  0  0
  5  6  2  0  0  0  0
  5  7  1  0  0  0  0
  2  3  1  0  0  0  0
  2  4  1  0  0  0  0
  2  5  1  0  0  0  0
  1  2  1  0  0  0  0
 20 21  2  0  0  0  0
 20 22  1  0  0  0  0
 17 18  1  0  0  0  0
 17 19  2  0  0  0  0
 14 15  1  0  0  0  0
 14 16  1  0  0  0  0
 14 17  1  0  0  0  0
 11 12  1  0  0  0  0
 11 13  1  0  0  0  0
 11 14  1  0  0  0  0
  9 10  1  0  0  0  0
  9 11  1  0  0  0  0
  9 20  1  0  0  0  0
  7  8  1  0  0  0  0
  7  9  1  0  0  0  0
 24 25  1  0  0  0  0
 24 26  1  0  0  0  0
 24 27  1  0  0  0  0
 22 23  1  0  0  0  0
 22 24  1  0  0  0  0
M  CHG  1  18  -1
M  END
$$$$
default_name
  -OEChem-01062215323D

 27 26  0     1  0  0  0  0  0999 V2000
   -3.2406   -3.5400    1.2326 H   0  0  0  0  0  0  0  0  0  0  0  0
   -3.1436   -2.6190    0.6606 C   0  0  0  0  0  0  0  0  0  0  0  0
   -3.8786   -1.8920    0.9996 H   0  0  0  0  0  0  0  0  0  0  0  0
   -3.2846   -2.8280   -0.3984 H   0  0  0  0  0  0  0  0  0  0  0  0
   -1.7586   -2.0580    0.8686 C   0  0  0  0  0  0  0  0  0  0  0  0
   -0.9666   -2.6340    1.6026 O   0  0  0  0  0  0  0  0  0  0  0  0
   -1.4866   -0.9220    0.2366 N   0  0  0  0  0  0  0  0  0  0  0  0
   -2.2166   -0.4790   -0.2994 H   0  0  0  0  0  0  0  0  0  0  0  0
   -0.1956   -0.2250    0.2596 C   0  0  1  0  0  0  0  0  0  0  0  0
    0.3927   -0.6026    1.0964 H   0  0  0  0  0  0  0  0  0  0  0  0
    0.5767   -0.5489   -1.0351 C   0  0  0  0  0  0  0  0  0  0  0  0
   -0.0737   -0.3197   -1.8808 H   0  0  0  0  0  0  0  0  0  0  0  0
    1.4598    0.0888   -1.0968 H   0  0  0  0  0  0  0  0  0  0  0  0
    1.0095   -2.0211   -1.1378 C   0  0  0  0  0  0  0  0  0  0  0  0
    1.6565   -2.2632   -0.2913 H   0  0  0  0  0  0  0  0  0  0  0  0
    0.1158   -2.6470   -1.0688 H   0  0  0  0  0  0  0  0  0  0  0  0
    1.7573   -2.3481   -2.4389 C   0  0  0  0  0  0  0  0  0  0  0  0
    1.8253   -1.4648   -3.3230 O   0  5  0  0  0  0  0  0  0  0  0  0
    2.2763   -3.4837   -2.5175 O   0  0  0  0  0  0  0  0  0  0  0  0
   -0.3954    1.2887    0.4814 C   0  0  0  0  0  0  0  0  0  0  0  0
   -0.6690    1.7289    1.5999 O   0  0  0  0  0  0  0  0  0  0  0  0
   -0.2353    2.0927   -0.5779 N   0  0  0  0  0  0  0  0  0  0  0  0
   -0.0656    1.6565   -1.4720 H   0  0  0  0  0  0  0  0  0  0  0  0
   -0.4066    3.5428   -0.5401 C   0  0  0  0  0  0  0  0  0  0  0  0
    0.1847    3.9622    0.2756 H   0  0  0  0  0  0  0  0  0  0  0  0
   -0.0876    3.9833   -1.4857 H   0  0  0  0  0  0  0  0  0  0  0  0
   -1.4584    3.7789   -0.3674 H   0  0  0  0  0  0  0  0  0  0  0  0
  5  6  2  0  0  0  0
  5  7  1  0  0  0  0
  2  3  1  0  0  0  0
  2  4  1  0  0  0  0
  2  5  1  0  0  0  0
  1  2  1  0  0  0  0
 20 21  2  0  0  0  0
 20 22  1  0  0  0  0
 17 18  1  0  0  0  0
 17 19  2  0  0  0  0
 14 15  1  0  0  0  0
 14 16  1  0  0  0  0
 14 17  1  0  0  0  0
 11 12  1  0  0  0  0
 11 13  1  0  0  0  0
 11 14  1  0  0  0  0
  9 10  1  0  0  0  0
  9 11  1  0  0  0  0
  9 20  1  0  0  0  0
  7  8  1  0  0  0  0
  7  9  1  0  0  0  0
 24 25  1  0  0  0  0
 24 26  1  0  0  0  0
 24 27  1  0  0  0  0
 22 23  1  0  0  0  0
 22 24  1  0  0  0  0
M  CHG  1  18  -1
M  END
$$$$
default_name
  -OEChem-01062215323D

 27 26  0     1  0  0  0  0  0999 V2000
   -3.2406   -3.5400    1.2326 H   0  0  0  0  0  0  0  0  0  0  0  0
   -3.1436   -2.6190    0.6606 C   0  0  0  0  0  0  0  0  0  0  0  0
   -3.8786   -1.8920    0.9996 H   0  0  0  0  0  0  0  0  0  0  0  0
   -3.2846   -2.8280   -0.3984 H   0  0  0  0  0  0  0  0  0  0  0  0
   -1.7586   -2.0580    0.8686 C   0  0  0  0  0  0  0  0  0  0  0  0
   -0.9666   -2.6340    1.6026 O   0  0  0  0  0  0  0  0  0  0  0  0
   -1.4866   -0.9220    0.2366 N   0  0  0  0  0  0  0  0  0  0  0  0
   -2.2166   -0.4790   -0.2994 H   0  0  0  0  0  0  0  0  0  0  0  0
   -0.1956   -0.2250    0.2596 C   0  0  1  0  0  0  0  0  0  0  0  0
    0.3927   -0.6026    1.0964 H   0  0  0  0  0  0  0  0  0  0  0  0
    0.5767   -0.5489   -1.0351 C   0  0  0  0  0  0  0  0  0  0  0  0
   -0.0737   -0.3197   -1.8808 H   0  0  0  0  0  0  0  0  0  0  0  0
    1.4598    0.0888   -1.0968 H   0  0  0  0  0  0  0  0  0  0  0  0
    1.0095   -2.0211   -1.1378 C   0  0  0  0  0  0  0  0  0  0  0  0
    1.6565   -2.2632   -0.2913 H   0  0  0  0  0  0  0  0  0  0  0  0
    0.1158   -2.6470   -1.0688 H   0  0  0  0  0  0  0  0  0  0  0  0
    1.7573   -2.3481   -2.4389 C   0  0  0  0  0  0  0  0  0  0  0  0
    1.8253   -1.4648   -3.3230 O   0  5  0  0  0  0  0  0  0  0  0  0
    2.2763   -3.4837   -2.5175 O   0  0  0  0  0  0  0  0  0  0  0  0
   -0.3954    1.2887    0.4814 C   0  0  0  0  0  0  0  0  0  0  0  0
   -0.3948    1.7622    1.6195 O   0  0  0  0  0  0  0  0  0  0  0  0
   -0.5424    2.0563   -0.6064 N   0  0  0  0  0  0  0  0  0  0  0  0
   -0.5867    1.5921   -1.5013 H   0  0  0  0  0  0  0  0  0  0  0  0
   -0.7585    3.5004   -0.5678 C   0  0  0  0  0  0  0  0  0  0  0  0
    0.0022    3.9700    0.0581 H   0  0  0  0  0  0  0  0  0  0  0  0
   -0.7081    3.9146   -1.5758 H   0  0  0  0  0  0  0  0  0  0  0  0
   -1.7412    3.7083   -0.1399 H   0  0  0  0  0  0  0  0  0  0  0  0
  5  6  2  0  0  0  0
  5  7  1  0  0  0  0
  2  3  1  0  0  0  0
  2  4  1  0  0  0  0
  2  5  1  0  0  0  0
  1  2  1  0  0  0  0
 20 21  2  0  0  0  0
 20 22  1  0  0  0  0
 17 18  1  0  0  0  0
 17 19  2  0  0  0  0
 14 15  1  0  0  0  0
 14 16  1  0  0  0  0
 14 17  1  0  0  0  0
 11 12  1  0  0  0  0
 11 13  1  0  0  0  0
 11 14  1  0  0  0  0
  9 10  1  0  0  0  0
  9 11  1  0  0  0  0
  9 20  1  0  0  0  0
  7  8  1  0  0  0  0
  7  9  1  0  0  0  0
 24 25  1  0  0  0  0
 24 26  1  0  0  0  0
 24 27  1  0  0  0  0
 22 23  1  0  0  0  0
 22 24  1  0  0  0  0
M  CHG  1  18  -1
M  END
$$$$
default_name
  -OEChem-01062215323D

 27 26  0     1  0  0  0  0  0999 V2000
   -3.2406   -3.5400    1.2326 H   0  0  0  0  0  0  0  0  0  0  0  0
   -3.1436   -2.6190    0.6606 C   0  0  0  0  0  0  0  0  0  0  0  0
   -3.8786   -1.8920    0.9996 H   0  0  0  0  0  0  0  0  0  0  0  0
   -3.2846   -2.8280   -0.3984 H   0  0  0  0  0  0  0  0  0  0  0  0
   -1.7586   -2.0580    0.8686 C   0  0  0  0  0  0  0  0  0  0  0  0
   -0.9666   -2.6340    1.6026 O   0  0  0  0  0  0  0  0  0  0  0  0
   -1.4866   -0.9220    0.2366 N   0  0  0  0  0  0  0  0  0  0  0  0
   -2.2166   -0.4790   -0.2994 H   0  0  0  0  0  0  0  0  0  0  0  0
   -0.1956   -0.2250    0.2596 C   0  0  1  0  0  0  0  0  0  0  0  0
    0.3927   -0.6026    1.0964 H   0  0  0  0  0  0  0  0  0  0  0  0
    0.5767   -0.5489   -1.0351 C   0  0  0  0  0  0  0  0  0  0  0  0
   -0.0737   -0.3197   -1.8808 H   0  0  0  0  0  0  0  0  0  0  0  0
    1.4598    0.0888   -1.0968 H   0  0  0  0  0  0  0  0  0  0  0  0
    1.0095   -2.0211   -1.1378 C   0  0  0  0  0  0  0  0  0  0  0  0
    1.6565   -2.2632   -0.2913 H   0  0  0  0  0  0  0  0  0  0  0  0
    0.1158   -2.6470   -1.0688 H   0  0  0  0  0  0  0  0  0  0  0  0
    1.7573   -2.3481   -2.4389 C   0  0  0  0  0  0  0  0  0  0  0  0
    1.8253   -1.4648   -3.3230 O   0  5  0  0  0  0  0  0  0  0  0  0
    2.2763   -3.4837   -2.5175 O   0  0  0  0  0  0  0  0  0  0  0  0
   -0.3954    1.2887    0.4814 C   0  0  0  0  0  0  0  0  0  0  0  0
   -0.1261    1.8053    1.5678 O   0  0  0  0  0  0  0  0  0  0  0  0
   -0.8448    2.0089   -0.5547 N   0  0  0  0  0  0  0  0  0  0  0  0
   -1.0951    1.5094   -1.3952 H   0  0  0  0  0  0  0  0  0  0  0  0
   -1.1040    3.4454   -0.5039 C   0  0  0  0  0  0  0  0  0  0  0  0
   -0.2297    3.9634   -0.1060 H   0  0  0  0  0  0  0  0  0  0  0  0
   -1.3277    3.8221   -1.5029 H   0  0  0  0  0  0  0  0  0  0  0  0
   -1.9539    3.6371    0.1539 H   0  0  0  0  0  0  0  0  0  0  0  0
  5  6  2  0  0  0  0
  5  7  1  0  0  0  0
  2  3  1  0  0  0  0
  2  4  1  0  0  0  0
  2  5  1  0  0  0  0
  1  2  1  0  0  0  0
 20 21  2  0  0  0  0
 20 22  1  0  0  0  0
 17 18  1  0  0  0  0
 17 19  2  0  0  0  0
 14 15  1  0  0  0  0
 14 16  1  0  0  0  0
 14 17  1  0  0  0  0
 11 12  1  0  0  0  0
 11 13  1  0  0  0  0
 11 14  1  0  0  0  0
  9 10  1  0  0  0  0
  9 11  1  0  0  0  0
  9 20  1  0  0  0  0
  7  8  1  0  0  0  0
  7  9  1  0  0  0  0
 24 25  1  0  0  0  0
 24 26  1  0  0  0  0
 24 27  1  0  0  0  0
 22 23  1  0  0  0  0
 22 24  1  0  0  0  0
M  CHG  1  18  -1
M  END
$$$$
default_name
  -OEChem-01062215323D

 27 26  0     1  0  0  0  0  0999 V2000
   -3.2406   -3.5400    1.2326 H   0  0  0  0  0  0  0  0  0  0  0  0
   -3.1436   -2.6190    0.6606 C   0  0  0  0  0  0  0  0  0  0  0  0
   -3.8786   -1.8920    0.9996 H   0  0  0  0  0  0  0  0  0  0  0  0
   -3.2846   -2.8280   -0.3984 H   0  0  0  0  0  0  0  0  0  0  0  0
   -1.7586   -2.0580    0.8686 C   0  0  0  0  0  0  0  0  0  0  0  0
   -0.9666   -2.6340    1.6026 O   0  0  0  0  0  0  0  0  0  0  0  0
   -1.4866   -0.9220    0.2366 N   0  0  0  0  0  0  0  0  0  0  0  0
   -2.2166   -0.4790   -0.2994 H   0  0  0  0  0  0  0  0  0  0  0  0
   -0.1956   -0.2250    0.2596 C   0  0  1  0  0  0  0  0  0  0  0  0
    0.3927   -0.6026    1.0964 H   0  0  0  0  0  0  0  0  0  0  0  0
    0.5767   -0.5489   -1.0351 C   0  0  0  0  0  0  0  0  0  0  0  0
   -0.0737   -0.3197   -1.8808 H   0  0  0  0  0  0  0  0  0  0  0  0
    1.4598    0.0888   -1.0968 H   0  0  0  0  0  0  0  0  0  0  0  0
    1.0095   -2.0211   -1.1378 C   0  0  0  0  0  0  0  0  0  0  0  0
    1.6565   -2.2632   -0.2913 H   0  0  0  0  0  0  0  0  0  0  0  0
    0.1158   -2.6470   -1.0688 H   0  0  0  0  0  0  0  0  0  0  0  0
    1.7573   -2.3481   -2.4389 C   0  0  0  0  0  0  0  0  0  0  0  0
    1.8253   -1.4648   -3.3230 O   0  5  0  0  0  0  0  0  0  0  0  0
    2.2763   -3.4837   -2.5175 O   0  0  0  0  0  0  0  0  0  0  0  0
   -0.3954    1.2887    0.4814 C   0  0  0  0  0  0  0  0  0  0  0  0
    0.1186    1.8551    1.4482 O   0  0  0  0  0  0  0  0  0  0  0  0
   -1.1221    1.9535   -0.4264 N   0  0  0  0  0  0  0  0  0  0  0  0
   -1.5562    1.4142   -1.1607 H   0  0  0  0  0  0  0  0  0  0  0  0
   -1.4193    3.3816   -0.3525 C   0  0  0  0  0  0  0  0  0  0  0  0
   -0.4951    3.9430   -0.2054 H   0  0  0  0  0  0  0  0  0  0  0  0
   -1.9043    3.7122   -1.2721 H   0  0  0  0  0  0  0  0  0  0  0  0
   -2.0822    3.5704    0.4942 H   0  0  0  0  0  0  0  0  0  0  0  0
  5  6  2  0  0  0  0
  5  7  1  0  0  0  0
  2  3  1  0  0  0  0
  2  4  1  0  0  0  0
  2  5  1  0  0  0  0
  1  2  1  0  0  0  0
 20 21  2  0  0  0  0
 20 22  1  0  0  0  0
 17 18  1  0  0  0  0
 17 19  2  0  0  0  0
 14 15  1  0  0  0  0
 14 16  1  0  0  0  0
 14 17  1  0  0  0  0
 11 12  1  0  0  0  0
 11 13  1  0  0  0  0
 11 14  1  0  0  0  0
  9 10  1  0  0  0  0
  9 11  1  0  0  0  0
  9 20  1  0  0  0  0
  7  8  1  0  0  0  0
  7  9  1  0  0  0  0
 24 25  1  0  0  0  0
 24 26  1  0  0  0  0
 24 27  1  0  0  0  0
 22 23  1  0  0  0  0
 22 24  1  0  0  0  0
M  CHG  1  18  -1
M  END
$$$$
default_name
  -OEChem-01062215323D

 27 26  0     1  0  0  0  0  0999 V2000
   -3.2406   -3.5400    1.2326 H   0  0  0  0  0  0  0  0  0  0  0  0
   -3.1436   -2.6190    0.6606 C   0  0  0  0  0  0  0  0  0  0  0  0
   -3.8786   -1.8920    0.9996 H   0  0  0  0  0  0  0  0  0  0  0  0
   -3.2846   -2.8280   -0.3984 H   0  0  0  0  0  0  0  0  0  0  0  0
   -1.7586   -2.0580    0.8686 C   0  0  0  0  0  0  0  0  0  0  0  0
   -0.9666   -2.6340    1.6026 O   0  0  0  0  0  0  0  0  0  0  0  0
   -1.4866   -0.9220    0.2366 N   0  0  0  0  0  0  0  0  0  0  0  0
   -2.2166   -0.4790   -0.2994 H   0  0  0  0  0  0  0  0  0  0  0  0
   -0.1956   -0.2250    0.2596 C   0  0  1  0  0  0  0  0  0  0  0  0
    0.3927   -0.6026    1.0964 H   0  0  0  0  0  0  0  0  0  0  0  0
    0.5767   -0.5489   -1.0351 C   0  0  0  0  0  0  0  0  0  0  0  0
   -0.0737   -0.3197   -1.8808 H   0  0  0  0  0  0  0  0  0  0  0  0
    1.4598    0.0888   -1.0968 H   0  0  0  0  0  0  0  0  0  0  0  0
    1.0095   -2.0211   -1.1378 C   0  0  0  0  0  0  0  0  0  0  0  0
    1.6565   -2.2632   -0.2913 H   0  0  0  0  0  0  0  0  0  0  0  0
    0.1158   -2.6470   -1.0688 H   0  0  0  0  0  0  0  0  0  0  0  0
    1.7573   -2.3481   -2.4389 C   0  0  0  0  0  0  0  0  0  0  0  0
    1.8253   -1.4648   -3.3230 O   0  5  0  0  0  0  0  0  0  0  0  0
    2.2763   -3.4837   -2.5175 O   0  0  0  0  0  0  0  0  0  0  0  0
   -0.3954    1.2887    0.4814 C   0  0  0  0  0  0  0  0  0  0  0  0
    0.3227    1.9083    1.2688 O   0  0  0  0  0  0  0  0  0  0  0  0
   -1.3553    1.8939   -0.2302 N   0  0  0  0  0  0  0  0  0  0  0  0
   -1.9384    1.3130   -0.8141 H   0  0  0  0  0  0  0  0  0  0  0  0
   -1.6831    3.3133   -0.1241 C   0  0  0  0  0  0  0  0  0  0  0  0
   -0.7759    3.9100   -0.2333 H   0  0  0  0  0  0  0  0  0  0  0  0
   -2.3985    3.5924   -0.8990 H   0  0  0  0  0  0  0  0  0  0  0  0
   -2.1171    3.5125    0.8576 H   0  0  0  0  0  0  0  0  0  0  0  0
  5  6  2  0  0  0  0
  5  7  1  0  0  0  0
  2  3  1  0  0  0  0
  2  4  1  0  0  0  0
  2  5  1  0  0  0  0
  1  2  1  0  0  0  0
 20 21  2  0  0  0  0
 20 22  1  0  0  0  0
 17 18  1  0  0  0  0
 17 19  2  0  0  0  0
 14 15  1  0  0  0  0
 14 16  1  0  0  0  0
 14 17  1  0  0  0  0
 11 12  1  0  0  0  0
 11 13  1  0  0  0  0
 11 14  1  0  0  0  0
  9 10  1  0  0  0  0
  9 11  1  0  0  0  0
  9 20  1  0  0  0  0
  7  8  1  0  0  0  0
  7  9  1  0  0  0  0
 24 25  1  0  0  0  0
 24 26  1  0  0  0  0
 24 27  1  0  0  0  0
 22 23  1  0  0  0  0
 22 24  1  0  0  0  0
M  CHG  1  18  -1
M  END
$$$$
default_name
  -OEChem-01062215323D

 27 26  0     1  0  0  0  0  0999 V2000
   -3.2406   -3.5400    1.2326 H   0  0  0  0  0  0  0  0  0  0  0  0
   -3.1436   -2.6190    0.6606 C   0  0  0  0  0  0  0  0  0  0  0  0
   -3.8786   -1.8920    0.9996 H   0  0  0  0  0  0  0  0  0  0  0  0
   -3.2846   -2.8280   -0.3984 H   0  0  0  0  0  0  0  0  0  0  0  0
   -1.7586   -2.0580    0.8686 C   0  0  0  0  0  0  0  0  0  0  0  0
   -0.9666   -2.6340    1.6026 O   0  0  0  0  0  0  0  0  0  0  0  0
   -1.4866   -0.9220    0.2366 N   0  0  0  0  0  0  0  0  0  0  0  0
   -2.2166   -0.4790   -0.2994 H   0  0  0  0  0  0  0  0  0  0  0  0
   -0.1956   -0.2250    0.2596 C   0  0  1  0  0  0  0  0  0  0  0  0
    0.3927   -0.6026    1.0964 H   0  0  0  0  0  0  0  0  0  0  0  0
    0.5767   -0.5489   -1.0351 C   0  0  0  0  0  0  0  0  0  0  0  0
   -0.0737   -0.3197   -1.8808 H   0  0  0  0  0  0  0  0  0  0  0  0
    1.4598    0.0888   -1.0968 H   0  0  0  0  0  0  0  0  0  0  0  0
    1.0095   -2.0211   -1.1378 C   0  0  0  0  0  0  0  0  0  0  0  0
    1.6565   -2.2632   -0.2913 H   0  0  0  0  0  0  0  0  0  0  0  0
    0.1158   -2.6470   -1.0688 H   0  0  0  0  0  0  0  0  0  0  0  0
    1.7573   -2.3481   -2.4389 C   0  0  0  0  0  0  0  0  0  0  0  0
    1.8253   -1.4648   -3.3230 O   0  5  0  0  0  0  0  0  0  0  0  0
    2.2763   -3.4837   -2.5175 O   0  0  0  0  0  0  0  0  0  0  0  0
   -0.3954    1.2887    0.4814 C   0  0  0  0  0  0  0  0  0  0  0  0
    0.4724    1.9613    1.0420 O   0  0  0  0  0  0  0  0  0  0  0  0
   -1.5285    1.8344    0.0206 N   0  0  0  0  0  0  0  0  0  0  0  0
   -2.2158    1.2126   -0.3787 H   0  0  0  0  0  0  0  0  0  0  0  0
   -1.8774    3.2452    0.1658 C   0  0  0  0  0  0  0  0  0  0  0  0
   -1.0530    3.8667   -0.1878 H   0  0  0  0  0  0  0  0  0  0  0  0
   -2.7767    3.4707   -0.4092 H   0  0  0  0  0  0  0  0  0  0  0  0
   -2.0565    3.4675    1.2195 H   0  0  0  0  0  0  0  0  0  0  0  0
  5  6  2  0  0  0  0
  5  7  1  0  0  0  0
  2  3  1  0  0  0  0
  2  4  1  0  0  0  0
  2  5  1  0  0  0  0
  1  2  1  0  0  0  0
 20 21  2  0  0  0  0
 20 22  1  0  0  0  0
 17 18  1  0  0  0  0
 17 19  2  0  0  0  0
 14 15  1  0  0  0  0
 14 16  1  0  0  0  0
 14 17  1  0  0  0  0
 11 12  1  0  0  0  0
 11 13  1  0  0  0  0
 11 14  1  0  0  0  0
  9 10  1  0  0  0  0
  9 11  1  0  0  0  0
  9 20  1  0  0  0  0
  7  8  1  0  0  0  0
  7  9  1  0  0  0  0
 24 25  1  0  0  0  0
 24 26  1  0  0  0  0
 24 27  1  0  0  0  0
 22 23  1  0  0  0  0
 22 24  1  0  0  0  0
M  CHG  1  18  -1
M  END
$$$$
default_name
  -OEChem-01062215323D

 27 26  0     1  0  0  0  0  0999 V2000
   -3.2406   -3.5400    1.2326 H   0  0  0  0  0  0  0  0  0  0  0  0
   -3.1436   -2.6190    0.6606 C   0  0  0  0  0  0  0  0  0  0  0  0
   -3.8786   -1.8920    0.9996 H   0  0  0  0  0  0  0  0  0  0  0  0
   -3.2846   -2.8280   -0.3984 H   0  0  0  0  0  0  0  0  0  0  0  0
   -1.7586   -2.0580    0.8686 C   0  0  0  0  0  0  0  0  0  0  0  0
   -0.9666   -2.6340    1.6026 O   0  0  0  0  0  0  0  0  0  0  0  0
   -1.4866   -0.9220    0.2366 N   0  0  0  0  0  0  0  0  0  0  0  0
   -2.2166   -0.4790   -0.2994 H   0  0  0  0  0  0  0  0  0  0  0  0
   -0.1956   -0.2250    0.2596 C   0  0  1  0  0  0  0  0  0  0  0  0
    0.3927   -0.6026    1.0964 H   0  0  0  0  0  0  0  0  0  0  0  0
    0.5767   -0.5489   -1.0351 C   0  0  0  0  0  0  0  0  0  0  0  0
   -0.0737   -0.3197   -1.8808 H   0  0  0  0  0  0  0  0  0  0  0  0
    1.4598    0.0888   -1.0968 H   0  0  0  0  0  0  0  0  0  0  0  0
    1.0095   -2.0211   -1.1378 C   0  0  0  0  0  0  0  0  0  0  0  0
    1.6565   -2.2632   -0.2913 H   0  0  0  0  0  0  0  0  0  0  0  0
    0.1158   -2.6470   -1.0688 H   0  0  0  0  0  0  0  0  0  0  0  0
    1.7573   -2.3481   -2.4389 C   0  0  0  0  0  0  0  0  0  0  0  0
    1.8253   -1.4648   -3.3230 O   0  5  0  0  0  0  0  0  0  0  0  0
    2.2763   -3.4837   -2.5175 O   0  0  0  0  0  0  0  0  0  0  0  0
   -0.3954    1.2887    0.4814 C   0  0  0  0  0  0  0  0  0  0  0  0
    0.5574    2.0104    0.7830 O   0  0  0  0  0  0  0  0  0  0  0  0
   -1.6299    1.7788    0.3087 N   0  0  0  0  0  0  0  0  0  0  0  0
   -2.3695    1.1199    0.1156 H   0  0  0  0  0  0  0  0  0  0  0  0
   -1.9890    3.1819    0.4974 C   0  0  0  0  0  0  0  0  0  0  0  0
   -1.3075    3.8162   -0.0721 H   0  0  0  0  0  0  0  0  0  0  0  0
   -3.0131    3.3555    0.1641 H   0  0  0  0  0  0  0  0  0  0  0  0
   -1.9043    3.4384    1.5552 H   0  0  0  0  0  0  0  0  0  0  0  0
  5  6  2  0  0  0  0
  5  7  1  0  0  0  0
  2  3  1  0  0  0  0
  2  4  1  0  0  0  0
  2  5  1  0  0  0  0
  1  2  1  0  0  0  0
 20 21  2  0  0  0  0
 20 22  1  0  0  0  0
 17 18  1  0  0  0  0
 17 19  2  0  0  0  0
 14 15  1  0  0  0  0
 14 16  1  0  0  0  0
 14 17  1  0  0  0  0
 11 12  1  0  0  0  0
 11 13  1  0  0  0  0
 11 14  1  0  0  0  0
  9 10  1  0  0  0  0
  9 11  1  0  0  0  0
  9 20  1  0  0  0  0
  7  8  1  0  0  0  0
  7  9  1  0  0  0  0
 24 25  1  0  0  0  0
 24 26  1  0  0  0  0
 24 27  1  0  0  0  0
 22 23  1  0  0  0  0
 22 24  1  0  0  0  0
M  CHG  1  18  -1
M  END
$$$$
default_name
  -OEChem-01062215323D

 27 26  0     1  0  0  0  0  0999 V2000
   -3.2406   -3.5400    1.2326 H   0  0  0  0  0  0  0  0  0  0  0  0
   -3.1436   -2.6190    0.6606 C   0  0  0  0  0  0  0  0  0  0  0  0
   -3.8786   -1.8920    0.9996 H   0  0  0  0  0  0  0  0  0  0  0  0
   -3.2846   -2.8280   -0.3984 H   0  0  0  0  0  0  0  0  0  0  0  0
   -1.7586   -2.0580    0.8686 C   0  0  0  0  0  0  0  0  0  0  0  0
   -0.9666   -2.6340    1.6026 O   0  0  0  0  0  0  0  0  0  0  0  0
   -1.4866   -0.9220    0.2366 N   0  0  0  0  0  0  0  0  0  0  0  0
   -2.2166   -0.4790   -0.2994 H   0  0  0  0  0  0  0  0  0  0  0  0
   -0.1956   -0.2250    0.2596 C   0  0  1  0  0  0  0  0  0  0  0  0
    0.3927   -0.6026    1.0964 H   0  0  0  0  0  0  0  0  0  0  0  0
    0.5767   -0.5489   -1.0351 C   0  0  0  0  0  0  0  0  0  0  0  0
   -0.0737   -0.3197   -1.8808 H   0  0  0  0  0  0  0  0  0  0  0  0
    1.4598    0.0888   -1.0968 H   0  0  0  0  0  0  0  0  0  0  0  0
    1.0095   -2.0211   -1.1378 C   0  0  0  0  0  0  0  0  0  0  0  0
    1.6565   -2.2632   -0.2913 H   0  0  0  0  0  0  0  0  0  0  0  0
    0.1158   -2.6470   -1.0688 H   0  0  0  0  0  0  0  0  0  0  0  0
    1.7573   -2.3481   -2.4389 C   0  0  0  0  0  0  0  0  0  0  0  0
    1.8253   -1.4648   -3.3230 O   0  5  0  0  0  0  0  0  0  0  0  0
    2.2763   -3.4837   -2.5175 O   0  0  0  0  0  0  0  0  0  0  0  0
   -0.3954    1.2887    0.4814 C   0  0  0  0  0  0  0  0  0  0  0  0
    0.5719    2.0524    0.5097 O   0  0  0  0  0  0  0  0  0  0  0  0
   -1.6526    1.7310    0.6147 N   0  0  0  0  0  0  0  0  0  0  0  0
   -2.3890    1.0412    0.6352 H   0  0  0  0  0  0  0  0  0  0  0  0
   -2.0101    3.1278    0.8482 C   0  0  0  0  0  0  0  0  0  0  0  0
   -1.5221    3.7618    0.1060 H   0  0  0  0  0  0  0  0  0  0  0  0
   -3.0916    3.2547    0.7817 H   0  0  0  0  0  0  0  0  0  0  0  0
   -1.6710    3.4273    1.8418 H   0  0  0  0  0  0  0  0  0  0  0  0
  5  6  2  0  0  0  0
  5  7  1  0  0  0  0
  2  3  1  0  0  0  0
  2  4  1  0  0  0  0
  2  5  1  0  0  0  0
  1  2  1  0  0  0  0
 20 21  2  0  0  0  0
 20 22  1  0  0  0  0
 17 18  1  0  0  0  0
 17 19  2  0  0  0  0
 14 15  1  0  0  0  0
 14 16  1  0  0  0  0
 14 17  1  0  0  0  0
 11 12  1  0  0  0  0
 11 13  1  0  0  0  0
 11 14  1  0  0  0  0
  9 10  1  0  0  0  0
  9 11  1  0  0  0  0
  9 20  1  0  0  0  0
  7  8  1  0  0  0  0
  7  9  1  0  0  0  0
 24 25  1  0  0  0  0
 24 26  1  0  0  0  0
 24 27  1  0  0  0  0
 22 23  1  0  0  0  0
 22 24  1  0  0  0  0
M  CHG  1  18  -1
M  END
$$$$
default_name
  -OEChem-01062215323D

 27 26  0     1  0  0  0  0  0999 V2000
   -3.2406   -3.5400    1.2326 H   0  0  0  0  0  0  0  0  0  0  0  0
   -3.1436   -2.6190    0.6606 C   0  0  0  0  0  0  0  0  0  0  0  0
   -3.8786   -1.8920    0.9996 H   0  0  0  0  0  0  0  0  0  0  0  0
   -3.2846   -2.8280   -0.3984 H   0  0  0  0  0  0  0  0  0  0  0  0
   -1.7586   -2.0580    0.8686 C   0  0  0  0  0  0  0  0  0  0  0  0
   -0.9666   -2.6340    1.6026 O   0  0  0  0  0  0  0  0  0  0  0  0
   -1.4866   -0.9220    0.2366 N   0  0  0  0  0  0  0  0  0  0  0  0
   -2.2166   -0.4790   -0.2994 H   0  0  0  0  0  0  0  0  0  0  0  0
   -0.1956   -0.2250    0.2596 C   0  0  1  0  0  0  0  0  0  0  0  0
    0.3927   -0.6026    1.0964 H   0  0  0  0  0  0  0  0  0  0  0  0
    0.5767   -0.5489   -1.0351 C   0  0  0  0  0  0  0  0  0  0  0  0
   -0.0737   -0.3197   -1.8808 H   0  0  0  0  0  0  0  0  0  0  0  0
    1.4598    0.0888   -1.0968 H   0  0  0  0  0  0  0  0  0  0  0  0
    1.0095   -2.0211   -1.1378 C   0  0  0  0  0  0  0  0  0  0  0  0
    1.6565   -2.2632   -0.2913 H   0  0  0  0  0  0  0  0  0  0  0  0
    0.1158   -2.6470   -1.0688 H   0  0  0  0  0  0  0  0  0  0  0  0
    1.7573   -2.3481   -2.4389 C   0  0  0  0  0  0  0  0  0  0  0  0
    1.8253   -1.4648   -3.3230 O   0  5  0  0  0  0  0  0  0  0  0  0
    2.2763   -3.4837   -2.5175 O   0  0  0  0  0  0  0  0  0  0  0  0
   -0.3954    1.2887    0.4814 C   0  0  0  0  0  0  0  0  0  0  0  0
    0.5150    2.0843    0.2406 O   0  0  0  0  0  0  0  0  0  0  0  0
   -1.5951    1.6942    0.9176 N   0  0  0  0  0  0  0  0  0  0  0  0
   -2.2730    0.9819    1.1447 H   0  0  0  0  0  0  0  0  0  0  0  0
   -1.9394    3.0864    1.1942 C   0  0  0  0  0  0  0  0  0  0  0  0
   -1.6821    3.7072    0.3344 H   0  0  0  0  0  0  0  0  0  0  0  0
   -3.0068    3.1751    1.4016 H   0  0  0  0  0  0  0  0  0  0  0  0
   -1.3725    3.4348    2.0597 H   0  0  0  0  0  0  0  0  0  0  0  0
  5  6  2  0  0  0  0
  5  7  1  0  0  0  0
  2  3  1  0  0  0  0
  2  4  1  0  0  0  0
  2  5  1  0  0  0  0
  1  2  1  0  0  0  0
 20 21  2  0  0  0  0
 20 22  1  0  0  0  0
 17 18  1  0  0  0  0
 17 19  2  0  0  0  0
 14 15  1  0  0  0  0
 14 16  1  0  0  0  0
 14 17  1  0  0  0  0
 11 12  1  0  0  0  0
 11 13  1  0  0  0  0
 11 14  1  0  0  0  0
  9 10  1  0  0  0  0
  9 11  1  0  0  0  0
  9 20  1  0  0  0  0
  7  8  1  0  0  0  0
  7  9  1  0  0  0  0
 24 25  1  0  0  0  0
 24 26  1  0  0  0  0
 24 27  1  0  0  0  0
 22 23  1  0  0  0  0
 22 24  1  0  0  0  0
M  CHG  1  18  -1
M  END
$$$$
default_name
  -OEChem-01062215323D

 27 26  0     1  0  0  0  0  0999 V2000
   -3.2406   -3.5400    1.2326 H   0  0  0  0  0  0  0  0  0  0  0  0
   -3.1436   -2.6190    0.6606 C   0  0  0  0  0  0  0  0  0  0  0  0
   -3.8786   -1.8920    0.9996 H   0  0  0  0  0  0  0  0  0  0  0  0
   -3.2846   -2.8280   -0.3984 H   0  0  0  0  0  0  0  0  0  0  0  0
   -1.7586   -2.0580    0.8686 C   0  0  0  0  0  0  0  0  0  0  0  0
   -0.9666   -2.6340    1.6026 O   0  0  0  0  0  0  0  0  0  0  0  0
   -1.4866   -0.9220    0.2366 N   0  0  0  0  0  0  0  0  0  0  0  0
   -2.2166   -0.4790   -0.2994 H   0  0  0  0  0  0  0  0  0  0  0  0
   -0.1956   -0.2250    0.2596 C   0  0  1  0  0  0  0  0  0  0  0  0
    0.3927   -0.6026    1.0964 H   0  0  0  0  0  0  0  0  0  0  0  0
    0.5767   -0.5489   -1.0351 C   0  0  0  0  0  0  0  0  0  0  0  0
   -0.0737   -0.3197   -1.8808 H   0  0  0  0  0  0  0  0  0  0  0  0
    1.4598    0.0888   -1.0968 H   0  0  0  0  0  0  0  0  0  0  0  0
    1.0095   -2.0211   -1.1378 C   0  0  0  0  0  0  0  0  0  0  0  0
    1.6565   -2.2632   -0.2913 H   0  0  0  0  0  0  0  0  0  0  0  0
    0.1158   -2.6470   -1.0688 H   0  0  0  0  0  0  0  0  0  0  0  0
    1.7573   -2.3481   -2.4389 C   0  0  0  0  0  0  0  0  0  0  0  0
    1.8253   -1.4648   -3.3230 O   0  5  0  0  0  0  0  0  0  0  0  0
    2.2763   -3.4837   -2.5175 O   0  0  0  0  0  0  0  0  0  0  0  0
   -0.3954    1.2887    0.4814 C   0  0  0  0  0  0  0  0  0  0  0  0
    0.3905    2.1040   -0.0060 O   0  0  0  0  0  0  0  0  0  0  0  0
   -1.4612    1.6710    1.1968 N   0  0  0  0  0  0  0  0  0  0  0  0
   -2.0293    0.9460    1.6094 H   0  0  0  0  0  0  0  0  0  0  0  0
   -1.7818    3.0607    1.5119 C   0  0  0  0  0  0  0  0  0  0  0  0
   -1.7766    3.6562    0.5974 H   0  0  0  0  0  0  0  0  0  0  0  0
   -2.7645    3.1221    1.9815 H   0  0  0  0  0  0  0  0  0  0  0  0
   -1.0291    3.4604    2.1942 H   0  0  0  0  0  0  0  0  0  0  0  0
  5  6  2  0  0  0  0
  5  7  1  0  0  0  0
  2  3  1  0  0  0  0
  2  4  1  0  0  0  0
  2  5  1  0  0  0  0
  1  2  1  0  0  0  0
 20 21  2  0  0  0  0
 20 22  1  0  0  0  0
 17 18  1  0  0  0  0
 17 19  2  0  0  0  0
 14 15  1  0  0  0  0
 14 16  1  0  0  0  0
 14 17  1  0  0  0  0
 11 12  1  0  0  0  0
 11 13  1  0  0  0  0
 11 14  1  0  0  0  0
  9 10  1  0  0  0  0
  9 11  1  0  0  0  0
  9 20  1  0  0  0  0
  7  8  1  0  0  0  0
  7  9  1  0  0  0  0
 24 25  1  0  0  0  0
 24 26  1  0  0  0  0
 24 27  1  0  0  0  0
 22 23  1  0  0  0  0
 22 24  1  0  0  0  0
M  CHG  1  18  -1
M  END
$$$$
default_name
  -OEChem-01062215323D

 27 26  0     1  0  0  0  0  0999 V2000
   -3.2406   -3.5400    1.2326 H   0  0  0  0  0  0  0  0  0  0  0  0
   -3.1436   -2.6190    0.6606 C   0  0  0  0  0  0  0  0  0  0  0  0
   -3.8786   -1.8920    0.9996 H   0  0  0  0  0  0  0  0  0  0  0  0
   -3.2846   -2.8280   -0.3984 H   0  0  0  0  0  0  0  0  0  0  0  0
   -1.7586   -2.0580    0.8686 C   0  0  0  0  0  0  0  0  0  0  0  0
   -0.9666   -2.6340    1.6026 O   0  0  0  0  0  0  0  0  0  0  0  0
   -1.4866   -0.9220    0.2366 N   0  0  0  0  0  0  0  0  0  0  0  0
   -2.2166   -0.4790   -0.2994 H   0  0  0  0  0  0  0  0  0  0  0  0
   -0.1956   -0.2250    0.2596 C   0  0  1  0  0  0  0  0  0  0  0  0
    0.3927   -0.6026    1.0964 H   0  0  0  0  0  0  0  0  0  0  0  0
    0.5767   -0.5489   -1.0351 C   0  0  0  0  0  0  0  0  0  0  0  0
   -0.0737   -0.3197   -1.8808 H   0  0  0  0  0  0  0  0  0  0  0  0
    1.4598    0.0888   -1.0968 H   0  0  0  0  0  0  0  0  0  0  0  0
    1.0095   -2.0211   -1.1378 C   0  0  0  0  0  0  0  0  0  0  0  0
    1.6565   -2.2632   -0.2913 H   0  0  0  0  0  0  0  0  0  0  0  0
    0.1158   -2.6470   -1.0688 H   0  0  0  0  0  0  0  0  0  0  0  0
    1.7573   -2.3481   -2.4389 C   0  0  0  0  0  0  0  0  0  0  0  0
    1.8253   -1.4648   -3.3230 O   0  5  0  0  0  0  0  0  0  0  0  0
    2.2763   -3.4837   -2.5175 O   0  0  0  0  0  0  0  0  0  0  0  0
   -0.3954    1.2887    0.4814 C   0  0  0  0  0  0  0  0  0  0  0  0
    0.2069    2.1101   -0.2132 O   0  0  0  0  0  0  0  0  0  0  0  0
   -1.2602    1.6629    1.4333 N   0  0  0  0  0  0  0  0  0  0  0  0
   -1.6746    0.9360    1.9975 H   0  0  0  0  0  0  0  0  0  0  0  0
   -1.5479    3.0524    1.7795 C   0  0  0  0  0  0  0  0  0  0  0  0
   -1.7993    3.6123    0.8772 H   0  0  0  0  0  0  0  0  0  0  0  0
   -2.3813    3.0994    2.4819 H   0  0  0  0  0  0  0  0  0  0  0  0
   -0.6642    3.5024    2.2360 H   0  0  0  0  0  0  0  0  0  0  0  0
  5  6  2  0  0  0  0
  5  7  1  0  0  0  0
  2  3  1  0  0  0  0
  2  4  1  0  0  0  0
  2  5  1  0  0  0  0
  1  2  1  0  0  0  0
 20 21  2  0  0  0  0
 20 22  1  0  0  0  0
 17 18  1  0  0  0  0
 17 19  2  0  0  0  0
 14 15  1  0  0  0  0
 14 16  1  0  0  0  0
 14 17  1  0  0  0  0
 11 12  1  0  0  0  0
 11 13  1  0  0  0  0
 11 14  1  0  0  0  0
  9 10  1  0  0  0  0
  9 11  1  0  0  0  0
  9 20  1  0  0  0  0
  7  8  1  0  0  0  0
  7  9  1  0  0  0  0
 24 25  1  0  0  0  0
 24 26  1  0  0  0  0
 24 27  1  0  0  0  0
 22 23  1  0  0  0  0
 22 24  1  0  0  0  0
M  CHG  1  18  -1
M  END
$$$$
default_name
  -OEChem-01062215323D

 27 26  0     1  0  0  0  0  0999 V2000
   -3.2406   -3.5400    1.2326 H   0  0  0  0  0  0  0  0  0  0  0  0
   -3.1436   -2.6190    0.6606 C   0  0  0  0  0  0  0  0  0  0  0  0
   -3.8786   -1.8920    0.9996 H   0  0  0  0  0  0  0  0  0  0  0  0
   -3.2846   -2.8280   -0.3984 H   0  0  0  0  0  0  0  0  0  0  0  0
   -1.7586   -2.0580    0.8686 C   0  0  0  0  0  0  0  0  0  0  0  0
   -0.9666   -2.6340    1.6026 O   0  0  0  0  0  0  0  0  0  0  0  0
   -1.4866   -0.9220    0.2366 N   0  0  0  0  0  0  0  0  0  0  0  0
   -2.2166   -0.4790   -0.2994 H   0  0  0  0  0  0  0  0  0  0  0  0
   -0.1956   -0.2250    0.2596 C   0  0  1  0  0  0  0  0  0  0  0  0
    0.3927   -0.6026    1.0964 H   0  0  0  0  0  0  0  0  0  0  0  0
    0.5767   -0.5489   -1.0351 C   0  0  0  0  0  0  0  0  0  0  0  0
   -0.0737   -0.3197   -1.8808 H   0  0  0  0  0  0  0  0  0  0  0  0
    1.4598    0.0888   -1.0968 H   0  0  0  0  0  0  0  0  0  0  0  0
    1.0095   -2.0211   -1.1378 C   0  0  0  0  0  0  0  0  0  0  0  0
    1.6565   -2.2632   -0.2913 H   0  0  0  0  0  0  0  0  0  0  0  0
    0.1158   -2.6470   -1.0688 H   0  0  0  0  0  0  0  0  0  0  0  0
    1.7573   -2.3481   -2.4389 C   0  0  0  0  0  0  0  0  0  0  0  0
    1.8253   -1.4648   -3.3230 O   0  5  0  0  0  0  0  0  0  0  0  0
    2.2763   -3.4837   -2.5175 O   0  0  0  0  0  0  0  0  0  0  0  0
   -0.3954    1.2887    0.4814 C   0  0  0  0  0  0  0  0  0  0  0  0
   -0.0233    2.1022   -0.3669 O   0  0  0  0  0  0  0  0  0  0  0  0
   -1.0056    1.6704    1.6109 N   0  0  0  0  0  0  0  0  0  0  0  0
   -1.2331    0.9525    2.2827 H   0  0  0  0  0  0  0  0  0  0  0  0
   -1.2537    3.0620    1.9790 C   0  0  0  0  0  0  0  0  0  0  0  0
   -1.7485    3.5783    1.1546 H   0  0  0  0  0  0  0  0  0  0  0  0
   -1.8832    3.1085    2.8687 H   0  0  0  0  0  0  0  0  0  0  0  0
   -0.3026    3.5580    2.1823 H   0  0  0  0  0  0  0  0  0  0  0  0
  5  6  2  0  0  0  0
  5  7  1  0  0  0  0
  2  3  1  0  0  0  0
  2  4  1  0  0  0  0
  2  5  1  0  0  0  0
  1  2  1  0  0  0  0
 20 21  2  0  0  0  0
 20 22  1  0  0  0  0
 17 18  1  0  0  0  0
 17 19  2  0  0  0  0
 14 15  1  0  0  0  0
 14 16  1  0  0  0  0
 14 17  1  0  0  0  0
 11 12  1  0  0  0  0
 11 13  1  0  0  0  0
 11 14  1  0  0  0  0
  9 10  1  0  0  0  0
  9 11  1  0  0  0  0
  9 20  1  0  0  0  0
  7  8  1  0  0  0  0
  7  9  1  0  0  0  0
 24 25  1  0  0  0  0
 24 26  1  0  0  0  0
 24 27  1  0  0  0  0
 22 23  1  0  0  0  0
 22 24  1  0  0  0  0
M  CHG  1  18  -1
M  END
$$$$
default_name
  -OEChem-01062215323D

 27 26  0     1  0  0  0  0  0999 V2000
   -3.2406   -3.5400    1.2326 H   0  0  0  0  0  0  0  0  0  0  0  0
   -3.1436   -2.6190    0.6606 C   0  0  0  0  0  0  0  0  0  0  0  0
   -3.8786   -1.8920    0.9996 H   0  0  0  0  0  0  0  0  0  0  0  0
   -3.2846   -2.8280   -0.3984 H   0  0  0  0  0  0  0  0  0  0  0  0
   -1.7586   -2.0580    0.8686 C   0  0  0  0  0  0  0  0  0  0  0  0
   -0.9666   -2.6340    1.6026 O   0  0  0  0  0  0  0  0  0  0  0  0
   -1.4866   -0.9220    0.2366 N   0  0  0  0  0  0  0  0  0  0  0  0
   -2.2166   -0.4790   -0.2994 H   0  0  0  0  0  0  0  0  0  0  0  0
   -0.1956   -0.2250    0.2596 C   0  0  1  0  0  0  0  0  0  0  0  0
    0.3927   -0.6026    1.0964 H   0  0  0  0  0  0  0  0  0  0  0  0
    0.5767   -0.5489   -1.0351 C   0  0  0  0  0  0  0  0  0  0  0  0
   -0.0737   -0.3197   -1.8808 H   0  0  0  0  0  0  0  0  0  0  0  0
    1.4598    0.0888   -1.0968 H   0  0  0  0  0  0  0  0  0  0  0  0
    1.0095   -2.0211   -1.1378 C   0  0  0  0  0  0  0  0  0  0  0  0
    1.6565   -2.2632   -0.2913 H   0  0  0  0  0  0  0  0  0  0  0  0
    0.1158   -2.6470   -1.0688 H   0  0  0  0  0  0  0  0  0  0  0  0
    1.7573   -2.3481   -2.4389 C   0  0  0  0  0  0  0  0  0  0  0  0
    1.8253   -1.4648   -3.3230 O   0  5  0  0  0  0  0  0  0  0  0  0
    2.2763   -3.4837   -2.5175 O   0  0  0  0  0  0  0  0  0  0  0  0
   -0.3954    1.2887    0.4814 C   0  0  0  0  0  0  0  0  0  0  0  0
   -0.2844    2.0809   -0.4566 O   0  0  0  0  0  0  0  0  0  0  0  0
   -0.7149    1.6932    1.7176 N   0  0  0  0  0  0  0  0  0  0  0  0
   -0.7348    0.9944    2.4455 H   0  0  0  0  0  0  0  0  0  0  0  0
   -0.9192    3.0889    2.0966 C   0  0  0  0  0  0  0  0  0  0  0  0
   -1.6277    3.5567    1.4109 H   0  0  0  0  0  0  0  0  0  0  0  0
   -1.3042    3.1488    3.1155 H   0  0  0  0  0  0  0  0  0  0  0  0
    0.0309    3.6233    2.0368 H   0  0  0  0  0  0  0  0  0  0  0  0
  5  6  2  0  0  0  0
  5  7  1  0  0  0  0
  2  3  1  0  0  0  0
  2  4  1  0  0  0  0
  2  5  1  0  0  0  0
  1  2  1  0  0  0  0
 20 21  2  0  0  0  0
 20 22  1  0  0  0  0
 17 18  1  0  0  0  0
 17 19  2  0  0  0  0
 14 15  1  0  0  0  0
 14 16  1  0  0  0  0
 14 17  1  0  0  0  0
 11 12  1  0  0  0  0
 11 13  1  0  0  0  0
 11 14  1  0  0  0  0
  9 10  1  0  0  0  0
  9 11  1  0  0  0  0
  9 20  1  0  0  0  0
  7  8  1  0  0  0  0
  7  9  1  0  0  0  0
 24 25  1  0  0  0  0
 24 26  1  0  0  0  0
 24 27  1  0  0  0  0
 22 23  1  0  0  0  0
 22 24  1  0  0  0  0
M  CHG  1  18  -1
M  END
$$$$
default_name
  -OEChem-01062215323D

 27 26  0     1  0  0  0  0  0999 V2000
   -3.2406   -3.5400    1.2326 H   0  0  0  0  0  0  0  0  0  0  0  0
   -3.1436   -2.6190    0.6606 C   0  0  0  0  0  0  0  0  0  0  0  0
   -3.8786   -1.8920    0.9996 H   0  0  0  0  0  0  0  0  0  0  0  0
   -3.2846   -2.8280   -0.3984 H   0  0  0  0  0  0  0  0  0  0  0  0
   -1.7586   -2.0580    0.8686 C   0  0  0  0  0  0  0  0  0  0  0  0
   -0.9666   -2.6340    1.6026 O   0  0  0  0  0  0  0  0  0  0  0  0
   -1.4866   -0.9220    0.2366 N   0  0  0  0  0  0  0  0  0  0  0  0
   -2.2166   -0.4790   -0.2994 H   0  0  0  0  0  0  0  0  0  0  0  0
   -0.1956   -0.2250    0.2596 C   0  0  1  0  0  0  0  0  0  0  0  0
    0.3927   -0.6026    1.0964 H   0  0  0  0  0  0  0  0  0  0  0  0
    0.5767   -0.5489   -1.0351 C   0  0  0  0  0  0  0  0  0  0  0  0
   -0.0737   -0.3197   -1.8808 H   0  0  0  0  0  0  0  0  0  0  0  0
    1.4598    0.0888   -1.0968 H   0  0  0  0  0  0  0  0  0  0  0  0
    1.0095   -2.0211   -1.1378 C   0  0  0  0  0  0  0  0  0  0  0  0
    1.6565   -2.2632   -0.2913 H   0  0  0  0  0  0  0  0  0  0  0  0
    0.1158   -2.6470   -1.0688 H   0  0  0  0  0  0  0  0  0  0  0  0
    1.7573   -2.3481   -2.4389 C   0  0  0  0  0  0  0  0  0  0  0  0
    1.8253   -1.4648   -3.3230 O   0  5  0  0  0  0  0  0  0  0  0  0
    2.2763   -3.4837   -2.5175 O   0  0  0  0  0  0  0  0  0  0  0  0
   -0.3954    1.2887    0.4814 C   0  0  0  0  0  0  0  0  0  0  0  0
   -0.5586    2.0476   -0.4763 O   0  0  0  0  0  0  0  0  0  0  0  0
   -0.4078    1.7295    1.7461 N   0  0  0  0  0  0  0  0  0  0  0  0
   -0.2137    1.0589    2.4748 H   0  0  0  0  0  0  0  0  0  0  0  0
   -0.5673    3.1313    2.1244 C   0  0  0  0  0  0  0  0  0  0  0  0
   -1.4451    3.5490    1.6284 H   0  0  0  0  0  0  0  0  0  0  0  0
   -0.6838    3.2175    3.2056 H   0  0  0  0  0  0  0  0  0  0  0  0
    0.3136    3.6940    1.8093 H   0  0  0  0  0  0  0  0  0  0  0  0
  5  6  2  0  0  0  0
  5  7  1  0  0  0  0
  2  3  1  0  0  0  0
  2  4  1  0  0  0  0
  2  5  1  0  0  0  0
  1  2  1  0  0  0  0
 20 21  2  0  0  0  0
 20 22  1  0  0  0  0
 17 18  1  0  0  0  0
 17 19  2  0  0  0  0
 14 15  1  0  0  0  0
 14 16  1  0  0  0  0
 14 17  1  0  0  0  0
 11 12  1  0  0  0  0
 11 13  1  0  0  0  0
 11 14  1  0  0  0  0
  9 10  1  0  0  0  0
  9 11  1  0  0  0  0
  9 20  1  0  0  0  0
  7  8  1  0  0  0  0
  7  9  1  0  0  0  0
 24 25  1  0  0  0  0
 24 26  1  0  0  0  0
 24 27  1  0  0  0  0
 22 23  1  0  0  0  0
 22 24  1  0  0  0  0
M  CHG  1  18  -1
M  END
$$$$
default_name
  -OEChem-01062215323D

 27 26  0     1  0  0  0  0  0999 V2000
   -3.2406   -3.5400    1.2326 H   0  0  0  0  0  0  0  0  0  0  0  0
   -3.1436   -2.6190    0.6606 C   0  0  0  0  0  0  0  0  0  0  0  0
   -3.8786   -1.8920    0.9996 H   0  0  0  0  0  0  0  0  0  0  0  0
   -3.2846   -2.8280   -0.3984 H   0  0  0  0  0  0  0  0  0  0  0  0
   -1.7586   -2.0580    0.8686 C   0  0  0  0  0  0  0  0  0  0  0  0
   -0.9666   -2.6340    1.6026 O   0  0  0  0  0  0  0  0  0  0  0  0
   -1.4866   -0.9220    0.2366 N   0  0  0  0  0  0  0  0  0  0  0  0
   -2.2166   -0.4790   -0.2994 H   0  0  0  0  0  0  0  0  0  0  0  0
   -0.1956   -0.2250    0.2596 C   0  0  1  0  0  0  0  0  0  0  0  0
    0.3927   -0.6026    1.0964 H   0  0  0  0  0  0  0  0  0  0  0  0
    0.5767   -0.5489   -1.0351 C   0  0  0  0  0  0  0  0  0  0  0  0
   -0.0737   -0.3197   -1.8808 H   0  0  0  0  0  0  0  0  0  0  0  0
    1.4598    0.0888   -1.0968 H   0  0  0  0  0  0  0  0  0  0  0  0
    1.0095   -2.0211   -1.1378 C   0  0  0  0  0  0  0  0  0  0  0  0
    1.6565   -2.2632   -0.2913 H   0  0  0  0  0  0  0  0  0  0  0  0
    0.1158   -2.6470   -1.0688 H   0  0  0  0  0  0  0  0  0  0  0  0
    1.7573   -2.3481   -2.4389 C   0  0  0  0  0  0  0  0  0  0  0  0
    1.8253   -1.4648   -3.3230 O   0  5  0  0  0  0  0  0  0  0  0  0
    2.2763   -3.4837   -2.5175 O   0  0  0  0  0  0  0  0  0  0  0  0
   -0.3954    1.2887    0.4814 C   0  0  0  0  0  0  0  0  0  0  0  0
   -0.8272    2.0046   -0.4246 O   0  0  0  0  0  0  0  0  0  0  0  0
   -0.1054    1.7770    1.6944 N   0  0  0  0  0  0  0  0  0  0  0  0
    0.2947    1.1416    2.3686 H   0  0  0  0  0  0  0  0  0  0  0  0
   -0.2219    3.1862    2.0604 C   0  0  0  0  0  0  0  0  0  0  0  0
   -1.2132    3.5555    1.7925 H   0  0  0  0  0  0  0  0  0  0  0  0
   -0.0642    3.3099    3.1327 H   0  0  0  0  0  0  0  0  0  0  0  0
    0.5264    3.7651    1.5155 H   0  0  0  0  0  0  0  0  0  0  0  0
  5  6  2  0  0  0  0
  5  7  1  0  0  0  0
  2  3  1  0  0  0  0
  2  4  1  0  0  0  0
  2  5  1  0  0  0  0
  1  2  1  0  0  0  0
 20 21  2  0  0  0  0
 20 22  1  0  0  0  0
 17 18  1  0  0  0  0
 17 19  2  0  0  0  0
 14 15  1  0  0  0  0
 14 16  1  0  0  0  0
 14 17  1  0  0  0  0
 11 12  1  0  0  0  0
 11 13  1  0  0  0  0
 11 14  1  0  0  0  0
  9 10  1  0  0  0  0
  9 11  1  0  0  0  0
  9 20  1  0  0  0  0
  7  8  1  0  0  0  0
  7  9  1  0  0  0  0
 24 25  1  0  0  0  0
 24 26  1  0  0  0  0
 24 27  1  0  0  0  0
 22 23  1  0  0  0  0
 22 24  1  0  0  0  0
M  CHG  1  18  -1
M  END
$$$$
default_name
  -OEChem-01062215323D

 27 26  0     1  0  0  0  0  0999 V2000
   -3.2406   -3.5400    1.2326 H   0  0  0  0  0  0  0  0  0  0  0  0
   -3.1436   -2.6190    0.6606 C   0  0  0  0  0  0  0  0  0  0  0  0
   -3.8786   -1.8920    0.9996 H   0  0  0  0  0  0  0  0  0  0  0  0
   -3.2846   -2.8280   -0.3984 H   0  0  0  0  0  0  0  0  0  0  0  0
   -1.7586   -2.0580    0.8686 C   0  0  0  0  0  0  0  0  0  0  0  0
   -0.9666   -2.6340    1.6026 O   0  0  0  0  0  0  0  0  0  0  0  0
   -1.4866   -0.9220    0.2366 N   0  0  0  0  0  0  0  0  0  0  0  0
   -2.2166   -0.4790   -0.2994 H   0  0  0  0  0  0  0  0  0  0  0  0
   -0.1956   -0.2250    0.2596 C   0  0  1  0  0  0  0  0  0  0  0  0
    0.3927   -0.6026    1.0964 H   0  0  0  0  0  0  0  0  0  0  0  0
    0.5767   -0.5489   -1.0351 C   0  0  0  0  0  0  0  0  0  0  0  0
   -0.0737   -0.3197   -1.8808 H   0  0  0  0  0  0  0  0  0  0  0  0
    1.4598    0.0888   -1.0968 H   0  0  0  0  0  0  0  0  0  0  0  0
    1.0095   -2.0211   -1.1378 C   0  0  0  0  0  0  0  0  0  0  0  0
    1.6565   -2.2632   -0.2913 H   0  0  0  0  0  0  0  0  0  0  0  0
    0.1158   -2.6470   -1.0688 H   0  0  0  0  0  0  0  0  0  0  0  0
    1.7573   -2.3481   -2.4389 C   0  0  0  0  0  0  0  0  0  0  0  0
    1.8253   -1.4648   -3.3230 O   0  5  0  0  0  0  0  0  0  0  0  0
    2.2763   -3.4837   -2.5175 O   0  0  0  0  0  0  0  0  0  0  0  0
   -0.3954    1.2887    0.4814 C   0  0  0  0  0  0  0  0  0  0  0  0
   -1.0720    1.9547   -0.3050 O   0  0  0  0  0  0  0  0  0  0  0  0
    0.1719    1.8324    1.5661 N   0  0  0  0  0  0  0  0  0  0  0  0
    0.7557    1.2367    2.1342 H   0  0  0  0  0  0  0  0  0  0  0  0
    0.0935    3.2500    1.9091 C   0  0  0  0  0  0  0  0  0  0  0  0
   -0.9479    3.5760    1.8919 H   0  0  0  0  0  0  0  0  0  0  0  0
    0.5124    3.4198    2.9019 H   0  0  0  0  0  0  0  0  0  0  0  0
    0.6546    3.8319    1.1752 H   0  0  0  0  0  0  0  0  0  0  0  0
  5  6  2  0  0  0  0
  5  7  1  0  0  0  0
  2  3  1  0  0  0  0
  2  4  1  0  0  0  0
  2  5  1  0  0  0  0
  1  2  1  0  0  0  0
 20 21  2  0  0  0  0
 20 22  1  0  0  0  0
 17 18  1  0  0  0  0
 17 19  2  0  0  0  0
 14 15  1  0  0  0  0
 14 16  1  0  0  0  0
 14 17  1  0  0  0  0
 11 12  1  0  0  0  0
 11 13  1  0  0  0  0
 11 14  1  0  0  0  0
  9 10  1  0  0  0  0
  9 11  1  0  0  0  0
  9 20  1  0  0  0  0
  7  8  1  0  0  0  0
  7  9  1  0  0  0  0
 24 25  1  0  0  0  0
 24 26  1  0  0  0  0
 24 27  1  0  0  0  0
 22 23  1  0  0  0  0
 22 24  1  0  0  0  0
M  CHG  1  18  -1
M  END
$$$$
default_name
  -OEChem-01062215323D

 27 26  0     1  0  0  0  0  0999 V2000
   -3.2406   -3.5400    1.2326 H   0  0  0  0  0  0  0  0  0  0  0  0
   -3.1436   -2.6190    0.6606 C   0  0  0  0  0  0  0  0  0  0  0  0
   -3.8786   -1.8920    0.9996 H   0  0  0  0  0  0  0  0  0  0  0  0
   -3.2846   -2.8280   -0.3984 H   0  0  0  0  0  0  0  0  0  0  0  0
   -1.7586   -2.0580    0.8686 C   0  0  0  0  0  0  0  0  0  0  0  0
   -0.9666   -2.6340    1.6026 O   0  0  0  0  0  0  0  0  0  0  0  0
   -1.4866   -0.9220    0.2366 N   0  0  0  0  0  0  0  0  0  0  0  0
   -2.2166   -0.4790   -0.2994 H   0  0  0  0  0  0  0  0  0  0  0  0
   -0.1956   -0.2250    0.2596 C   0  0  1  0  0  0  0  0  0  0  0  0
    0.3927   -0.6026    1.0964 H   0  0  0  0  0  0  0  0  0  0  0  0
    0.5767   -0.5489   -1.0351 C   0  0  0  0  0  0  0  0  0  0  0  0
   -0.0737   -0.3197   -1.8808 H   0  0  0  0  0  0  0  0  0  0  0  0
    1.4598    0.0888   -1.0968 H   0  0  0  0  0  0  0  0  0  0  0  0
    1.0095   -2.0211   -1.1378 C   0  0  0  0  0  0  0  0  0  0  0  0
    1.6565   -2.2632   -0.2913 H   0  0  0  0  0  0  0  0  0  0  0  0
    0.1158   -2.6470   -1.0688 H   0  0  0  0  0  0  0  0  0  0  0  0
    1.7573   -2.3481   -2.4389 C   0  0  0  0  0  0  0  0  0  0  0  0
    1.8253   -1.4648   -3.3230 O   0  5  0  0  0  0  0  0  0  0  0  0
    2.2763   -3.4837   -2.5175 O   0  0  0  0  0  0  0  0  0  0  0  0
   -0.3954    1.2887    0.4814 C   0  0  0  0  0  0  0  0  0  0  0  0
   -1.2761    1.9015   -0.1256 O   0  0  0  0  0  0  0  0  0  0  0  0
    0.4051    1.8919    1.3699 N   0  0  0  0  0  0  0  0  0  0  0  0
    1.1380    1.3380    1.7875 H   0  0  0  0  0  0  0  0  0  0  0  0
    0.3573    3.3183    1.6807 C   0  0  0  0  0  0  0  0  0  0  0  0
   -0.6670    3.6090    1.9198 H   0  0  0  0  0  0  0  0  0  0  0  0
    1.0066    3.5397    2.5289 H   0  0  0  0  0  0  0  0  0  0  0  0
    0.6896    3.8897    0.8118 H   0  0  0  0  0  0  0  0  0  0  0  0
  5  6  2  0  0  0  0
  5  7  1  0  0  0  0
  2  3  1  0  0  0  0
  2  4  1  0  0  0  0
  2  5  1  0  0  0  0
  1  2  1  0  0  0  0
 20 21  2  0  0  0  0
 20 22  1  0  0  0  0
 17 18  1  0  0  0  0
 17 19  2  0  0  0  0
 14 15  1  0  0  0  0
 14 16  1  0  0  0  0
 14 17  1  0  0  0  0
 11 12  1  0  0  0  0
 11 13  1  0  0  0  0
 11 14  1  0  0  0  0
  9 10  1  0  0  0  0
  9 11  1  0  0  0  0
  9 20  1  0  0  0  0
  7  8  1  0  0  0  0
  7  9  1  0  0  0  0
 24 25  1  0  0  0  0
 24 26  1  0  0  0  0
 24 27  1  0  0  0  0
 22 23  1  0  0  0  0
 22 24  1  0  0  0  0
M  CHG  1  18  -1
M  END
$$$$
default_name
  -OEChem-01062215323D

 27 26  0     1  0  0  0  0  0999 V2000
   -3.2406   -3.5400    1.2326 H   0  0  0  0  0  0  0  0  0  0  0  0
   -3.1436   -2.6190    0.6606 C   0  0  0  0  0  0  0  0  0  0  0  0
   -3.8786   -1.8920    0.9996 H   0  0  0  0  0  0  0  0  0  0  0  0
   -3.2846   -2.8280   -0.3984 H   0  0  0  0  0  0  0  0  0  0  0  0
   -1.7586   -2.0580    0.8686 C   0  0  0  0  0  0  0  0  0  0  0  0
   -0.9666   -2.6340    1.6026 O   0  0  0  0  0  0  0  0  0  0  0  0
   -1.4866   -0.9220    0.2366 N   0  0  0  0  0  0  0  0  0  0  0  0
   -2.2166   -0.4790   -0.2994 H   0  0  0  0  0  0  0  0  0  0  0  0
   -0.1956   -0.2250    0.2596 C   0  0  1  0  0  0  0  0  0  0  0  0
    0.3927   -0.6026    1.0964 H   0  0  0  0  0  0  0  0  0  0  0  0
    0.5767   -0.5489   -1.0351 C   0  0  0  0  0  0  0  0  0  0  0  0
   -0.0737   -0.3197   -1.8808 H   0  0  0  0  0  0  0  0  0  0  0  0
    1.4598    0.0888   -1.0968 H   0  0  0  0  0  0  0  0  0  0  0  0
    1.0095   -2.0211   -1.1378 C   0  0  0  0  0  0  0  0  0  0  0  0
    1.6565   -2.2632   -0.2913 H   0  0  0  0  0  0  0  0  0  0  0  0
    0.1158   -2.6470   -1.0688 H   0  0  0  0  0  0  0  0  0  0  0  0
    1.7573   -2.3481   -2.4389 C   0  0  0  0  0  0  0  0  0  0  0  0
    1.8253   -1.4648   -3.3230 O   0  5  0  0  0  0  0  0  0  0  0  0
    2.2763   -3.4837   -2.5175 O   0  0  0  0  0  0  0  0  0  0  0  0
   -0.3954    1.2887    0.4814 C   0  0  0  0  0  0  0  0  0  0  0  0
   -1.4258    1.8485    0.1013 O   0  0  0  0  0  0  0  0  0  0  0  0
    0.5783    1.9515    1.1191 N   0  0  0  0  0  0  0  0  0  0  0  0
    1.4154    1.4384    1.3522 H   0  0  0  0  0  0  0  0  0  0  0  0
    0.5516    3.3864    1.3908 C   0  0  0  0  0  0  0  0  0  0  0  0
   -0.3899    3.6522    1.8743 H   0  0  0  0  0  0  0  0  0  0  0  0
    1.3848    3.6614    2.0390 H   0  0  0  0  0  0  0  0  0  0  0  0
    0.6289    3.9347    0.4499 H   0  0  0  0  0  0  0  0  0  0  0  0
  5  6  2  0  0  0  0
  5  7  1  0  0  0  0
  2  3  1  0  0  0  0
  2  4  1  0  0  0  0
  2  5  1  0  0  0  0
  1  2  1  0  0  0  0
 20 21  2  0  0  0  0
 20 22  1  0  0  0  0
 17 18  1  0  0  0  0
 17 19  2  0  0  0  0
 14 15  1  0  0  0  0
 14 16  1  0  0  0  0
 14 17  1  0  0  0  0
 11 12  1  0  0  0  0
 11 13  1  0  0  0  0
 11 14  1  0  0  0  0
  9 10  1  0  0  0  0
  9 11  1  0  0  0  0
  9 20  1  0  0  0  0
  7  8  1  0  0  0  0
  7  9  1  0  0  0  0
 24 25  1  0  0  0  0
 24 26  1  0  0  0  0
 24 27  1  0  0  0  0
 22 23  1  0  0  0  0
 22 24  1  0  0  0  0
M  CHG  1  18  -1
M  END
$$$$
default_name
  -OEChem-01062215323D

 27 26  0     1  0  0  0  0  0999 V2000
   -3.2406   -3.5400    1.2326 H   0  0  0  0  0  0  0  0  0  0  0  0
   -3.1436   -2.6190    0.6606 C   0  0  0  0  0  0  0  0  0  0  0  0
   -3.8786   -1.8920    0.9996 H   0  0  0  0  0  0  0  0  0  0  0  0
   -3.2846   -2.8280   -0.3984 H   0  0  0  0  0  0  0  0  0  0  0  0
   -1.7586   -2.0580    0.8686 C   0  0  0  0  0  0  0  0  0  0  0  0
   -0.9666   -2.6340    1.6026 O   0  0  0  0  0  0  0  0  0  0  0  0
   -1.4866   -0.9220    0.2366 N   0  0  0  0  0  0  0  0  0  0  0  0
   -2.2166   -0.4790   -0.2994 H   0  0  0  0  0  0  0  0  0  0  0  0
   -0.1956   -0.2250    0.2596 C   0  0  1  0  0  0  0  0  0  0  0  0
    0.3927   -0.6026    1.0964 H   0  0  0  0  0  0  0  0  0  0  0  0
    0.5767   -0.5489   -1.0351 C   0  0  0  0  0  0  0  0  0  0  0  0
   -0.0737   -0.3197   -1.8808 H   0  0  0  0  0  0  0  0  0  0  0  0
    1.4598    0.0888   -1.0968 H   0  0  0  0  0  0  0  0  0  0  0  0
    1.0095   -2.0211   -1.1378 C   0  0  0  0  0  0  0  0  0  0  0  0
    1.6565   -2.2632   -0.2913 H   0  0  0  0  0  0  0  0  0  0  0  0
    0.1158   -2.6470   -1.0688 H   0  0  0  0  0  0  0  0  0  0  0  0
    1.7573   -2.3481   -2.4389 C   0  0  0  0  0  0  0  0  0  0  0  0
    1.8253   -1.4648   -3.3230 O   0  5  0  0  0  0  0  0  0  0  0  0
    2.2763   -3.4837   -2.5175 O   0  0  0  0  0  0  0  0  0  0  0  0
   -0.3954    1.2887    0.4814 C   0  0  0  0  0  0  0  0  0  0  0  0
   -1.5108    1.7994    0.3602 O   0  0  0  0  0  0  0  0  0  0  0  0
    0.6797    2.0071    0.8310 N   0  0  0  0  0  0  0  0  0  0  0  0
    1.5691    1.5311    0.8579 H   0  0  0  0  0  0  0  0  0  0  0  0
    0.6631    3.4497    1.0591 C   0  0  0  0  0  0  0  0  0  0  0  0
   -0.1354    3.7028    1.7586 H   0  0  0  0  0  0  0  0  0  0  0  0
    1.6212    3.7765    1.4658 H   0  0  0  0  0  0  0  0  0  0  0  0
    0.4768    3.9638    0.1142 H   0  0  0  0  0  0  0  0  0  0  0  0
  5  6  2  0  0  0  0
  5  7  1  0  0  0  0
  2  3  1  0  0  0  0
  2  4  1  0  0  0  0
  2  5  1  0  0  0  0
  1  2  1  0  0  0  0
 20 21  2  0  0  0  0
 20 22  1  0  0  0  0
 17 18  1  0  0  0  0
 17 19  2  0  0  0  0
 14 15  1  0  0  0  0
 14 16  1  0  0  0  0
 14 17  1  0  0  0  0
 11 12  1  0  0  0  0
 11 13  1  0  0  0  0
 11 14  1  0  0  0  0
  9 10  1  0  0  0  0
  9 11  1  0  0  0  0
  9 20  1  0  0  0  0
  7  8  1  0  0  0  0
  7  9  1  0  0  0  0
 24 25  1  0  0  0  0
 24 26  1  0  0  0  0
 24 27  1  0  0  0  0
 22 23  1  0  0  0  0
 22 24  1  0  0  0  0
M  CHG  1  18  -1
M  END
$$$$
default_name
  -OEChem-01062215323D

 27 26  0     1  0  0  0  0  0999 V2000
   -3.2406   -3.5400    1.2326 H   0  0  0  0  0  0  0  0  0  0  0  0
   -3.1436   -2.6190    0.6606 C   0  0  0  0  0  0  0  0  0  0  0  0
   -3.8786   -1.8920    0.9996 H   0  0  0  0  0  0  0  0  0  0  0  0
   -3.2846   -2.8280   -0.3984 H   0  0  0  0  0  0  0  0  0  0  0  0
   -1.7586   -2.0580    0.8686 C   0  0  0  0  0  0  0  0  0  0  0  0
   -0.9666   -2.6340    1.6026 O   0  0  0  0  0  0  0  0  0  0  0  0
   -1.4866   -0.9220    0.2366 N   0  0  0  0  0  0  0  0  0  0  0  0
   -2.2166   -0.4790   -0.2994 H   0  0  0  0  0  0  0  0  0  0  0  0
   -0.1956   -0.2250    0.2596 C   0  0  1  0  0  0  0  0  0  0  0  0
    0.4876   -0.7722    0.9098 H   0  0  0  0  0  0  0  0  0  0  0  0
    0.4077   -0.2317   -1.1594 C   0  0  0  0  0  0  0  0  0  0  0  0
   -0.3397    0.1719   -1.8444 H   0  0  0  0  0  0  0  0  0  0  0  0
    1.2828    0.4194   -1.1818 H   0  0  0  0  0  0  0  0  0  0  0  0
    0.8094   -1.6338   -1.6473 C   0  0  0  0  0  0  0  0  0  0  0  0
    1.5535   -2.0502   -0.9640 H   0  0  0  0  0  0  0  0  0  0  0  0
   -0.0752   -2.2752   -1.6138 H   0  0  0  0  0  0  0  0  0  0  0  0
    1.3876   -1.6425   -3.0702 C   0  0  0  0  0  0  0  0  0  0  0  0
    1.3549   -0.5801   -3.7311 O   0  5  0  0  0  0  0  0  0  0  0  0
    1.8814   -2.7208   -3.4685 O   0  0  0  0  0  0  0  0  0  0  0  0
   -0.3510    1.1947    0.8434 C   0  0  0  0  0  0  0  0  0  0  0  0
   -1.4488    1.5958    1.2356 O   0  0  0  0  0  0  0  0  0  0  0  0
    0.7514    1.9508    0.9258 N   0  0  0  0  0  0  0  0  0  0  0  0
    1.6033    1.5761    0.5353 H   0  0  0  0  0  0  0  0  0  0  0  0
    0.7708    3.3195    1.4354 C   0  0  0  0  0  0  0  0  0  0  0  0
    0.2806    3.3567    2.4097 H   0  0  0  0  0  0  0  0  0  0  0  0
    1.7995    3.6699    1.5312 H   0  0  0  0  0  0  0  0  0  0  0  0
    0.2296    3.9705    0.7461 H   0  0  0  0  0  0  0  0  0  0  0  0
  5  6  2  0  0  0  0
  5  7  1  0  0  0  0
  2  3  1  0  0  0  0
  2  4  1  0  0  0  0
  2  5  1  0  0  0  0
  1  2  1  0  0  0  0
 20 21  2  0  0  0  0
 20 22  1  0  0  0  0
 17 18  1  0  0  0  0
 17 19  2  0  0  0  0
 14 15  1  0  0  0  0
 14 16  1  0  0  0  0
 14 17  1  0  0  0  0
 11 12  1  0  0  0  0
 11 13  1  0  0  0  0
 11 14  1  0  0  0  0
  9 10  1  0  0  0  0
  9 11  1  0  0  0  0
  9 20  1  0  0  0  0
  7  8  1  0  0  0  0
  7  9  1  0  0  0  0
 24 25  1  0  0  0  0
 24 26  1  0  0  0  0
 24 27  1  0  0  0  0
 22 23  1  0  0  0  0
 22 24  1  0  0  0  0
M  CHG  1  18  -1
M  END
$$$$
default_name
  -OEChem-01062215323D

 27 26  0     1  0  0  0  0  0999 V2000
   -3.2406   -3.5400    1.2326 H   0  0  0  0  0  0  0  0  0  0  0  0
   -3.1436   -2.6190    0.6606 C   0  0  0  0  0  0  0  0  0  0  0  0
   -3.8786   -1.8920    0.9996 H   0  0  0  0  0  0  0  0  0  0  0  0
   -3.2846   -2.8280   -0.3984 H   0  0  0  0  0  0  0  0  0  0  0  0
   -1.7586   -2.0580    0.8686 C   0  0  0  0  0  0  0  0  0  0  0  0
   -0.9666   -2.6340    1.6026 O   0  0  0  0  0  0  0  0  0  0  0  0
   -1.4866   -0.9220    0.2366 N   0  0  0  0  0  0  0  0  0  0  0  0
   -2.2166   -0.4790   -0.2994 H   0  0  0  0  0  0  0  0  0  0  0  0
   -0.1956   -0.2250    0.2596 C   0  0  1  0  0  0  0  0  0  0  0  0
    0.4876   -0.7722    0.9098 H   0  0  0  0  0  0  0  0  0  0  0  0
    0.4077   -0.2317   -1.1594 C   0  0  0  0  0  0  0  0  0  0  0  0
   -0.3397    0.1719   -1.8444 H   0  0  0  0  0  0  0  0  0  0  0  0
    1.2828    0.4194   -1.1818 H   0  0  0  0  0  0  0  0  0  0  0  0
    0.8094   -1.6338   -1.6473 C   0  0  0  0  0  0  0  0  0  0  0  0
    1.5535   -2.0502   -0.9640 H   0  0  0  0  0  0  0  0  0  0  0  0
   -0.0752   -2.2752   -1.6138 H   0  0  0  0  0  0  0  0  0  0  0  0
    1.3876   -1.6425   -3.0702 C   0  0  0  0  0  0  0  0  0  0  0  0
    1.3549   -0.5801   -3.7311 O   0  5  0  0  0  0  0  0  0  0  0  0
    1.8814   -2.7208   -3.4685 O   0  0  0  0  0  0  0  0  0  0  0  0
   -0.3510    1.1947    0.8434 C   0  0  0  0  0  0  0  0  0  0  0  0
   -1.3594    1.5045    1.4813 O   0  0  0  0  0  0  0  0  0  0  0  0
    0.6573    2.0545    0.6486 N   0  0  0  0  0  0  0  0  0  0  0  0
    1.4259    1.7476    0.0709 H   0  0  0  0  0  0  0  0  0  0  0  0
    0.6585    3.4372    1.1192 C   0  0  0  0  0  0  0  0  0  0  0  0
    0.4117    3.4647    2.1819 H   0  0  0  0  0  0  0  0  0  0  0  0
    1.6397    3.8869    0.9610 H   0  0  0  0  0  0  0  0  0  0  0  0
   -0.0937    4.0073    0.5704 H   0  0  0  0  0  0  0  0  0  0  0  0
  5  6  2  0  0  0  0
  5  7  1  0  0  0  0
  2  3  1  0  0  0  0
  2  4  1  0  0  0  0
  2  5  1  0  0  0  0
  1  2  1  0  0  0  0
 20 21  2  0  0  0  0
 20 22  1  0  0  0  0
 17 18  1  0  0  0  0
 17 19  2  0  0  0  0
 14 15  1  0  0  0  0
 14 16  1  0  0  0  0
 14 17  1  0  0  0  0
 11 12  1  0  0  0  0
 11 13  1  0  0  0  0
 11 14  1  0  0  0  0
  9 10  1  0  0  0  0
  9 11  1  0  0  0  0
  9 20  1  0  0  0  0
  7  8  1  0  0  0  0
  7  9  1  0  0  0  0
 24 25  1  0  0  0  0
 24 26  1  0  0  0  0
 24 27  1  0  0  0  0
 22 23  1  0  0  0  0
 22 24  1  0  0  0  0
M  CHG  1  18  -1
M  END
$$$$
default_name
  -OEChem-01062215323D

 27 26  0     1  0  0  0  0  0999 V2000
   -3.2406   -3.5400    1.2326 H   0  0  0  0  0  0  0  0  0  0  0  0
   -3.1436   -2.6190    0.6606 C   0  0  0  0  0  0  0  0  0  0  0  0
   -3.8786   -1.8920    0.9996 H   0  0  0  0  0  0  0  0  0  0  0  0
   -3.2846   -2.8280   -0.3984 H   0  0  0  0  0  0  0  0  0  0  0  0
   -1.7586   -2.0580    0.8686 C   0  0  0  0  0  0  0  0  0  0  0  0
   -0.9666   -2.6340    1.6026 O   0  0  0  0  0  0  0  0  0  0  0  0
   -1.4866   -0.9220    0.2366 N   0  0  0  0  0  0  0  0  0  0  0  0
   -2.2166   -0.4790   -0.2994 H   0  0  0  0  0  0  0  0  0  0  0  0
   -0.1956   -0.2250    0.2596 C   0  0  1  0  0  0  0  0  0  0  0  0
    0.4876   -0.7722    0.9098 H   0  0  0  0  0  0  0  0  0  0  0  0
    0.4077   -0.2317   -1.1594 C   0  0  0  0  0  0  0  0  0  0  0  0
   -0.3397    0.1719   -1.8444 H   0  0  0  0  0  0  0  0  0  0  0  0
    1.2828    0.4194   -1.1818 H   0  0  0  0  0  0  0  0  0  0  0  0
    0.8094   -1.6338   -1.6473 C   0  0  0  0  0  0  0  0  0  0  0  0
    1.5535   -2.0502   -0.9640 H   0  0  0  0  0  0  0  0  0  0  0  0
   -0.0752   -2.2752   -1.6138 H   0  0  0  0  0  0  0  0  0  0  0  0
    1.3876   -1.6425   -3.0702 C   0  0  0  0  0  0  0  0  0  0  0  0
    1.3549   -0.5801   -3.7311 O   0  5  0  0  0  0  0  0  0  0  0  0
    1.8814   -2.7208   -3.4685 O   0  0  0  0  0  0  0  0  0  0  0  0
   -0.3510    1.1947    0.8434 C   0  0  0  0  0  0  0  0  0  0  0  0
   -1.2056    1.4316    1.6997 O   0  0  0  0  0  0  0  0  0  0  0  0
    0.4903    2.1382    0.4006 N   0  0  0  0  0  0  0  0  0  0  0  0
    1.1271    1.8838   -0.3399 H   0  0  0  0  0  0  0  0  0  0  0  0
    0.4631    3.5316    0.8376 C   0  0  0  0  0  0  0  0  0  0  0  0
    0.4736    3.5759    1.9279 H   0  0  0  0  0  0  0  0  0  0  0  0
    1.3283    4.0659    0.4426 H   0  0  0  0  0  0  0  0  0  0  0  0
   -0.4513    4.0066    0.4767 H   0  0  0  0  0  0  0  0  0  0  0  0
  5  6  2  0  0  0  0
  5  7  1  0  0  0  0
  2  3  1  0  0  0  0
  2  4  1  0  0  0  0
  2  5  1  0  0  0  0
  1  2  1  0  0  0  0
 20 21  2  0  0  0  0
 20 22  1  0  0  0  0
 17 18  1  0  0  0  0
 17 19  2  0  0  0  0
 14 15  1  0  0  0  0
 14 16  1  0  0  0  0
 14 17  1  0  0  0  0
 11 12  1  0  0  0  0
 11 13  1  0  0  0  0
 11 14  1  0  0  0  0
  9 10  1  0  0  0  0
  9 11  1  0  0  0  0
  9 20  1  0  0  0  0
  7  8  1  0  0  0  0
  7  9  1  0  0  0  0
 24 25  1  0  0  0  0
 24 26  1  0  0  0  0
 24 27  1  0  0  0  0
 22 23  1  0  0  0  0
 22 24  1  0  0  0  0
M  CHG  1  18  -1
M  END
$$$$
default_name
  -OEChem-01062215323D

 27 26  0     1  0  0  0  0  0999 V2000
   -3.2406   -3.5400    1.2326 H   0  0  0  0  0  0  0  0  0  0  0  0
   -3.1436   -2.6190    0.6606 C   0  0  0  0  0  0  0  0  0  0  0  0
   -3.8786   -1.8920    0.9996 H   0  0  0  0  0  0  0  0  0  0  0  0
   -3.2846   -2.8280   -0.3984 H   0  0  0  0  0  0  0  0  0  0  0  0
   -1.7586   -2.0580    0.8686 C   0  0  0  0  0  0  0  0  0  0  0  0
   -0.9666   -2.6340    1.6026 O   0  0  0  0  0  0  0  0  0  0  0  0
   -1.4866   -0.9220    0.2366 N   0  0  0  0  0  0  0  0  0  0  0  0
   -2.2166   -0.4790   -0.2994 H   0  0  0  0  0  0  0  0  0  0  0  0
   -0.1956   -0.2250    0.2596 C   0  0  1  0  0  0  0  0  0  0  0  0
    0.4876   -0.7722    0.9098 H   0  0  0  0  0  0  0  0  0  0  0  0
    0.4077   -0.2317   -1.1594 C   0  0  0  0  0  0  0  0  0  0  0  0
   -0.3397    0.1719   -1.8444 H   0  0  0  0  0  0  0  0  0  0  0  0
    1.2828    0.4194   -1.1818 H   0  0  0  0  0  0  0  0  0  0  0  0
    0.8094   -1.6338   -1.6473 C   0  0  0  0  0  0  0  0  0  0  0  0
    1.5535   -2.0502   -0.9640 H   0  0  0  0  0  0  0  0  0  0  0  0
   -0.0752   -2.2752   -1.6138 H   0  0  0  0  0  0  0  0  0  0  0  0
    1.3876   -1.6425   -3.0702 C   0  0  0  0  0  0  0  0  0  0  0  0
    1.3549   -0.5801   -3.7311 O   0  5  0  0  0  0  0  0  0  0  0  0
    1.8814   -2.7208   -3.4685 O   0  0  0  0  0  0  0  0  0  0  0  0
   -0.3510    1.1947    0.8434 C   0  0  0  0  0  0  0  0  0  0  0  0
   -0.9979    1.3818    1.8760 O   0  0  0  0  0  0  0  0  0  0  0  0
    0.2617    2.1962    0.1987 N   0  0  0  0  0  0  0  0  0  0  0  0
    0.7273    1.9754   -0.6690 H   0  0  0  0  0  0  0  0  0  0  0  0
    0.1980    3.5963    0.6096 C   0  0  0  0  0  0  0  0  0  0  0  0
    0.4620    3.6828    1.6649 H   0  0  0  0  0  0  0  0  0  0  0  0
    0.8865    4.1949    0.0113 H   0  0  0  0  0  0  0  0  0  0  0  0
   -0.8190    3.9685    0.4715 H   0  0  0  0  0  0  0  0  0  0  0  0
  5  6  2  0  0  0  0
  5  7  1  0  0  0  0
  2  3  1  0  0  0  0
  2  4  1  0  0  0  0
  2  5  1  0  0  0  0
  1  2  1  0  0  0  0
 20 21  2  0  0  0  0
 20 22  1  0  0  0  0
 17 18  1  0  0  0  0
 17 19  2  0  0  0  0
 14 15  1  0  0  0  0
 14 16  1  0  0  0  0
 14 17  1  0  0  0  0
 11 12  1  0  0  0  0
 11 13  1  0  0  0  0
 11 14  1  0  0  0  0
  9 10  1  0  0  0  0
  9 11  1  0  0  0  0
  9 20  1  0  0  0  0
  7  8  1  0  0  0  0
  7  9  1  0  0  0  0
 24 25  1  0  0  0  0
 24 26  1  0  0  0  0
 24 27  1  0  0  0  0
 22 23  1  0  0  0  0
 22 24  1  0  0  0  0
M  CHG  1  18  -1
M  END
$$$$
default_name
  -OEChem-01062215323D

 27 26  0     1  0  0  0  0  0999 V2000
   -3.2406   -3.5400    1.2326 H   0  0  0  0  0  0  0  0  0  0  0  0
   -3.1436   -2.6190    0.6606 C   0  0  0  0  0  0  0  0  0  0  0  0
   -3.8786   -1.8920    0.9996 H   0  0  0  0  0  0  0  0  0  0  0  0
   -3.2846   -2.8280   -0.3984 H   0  0  0  0  0  0  0  0  0  0  0  0
   -1.7586   -2.0580    0.8686 C   0  0  0  0  0  0  0  0  0  0  0  0
   -0.9666   -2.6340    1.6026 O   0  0  0  0  0  0  0  0  0  0  0  0
   -1.4866   -0.9220    0.2366 N   0  0  0  0  0  0  0  0  0  0  0  0
   -2.2166   -0.4790   -0.2994 H   0  0  0  0  0  0  0  0  0  0  0  0
   -0.1956   -0.2250    0.2596 C   0  0  1  0  0  0  0  0  0  0  0  0
    0.4876   -0.7722    0.9098 H   0  0  0  0  0  0  0  0  0  0  0  0
    0.4077   -0.2317   -1.1594 C   0  0  0  0  0  0  0  0  0  0  0  0
   -0.3397    0.1719   -1.8444 H   0  0  0  0  0  0  0  0  0  0  0  0
    1.2828    0.4194   -1.1818 H   0  0  0  0  0  0  0  0  0  0  0  0
    0.8094   -1.6338   -1.6473 C   0  0  0  0  0  0  0  0  0  0  0  0
    1.5535   -2.0502   -0.9640 H   0  0  0  0  0  0  0  0  0  0  0  0
   -0.0752   -2.2752   -1.6138 H   0  0  0  0  0  0  0  0  0  0  0  0
    1.3876   -1.6425   -3.0702 C   0  0  0  0  0  0  0  0  0  0  0  0
    1.3549   -0.5801   -3.7311 O   0  5  0  0  0  0  0  0  0  0  0  0
    1.8814   -2.7208   -3.4685 O   0  0  0  0  0  0  0  0  0  0  0  0
   -0.3510    1.1947    0.8434 C   0  0  0  0  0  0  0  0  0  0  0  0
   -0.7504    1.3588    1.9980 O   0  0  0  0  0  0  0  0  0  0  0  0
   -0.0129    2.2245    0.0565 N   0  0  0  0  0  0  0  0  0  0  0  0
    0.2538    2.0161   -0.8942 H   0  0  0  0  0  0  0  0  0  0  0  0
   -0.1186    3.6270    0.4508 C   0  0  0  0  0  0  0  0  0  0  0  0
    0.3777    3.7780    1.4109 H   0  0  0  0  0  0  0  0  0  0  0  0
    0.3444    4.2649   -0.3034 H   0  0  0  0  0  0  0  0  0  0  0  0
   -1.1717    3.8956    0.5549 H   0  0  0  0  0  0  0  0  0  0  0  0
  5  6  2  0  0  0  0
  5  7  1  0  0  0  0
  2  3  1  0  0  0  0
  2  4  1  0  0  0  0
  2  5  1  0  0  0  0
  1  2  1  0  0  0  0
 20 21  2  0  0  0  0
 20 22  1  0  0  0  0
 17 18  1  0  0  0  0
 17 19  2  0  0  0  0
 14 15  1  0  0  0  0
 14 16  1  0  0  0  0
 14 17  1  0  0  0  0
 11 12  1  0  0  0  0
 11 13  1  0  0  0  0
 11 14  1  0  0  0  0
  9 10  1  0  0  0  0
  9 11  1  0  0  0  0
  9 20  1  0  0  0  0
  7  8  1  0  0  0  0
  7  9  1  0  0  0  0
 24 25  1  0  0  0  0
 24 26  1  0  0  0  0
 24 27  1  0  0  0  0
 22 23  1  0  0  0  0
 22 24  1  0  0  0  0
M  CHG  1  18  -1
M  END
$$$$
default_name
  -OEChem-01062215323D

 27 26  0     1  0  0  0  0  0999 V2000
   -3.2406   -3.5400    1.2326 H   0  0  0  0  0  0  0  0  0  0  0  0
   -3.1436   -2.6190    0.6606 C   0  0  0  0  0  0  0  0  0  0  0  0
   -3.8786   -1.8920    0.9996 H   0  0  0  0  0  0  0  0  0  0  0  0
   -3.2846   -2.8280   -0.3984 H   0  0  0  0  0  0  0  0  0  0  0  0
   -1.7586   -2.0580    0.8686 C   0  0  0  0  0  0  0  0  0  0  0  0
   -0.9666   -2.6340    1.6026 O   0  0  0  0  0  0  0  0  0  0  0  0
   -1.4866   -0.9220    0.2366 N   0  0  0  0  0  0  0  0  0  0  0  0
   -2.2166   -0.4790   -0.2994 H   0  0  0  0  0  0  0  0  0  0  0  0
   -0.1956   -0.2250    0.2596 C   0  0  1  0  0  0  0  0  0  0  0  0
    0.4876   -0.7722    0.9098 H   0  0  0  0  0  0  0  0  0  0  0  0
    0.4077   -0.2317   -1.1594 C   0  0  0  0  0  0  0  0  0  0  0  0
   -0.3397    0.1719   -1.8444 H   0  0  0  0  0  0  0  0  0  0  0  0
    1.2828    0.4194   -1.1818 H   0  0  0  0  0  0  0  0  0  0  0  0
    0.8094   -1.6338   -1.6473 C   0  0  0  0  0  0  0  0  0  0  0  0
    1.5535   -2.0502   -0.9640 H   0  0  0  0  0  0  0  0  0  0  0  0
   -0.0752   -2.2752   -1.6138 H   0  0  0  0  0  0  0  0  0  0  0  0
    1.3876   -1.6425   -3.0702 C   0  0  0  0  0  0  0  0  0  0  0  0
    1.3549   -0.5801   -3.7311 O   0  5  0  0  0  0  0  0  0  0  0  0
    1.8814   -2.7208   -3.4685 O   0  0  0  0  0  0  0  0  0  0  0  0
   -0.3510    1.1947    0.8434 C   0  0  0  0  0  0  0  0  0  0  0  0
   -0.4800    1.3639    2.0576 O   0  0  0  0  0  0  0  0  0  0  0  0
   -0.3148    2.2213   -0.0161 N   0  0  0  0  0  0  0  0  0  0  0  0
   -0.2612    2.0032   -1.0000 H   0  0  0  0  0  0  0  0  0  0  0  0
   -0.4653    3.6214    0.3720 C   0  0  0  0  0  0  0  0  0  0  0  0
    0.2264    3.8551    1.1831 H   0  0  0  0  0  0  0  0  0  0  0  0
   -0.2610    4.2712   -0.4801 H   0  0  0  0  0  0  0  0  0  0  0  0
   -1.4853    3.7928    0.7214 H   0  0  0  0  0  0  0  0  0  0  0  0
  5  6  2  0  0  0  0
  5  7  1  0  0  0  0
  2  3  1  0  0  0  0
  2  4  1  0  0  0  0
  2  5  1  0  0  0  0
  1  2  1  0  0  0  0
 20 21  2  0  0  0  0
 20 22  1  0  0  0  0
 17 18  1  0  0  0  0
 17 19  2  0  0  0  0
 14 15  1  0  0  0  0
 14 16  1  0  0  0  0
 14 17  1  0  0  0  0
 11 12  1  0  0  0  0
 11 13  1  0  0  0  0
 11 14  1  0  0  0  0
  9 10  1  0  0  0  0
  9 11  1  0  0  0  0
  9 20  1  0  0  0  0
  7  8  1  0  0  0  0
  7  9  1  0  0  0  0
 24 25  1  0  0  0  0
 24 26  1  0  0  0  0
 24 27  1  0  0  0  0
 22 23  1  0  0  0  0
 22 24  1  0  0  0  0
M  CHG  1  18  -1
M  END
$$$$
default_name
  -OEChem-01062215323D

 27 26  0     1  0  0  0  0  0999 V2000
   -3.2406   -3.5400    1.2326 H   0  0  0  0  0  0  0  0  0  0  0  0
   -3.1436   -2.6190    0.6606 C   0  0  0  0  0  0  0  0  0  0  0  0
   -3.8786   -1.8920    0.9996 H   0  0  0  0  0  0  0  0  0  0  0  0
   -3.2846   -2.8280   -0.3984 H   0  0  0  0  0  0  0  0  0  0  0  0
   -1.7586   -2.0580    0.8686 C   0  0  0  0  0  0  0  0  0  0  0  0
   -0.9666   -2.6340    1.6026 O   0  0  0  0  0  0  0  0  0  0  0  0
   -1.4866   -0.9220    0.2366 N   0  0  0  0  0  0  0  0  0  0  0  0
   -2.2166   -0.4790   -0.2994 H   0  0  0  0  0  0  0  0  0  0  0  0
   -0.1956   -0.2250    0.2596 C   0  0  1  0  0  0  0  0  0  0  0  0
    0.4876   -0.7722    0.9098 H   0  0  0  0  0  0  0  0  0  0  0  0
    0.4077   -0.2317   -1.1594 C   0  0  0  0  0  0  0  0  0  0  0  0
   -0.3397    0.1719   -1.8444 H   0  0  0  0  0  0  0  0  0  0  0  0
    1.2828    0.4194   -1.1818 H   0  0  0  0  0  0  0  0  0  0  0  0
    0.8094   -1.6338   -1.6473 C   0  0  0  0  0  0  0  0  0  0  0  0
    1.5535   -2.0502   -0.9640 H   0  0  0  0  0  0  0  0  0  0  0  0
   -0.0752   -2.2752   -1.6138 H   0  0  0  0  0  0  0  0  0  0  0  0
    1.3876   -1.6425   -3.0702 C   0  0  0  0  0  0  0  0  0  0  0  0
    1.3549   -0.5801   -3.7311 O   0  5  0  0  0  0  0  0  0  0  0  0
    1.8814   -2.7208   -3.4685 O   0  0  0  0  0  0  0  0  0  0  0  0
   -0.3510    1.1947    0.8434 C   0  0  0  0  0  0  0  0  0  0  0  0
   -0.2052    1.3968    2.0506 O   0  0  0  0  0  0  0  0  0  0  0  0
   -0.6233    2.1868   -0.0143 N   0  0  0  0  0  0  0  0  0  0  0  0
   -0.7825    1.9375   -0.9792 H   0  0  0  0  0  0  0  0  0  0  0  0
   -0.8184    3.5800    0.3786 C   0  0  0  0  0  0  0  0  0  0  0  0
    0.0185    3.9088    0.9971 H   0  0  0  0  0  0  0  0  0  0  0  0
   -0.8885    4.2135   -0.5068 H   0  0  0  0  0  0  0  0  0  0  0  0
   -1.7385    3.6671    0.9597 H   0  0  0  0  0  0  0  0  0  0  0  0
  5  6  2  0  0  0  0
  5  7  1  0  0  0  0
  2  3  1  0  0  0  0
  2  4  1  0  0  0  0
  2  5  1  0  0  0  0
  1  2  1  0  0  0  0
 20 21  2  0  0  0  0
 20 22  1  0  0  0  0
 17 18  1  0  0  0  0
 17 19  2  0  0  0  0
 14 15  1  0  0  0  0
 14 16  1  0  0  0  0
 14 17  1  0  0  0  0
 11 12  1  0  0  0  0
 11 13  1  0  0  0  0
 11 14  1  0  0  0  0
  9 10  1  0  0  0  0
  9 11  1  0  0  0  0
  9 20  1  0  0  0  0
  7  8  1  0  0  0  0
  7  9  1  0  0  0  0
 24 25  1  0  0  0  0
 24 26  1  0  0  0  0
 24 27  1  0  0  0  0
 22 23  1  0  0  0  0
 22 24  1  0  0  0  0
M  CHG  1  18  -1
M  END
$$$$
default_name
  -OEChem-01062215323D

 27 26  0     1  0  0  0  0  0999 V2000
   -3.2406   -3.5400    1.2326 H   0  0  0  0  0  0  0  0  0  0  0  0
   -3.1436   -2.6190    0.6606 C   0  0  0  0  0  0  0  0  0  0  0  0
   -3.8786   -1.8920    0.9996 H   0  0  0  0  0  0  0  0  0  0  0  0
   -3.2846   -2.8280   -0.3984 H   0  0  0  0  0  0  0  0  0  0  0  0
   -1.7586   -2.0580    0.8686 C   0  0  0  0  0  0  0  0  0  0  0  0
   -0.9666   -2.6340    1.6026 O   0  0  0  0  0  0  0  0  0  0  0  0
   -1.4866   -0.9220    0.2366 N   0  0  0  0  0  0  0  0  0  0  0  0
   -2.2166   -0.4790   -0.2994 H   0  0  0  0  0  0  0  0  0  0  0  0
   -0.1956   -0.2250    0.2596 C   0  0  1  0  0  0  0  0  0  0  0  0
    0.4876   -0.7722    0.9098 H   0  0  0  0  0  0  0  0  0  0  0  0
    0.4077   -0.2317   -1.1594 C   0  0  0  0  0  0  0  0  0  0  0  0
   -0.3397    0.1719   -1.8444 H   0  0  0  0  0  0  0  0  0  0  0  0
    1.2828    0.4194   -1.1818 H   0  0  0  0  0  0  0  0  0  0  0  0
    0.8094   -1.6338   -1.6473 C   0  0  0  0  0  0  0  0  0  0  0  0
    1.5535   -2.0502   -0.9640 H   0  0  0  0  0  0  0  0  0  0  0  0
   -0.0752   -2.2752   -1.6138 H   0  0  0  0  0  0  0  0  0  0  0  0
    1.3876   -1.6425   -3.0702 C   0  0  0  0  0  0  0  0  0  0  0  0
    1.3549   -0.5801   -3.7311 O   0  5  0  0  0  0  0  0  0  0  0  0
    1.8814   -2.7208   -3.4685 O   0  0  0  0  0  0  0  0  0  0  0  0
   -0.3510    1.1947    0.8434 C   0  0  0  0  0  0  0  0  0  0  0  0
    0.0554    1.4554    1.9776 O   0  0  0  0  0  0  0  0  0  0  0  0
   -0.9176    2.1233    0.0618 N   0  0  0  0  0  0  0  0  0  0  0  0
   -1.2748    1.8236   -0.8332 H   0  0  0  0  0  0  0  0  0  0  0  0
   -1.1538    3.5056    0.4702 C   0  0  0  0  0  0  0  0  0  0  0  0
   -0.2319    3.9355    0.8655 H   0  0  0  0  0  0  0  0  0  0  0  0
   -1.4953    4.0956   -0.3816 H   0  0  0  0  0  0  0  0  0  0  0  0
   -1.9141    3.5271    1.2534 H   0  0  0  0  0  0  0  0  0  0  0  0
  5  6  2  0  0  0  0
  5  7  1  0  0  0  0
  2  3  1  0  0  0  0
  2  4  1  0  0  0  0
  2  5  1  0  0  0  0
  1  2  1  0  0  0  0
 20 21  2  0  0  0  0
 20 22  1  0  0  0  0
 17 18  1  0  0  0  0
 17 19  2  0  0  0  0
 14 15  1  0  0  0  0
 14 16  1  0  0  0  0
 14 17  1  0  0  0  0
 11 12  1  0  0  0  0
 11 13  1  0  0  0  0
 11 14  1  0  0  0  0
  9 10  1  0  0  0  0
  9 11  1  0  0  0  0
  9 20  1  0  0  0  0
  7  8  1  0  0  0  0
  7  9  1  0  0  0  0
 24 25  1  0  0  0  0
 24 26  1  0  0  0  0
 24 27  1  0  0  0  0
 22 23  1  0  0  0  0
 22 24  1  0  0  0  0
M  CHG  1  18  -1
M  END
$$$$
default_name
  -OEChem-01062215323D

 27 26  0     1  0  0  0  0  0999 V2000
   -3.2406   -3.5400    1.2326 H   0  0  0  0  0  0  0  0  0  0  0  0
   -3.1436   -2.6190    0.6606 C   0  0  0  0  0  0  0  0  0  0  0  0
   -3.8786   -1.8920    0.9996 H   0  0  0  0  0  0  0  0  0  0  0  0
   -3.2846   -2.8280   -0.3984 H   0  0  0  0  0  0  0  0  0  0  0  0
   -1.7586   -2.0580    0.8686 C   0  0  0  0  0  0  0  0  0  0  0  0
   -0.9666   -2.6340    1.6026 O   0  0  0  0  0  0  0  0  0  0  0  0
   -1.4866   -0.9220    0.2366 N   0  0  0  0  0  0  0  0  0  0  0  0
   -2.2166   -0.4790   -0.2994 H   0  0  0  0  0  0  0  0  0  0  0  0
   -0.1956   -0.2250    0.2596 C   0  0  1  0  0  0  0  0  0  0  0  0
    0.4876   -0.7722    0.9098 H   0  0  0  0  0  0  0  0  0  0  0  0
    0.4077   -0.2317   -1.1594 C   0  0  0  0  0  0  0  0  0  0  0  0
   -0.3397    0.1719   -1.8444 H   0  0  0  0  0  0  0  0  0  0  0  0
    1.2828    0.4194   -1.1818 H   0  0  0  0  0  0  0  0  0  0  0  0
    0.8094   -1.6338   -1.6473 C   0  0  0  0  0  0  0  0  0  0  0  0
    1.5535   -2.0502   -0.9640 H   0  0  0  0  0  0  0  0  0  0  0  0
   -0.0752   -2.2752   -1.6138 H   0  0  0  0  0  0  0  0  0  0  0  0
    1.3876   -1.6425   -3.0702 C   0  0  0  0  0  0  0  0  0  0  0  0
    1.3549   -0.5801   -3.7311 O   0  5  0  0  0  0  0  0  0  0  0  0
    1.8814   -2.7208   -3.4685 O   0  0  0  0  0  0  0  0  0  0  0  0
   -0.3510    1.1947    0.8434 C   0  0  0  0  0  0  0  0  0  0  0  0
    0.2840    1.5356    1.8434 O   0  0  0  0  0  0  0  0  0  0  0  0
   -1.1775    2.0351    0.2071 N   0  0  0  0  0  0  0  0  0  0  0  0
   -1.7043    1.6692   -0.5720 H   0  0  0  0  0  0  0  0  0  0  0  0
   -1.4487    3.4033    0.6404 C   0  0  0  0  0  0  0  0  0  0  0  0
   -0.5077    3.9333    0.7974 H   0  0  0  0  0  0  0  0  0  0  0  0
   -2.0401    3.9255   -0.1131 H   0  0  0  0  0  0  0  0  0  0  0  0
   -2.0000    3.3824    1.5825 H   0  0  0  0  0  0  0  0  0  0  0  0
  5  6  2  0  0  0  0
  5  7  1  0  0  0  0
  2  3  1  0  0  0  0
  2  4  1  0  0  0  0
  2  5  1  0  0  0  0
  1  2  1  0  0  0  0
 20 21  2  0  0  0  0
 20 22  1  0  0  0  0
 17 18  1  0  0  0  0
 17 19  2  0  0  0  0
 14 15  1  0  0  0  0
 14 16  1  0  0  0  0
 14 17  1  0  0  0  0
 11 12  1  0  0  0  0
 11 13  1  0  0  0  0
 11 14  1  0  0  0  0
  9 10  1  0  0  0  0
  9 11  1  0  0  0  0
  9 20  1  0  0  0  0
  7  8  1  0  0  0  0
  7  9  1  0  0  0  0
 24 25  1  0  0  0  0
 24 26  1  0  0  0  0
 24 27  1  0  0  0  0
 22 23  1  0  0  0  0
 22 24  1  0  0  0  0
M  CHG  1  18  -1
M  END
$$$$
default_name
  -OEChem-01062215323D

 27 26  0     1  0  0  0  0  0999 V2000
   -3.2406   -3.5400    1.2326 H   0  0  0  0  0  0  0  0  0  0  0  0
   -3.1436   -2.6190    0.6606 C   0  0  0  0  0  0  0  0  0  0  0  0
   -3.8786   -1.8920    0.9996 H   0  0  0  0  0  0  0  0  0  0  0  0
   -3.2846   -2.8280   -0.3984 H   0  0  0  0  0  0  0  0  0  0  0  0
   -1.7586   -2.0580    0.8686 C   0  0  0  0  0  0  0  0  0  0  0  0
   -0.9666   -2.6340    1.6026 O   0  0  0  0  0  0  0  0  0  0  0  0
   -1.4866   -0.9220    0.2366 N   0  0  0  0  0  0  0  0  0  0  0  0
   -2.2166   -0.4790   -0.2994 H   0  0  0  0  0  0  0  0  0  0  0  0
   -0.1956   -0.2250    0.2596 C   0  0  1  0  0  0  0  0  0  0  0  0
    0.4876   -0.7722    0.9098 H   0  0  0  0  0  0  0  0  0  0  0  0
    0.4077   -0.2317   -1.1594 C   0  0  0  0  0  0  0  0  0  0  0  0
   -0.3397    0.1719   -1.8444 H   0  0  0  0  0  0  0  0  0  0  0  0
    1.2828    0.4194   -1.1818 H   0  0  0  0  0  0  0  0  0  0  0  0
    0.8094   -1.6338   -1.6473 C   0  0  0  0  0  0  0  0  0  0  0  0
    1.5535   -2.0502   -0.9640 H   0  0  0  0  0  0  0  0  0  0  0  0
   -0.0752   -2.2752   -1.6138 H   0  0  0  0  0  0  0  0  0  0  0  0
    1.3876   -1.6425   -3.0702 C   0  0  0  0  0  0  0  0  0  0  0  0
    1.3549   -0.5801   -3.7311 O   0  5  0  0  0  0  0  0  0  0  0  0
    1.8814   -2.7208   -3.4685 O   0  0  0  0  0  0  0  0  0  0  0  0
   -0.3510    1.1947    0.8434 C   0  0  0  0  0  0  0  0  0  0  0  0
    0.4650    1.6320    1.6573 O   0  0  0  0  0  0  0  0  0  0  0  0
   -1.3852    1.9282    0.4116 N   0  0  0  0  0  0  0  0  0  0  0  0
   -2.0418    1.4847   -0.2134 H   0  0  0  0  0  0  0  0  0  0  0  0
   -1.6830    3.2801    0.8778 C   0  0  0  0  0  0  0  0  0  0  0  0
   -0.7902    3.9024    0.7973 H   0  0  0  0  0  0  0  0  0  0  0  0
   -2.4857    3.7149    0.2805 H   0  0  0  0  0  0  0  0  0  0  0  0
   -1.9905    3.2427    1.9247 H   0  0  0  0  0  0  0  0  0  0  0  0
  5  6  2  0  0  0  0
  5  7  1  0  0  0  0
  2  3  1  0  0  0  0
  2  4  1  0  0  0  0
  2  5  1  0  0  0  0
  1  2  1  0  0  0  0
 20 21  2  0  0  0  0
 20 22  1  0  0  0  0
 17 18  1  0  0  0  0
 17 19  2  0  0  0  0
 14 15  1  0  0  0  0
 14 16  1  0  0  0  0
 14 17  1  0  0  0  0
 11 12  1  0  0  0  0
 11 13  1  0  0  0  0
 11 14  1  0  0  0  0
  9 10  1  0  0  0  0
  9 11  1  0  0  0  0
  9 20  1  0  0  0  0
  7  8  1  0  0  0  0
  7  9  1  0  0  0  0
 24 25  1  0  0  0  0
 24 26  1  0  0  0  0
 24 27  1  0  0  0  0
 22 23  1  0  0  0  0
 22 24  1  0  0  0  0
M  CHG  1  18  -1
M  END
$$$$
default_name
  -OEChem-01062215323D

 27 26  0     1  0  0  0  0  0999 V2000
   -3.2406   -3.5400    1.2326 H   0  0  0  0  0  0  0  0  0  0  0  0
   -3.1436   -2.6190    0.6606 C   0  0  0  0  0  0  0  0  0  0  0  0
   -3.8786   -1.8920    0.9996 H   0  0  0  0  0  0  0  0  0  0  0  0
   -3.2846   -2.8280   -0.3984 H   0  0  0  0  0  0  0  0  0  0  0  0
   -1.7586   -2.0580    0.8686 C   0  0  0  0  0  0  0  0  0  0  0  0
   -0.9666   -2.6340    1.6026 O   0  0  0  0  0  0  0  0  0  0  0  0
   -1.4866   -0.9220    0.2366 N   0  0  0  0  0  0  0  0  0  0  0  0
   -2.2166   -0.4790   -0.2994 H   0  0  0  0  0  0  0  0  0  0  0  0
   -0.1956   -0.2250    0.2596 C   0  0  1  0  0  0  0  0  0  0  0  0
    0.4876   -0.7722    0.9098 H   0  0  0  0  0  0  0  0  0  0  0  0
    0.4077   -0.2317   -1.1594 C   0  0  0  0  0  0  0  0  0  0  0  0
   -0.3397    0.1719   -1.8444 H   0  0  0  0  0  0  0  0  0  0  0  0
    1.2828    0.4194   -1.1818 H   0  0  0  0  0  0  0  0  0  0  0  0
    0.8094   -1.6338   -1.6473 C   0  0  0  0  0  0  0  0  0  0  0  0
    1.5535   -2.0502   -0.9640 H   0  0  0  0  0  0  0  0  0  0  0  0
   -0.0752   -2.2752   -1.6138 H   0  0  0  0  0  0  0  0  0  0  0  0
    1.3876   -1.6425   -3.0702 C   0  0  0  0  0  0  0  0  0  0  0  0
    1.3549   -0.5801   -3.7311 O   0  5  0  0  0  0  0  0  0  0  0  0
    1.8814   -2.7208   -3.4685 O   0  0  0  0  0  0  0  0  0  0  0  0
   -0.3510    1.1947    0.8434 C   0  0  0  0  0  0  0  0  0  0  0  0
    0.5861    1.7379    1.4319 O   0  0  0  0  0  0  0  0  0  0  0  0
   -1.5267    1.8100    0.6614 N   0  0  0  0  0  0  0  0  0  0  0  0
   -2.2644    1.2829    0.2182 H   0  0  0  0  0  0  0  0  0  0  0  0
   -1.8407    3.1442    1.1661 C   0  0  0  0  0  0  0  0  0  0  0  0
   -1.0600    3.8449    0.8653 H   0  0  0  0  0  0  0  0  0  0  0  0
   -2.8017    3.4781    0.7722 H   0  0  0  0  0  0  0  0  0  0  0  0
   -1.8861    3.1177    2.2566 H   0  0  0  0  0  0  0  0  0  0  0  0
  5  6  2  0  0  0  0
  5  7  1  0  0  0  0
  2  3  1  0  0  0  0
  2  4  1  0  0  0  0
  2  5  1  0  0  0  0
  1  2  1  0  0  0  0
 20 21  2  0  0  0  0
 20 22  1  0  0  0  0
 17 18  1  0  0  0  0
 17 19  2  0  0  0  0
 14 15  1  0  0  0  0
 14 16  1  0  0  0  0
 14 17  1  0  0  0  0
 11 12  1  0  0  0  0
 11 13  1  0  0  0  0
 11 14  1  0  0  0  0
  9 10  1  0  0  0  0
  9 11  1  0  0  0  0
  9 20  1  0  0  0  0
  7  8  1  0  0  0  0
  7  9  1  0  0  0  0
 24 25  1  0  0  0  0
 24 26  1  0  0  0  0
 24 27  1  0  0  0  0
 22 23  1  0  0  0  0
 22 24  1  0  0  0  0
M  CHG  1  18  -1
M  END
$$$$
default_name
  -OEChem-01062215323D

 27 26  0     1  0  0  0  0  0999 V2000
   -3.2406   -3.5400    1.2326 H   0  0  0  0  0  0  0  0  0  0  0  0
   -3.1436   -2.6190    0.6606 C   0  0  0  0  0  0  0  0  0  0  0  0
   -3.8786   -1.8920    0.9996 H   0  0  0  0  0  0  0  0  0  0  0  0
   -3.2846   -2.8280   -0.3984 H   0  0  0  0  0  0  0  0  0  0  0  0
   -1.7586   -2.0580    0.8686 C   0  0  0  0  0  0  0  0  0  0  0  0
   -0.9666   -2.6340    1.6026 O   0  0  0  0  0  0  0  0  0  0  0  0
   -1.4866   -0.9220    0.2366 N   0  0  0  0  0  0  0  0  0  0  0  0
   -2.2166   -0.4790   -0.2994 H   0  0  0  0  0  0  0  0  0  0  0  0
   -0.1956   -0.2250    0.2596 C   0  0  1  0  0  0  0  0  0  0  0  0
    0.4876   -0.7722    0.9098 H   0  0  0  0  0  0  0  0  0  0  0  0
    0.4077   -0.2317   -1.1594 C   0  0  0  0  0  0  0  0  0  0  0  0
   -0.3397    0.1719   -1.8444 H   0  0  0  0  0  0  0  0  0  0  0  0
    1.2828    0.4194   -1.1818 H   0  0  0  0  0  0  0  0  0  0  0  0
    0.8094   -1.6338   -1.6473 C   0  0  0  0  0  0  0  0  0  0  0  0
    1.5535   -2.0502   -0.9640 H   0  0  0  0  0  0  0  0  0  0  0  0
   -0.0752   -2.2752   -1.6138 H   0  0  0  0  0  0  0  0  0  0  0  0
    1.3876   -1.6425   -3.0702 C   0  0  0  0  0  0  0  0  0  0  0  0
    1.3549   -0.5801   -3.7311 O   0  5  0  0  0  0  0  0  0  0  0  0
    1.8814   -2.7208   -3.4685 O   0  0  0  0  0  0  0  0  0  0  0  0
   -0.3510    1.1947    0.8434 C   0  0  0  0  0  0  0  0  0  0  0  0
    0.6390    1.8462    1.1826 O   0  0  0  0  0  0  0  0  0  0  0  0
   -1.5924    1.6885    0.9395 N   0  0  0  0  0  0  0  0  0  0  0  0
   -2.3569    1.0774    0.6934 H   0  0  0  0  0  0  0  0  0  0  0  0
   -1.9111    3.0051    1.4857 C   0  0  0  0  0  0  0  0  0  0  0  0
   -1.2987    3.7647    0.9967 H   0  0  0  0  0  0  0  0  0  0  0  0
   -2.9667    3.2312    1.3287 H   0  0  0  0  0  0  0  0  0  0  0  0
   -1.6940    3.0158    2.5555 H   0  0  0  0  0  0  0  0  0  0  0  0
  5  6  2  0  0  0  0
  5  7  1  0  0  0  0
  2  3  1  0  0  0  0
  2  4  1  0  0  0  0
  2  5  1  0  0  0  0
  1  2  1  0  0  0  0
 20 21  2  0  0  0  0
 20 22  1  0  0  0  0
 17 18  1  0  0  0  0
 17 19  2  0  0  0  0
 14 15  1  0  0  0  0
 14 16  1  0  0  0  0
 14 17  1  0  0  0  0
 11 12  1  0  0  0  0
 11 13  1  0  0  0  0
 11 14  1  0  0  0  0
  9 10  1  0  0  0  0
  9 11  1  0  0  0  0
  9 20  1  0  0  0  0
  7  8  1  0  0  0  0
  7  9  1  0  0  0  0
 24 25  1  0  0  0  0
 24 26  1  0  0  0  0
 24 27  1  0  0  0  0
 22 23  1  0  0  0  0
 22 24  1  0  0  0  0
M  CHG  1  18  -1
M  END
$$$$
default_name
  -OEChem-01062215323D

 27 26  0     1  0  0  0  0  0999 V2000
   -3.2406   -3.5400    1.2326 H   0  0  0  0  0  0  0  0  0  0  0  0
   -3.1436   -2.6190    0.6606 C   0  0  0  0  0  0  0  0  0  0  0  0
   -3.8786   -1.8920    0.9996 H   0  0  0  0  0  0  0  0  0  0  0  0
   -3.2846   -2.8280   -0.3984 H   0  0  0  0  0  0  0  0  0  0  0  0
   -1.7586   -2.0580    0.8686 C   0  0  0  0  0  0  0  0  0  0  0  0
   -0.9666   -2.6340    1.6026 O   0  0  0  0  0  0  0  0  0  0  0  0
   -1.4866   -0.9220    0.2366 N   0  0  0  0  0  0  0  0  0  0  0  0
   -2.2166   -0.4790   -0.2994 H   0  0  0  0  0  0  0  0  0  0  0  0
   -0.1956   -0.2250    0.2596 C   0  0  1  0  0  0  0  0  0  0  0  0
    0.4876   -0.7722    0.9098 H   0  0  0  0  0  0  0  0  0  0  0  0
    0.4077   -0.2317   -1.1594 C   0  0  0  0  0  0  0  0  0  0  0  0
   -0.3397    0.1719   -1.8444 H   0  0  0  0  0  0  0  0  0  0  0  0
    1.2828    0.4194   -1.1818 H   0  0  0  0  0  0  0  0  0  0  0  0
    0.8094   -1.6338   -1.6473 C   0  0  0  0  0  0  0  0  0  0  0  0
    1.5535   -2.0502   -0.9640 H   0  0  0  0  0  0  0  0  0  0  0  0
   -0.0752   -2.2752   -1.6138 H   0  0  0  0  0  0  0  0  0  0  0  0
    1.3876   -1.6425   -3.0702 C   0  0  0  0  0  0  0  0  0  0  0  0
    1.3549   -0.5801   -3.7311 O   0  5  0  0  0  0  0  0  0  0  0  0
    1.8814   -2.7208   -3.4685 O   0  0  0  0  0  0  0  0  0  0  0  0
   -0.3510    1.1947    0.8434 C   0  0  0  0  0  0  0  0  0  0  0  0
    0.6201    1.9495    0.9264 O   0  0  0  0  0  0  0  0  0  0  0  0
   -1.5776    1.5719    1.2270 N   0  0  0  0  0  0  0  0  0  0  0  0
   -2.3129    0.8822    1.1797 H   0  0  0  0  0  0  0  0  0  0  0  0
   -1.8894    2.8722    1.8147 C   0  0  0  0  0  0  0  0  0  0  0  0
   -1.4902    3.6673    1.1826 H   0  0  0  0  0  0  0  0  0  0  0  0
   -2.9694    2.9911    1.9119 H   0  0  0  0  0  0  0  0  0  0  0  0
   -1.4272    2.9440    2.8012 H   0  0  0  0  0  0  0  0  0  0  0  0
  5  6  2  0  0  0  0
  5  7  1  0  0  0  0
  2  3  1  0  0  0  0
  2  4  1  0  0  0  0
  2  5  1  0  0  0  0
  1  2  1  0  0  0  0
 20 21  2  0  0  0  0
 20 22  1  0  0  0  0
 17 18  1  0  0  0  0
 17 19  2  0  0  0  0
 14 15  1  0  0  0  0
 14 16  1  0  0  0  0
 14 17  1  0  0  0  0
 11 12  1  0  0  0  0
 11 13  1  0  0  0  0
 11 14  1  0  0  0  0
  9 10  1  0  0  0  0
  9 11  1  0  0  0  0
  9 20  1  0  0  0  0
  7  8  1  0  0  0  0
  7  9  1  0  0  0  0
 24 25  1  0  0  0  0
 24 26  1  0  0  0  0
 24 27  1  0  0  0  0
 22 23  1  0  0  0  0
 22 24  1  0  0  0  0
M  CHG  1  18  -1
M  END
$$$$
default_name
  -OEChem-01062215323D

 27 26  0     1  0  0  0  0  0999 V2000
   -3.2406   -3.5400    1.2326 H   0  0  0  0  0  0  0  0  0  0  0  0
   -3.1436   -2.6190    0.6606 C   0  0  0  0  0  0  0  0  0  0  0  0
   -3.8786   -1.8920    0.9996 H   0  0  0  0  0  0  0  0  0  0  0  0
   -3.2846   -2.8280   -0.3984 H   0  0  0  0  0  0  0  0  0  0  0  0
   -1.7586   -2.0580    0.8686 C   0  0  0  0  0  0  0  0  0  0  0  0
   -0.9666   -2.6340    1.6026 O   0  0  0  0  0  0  0  0  0  0  0  0
   -1.4866   -0.9220    0.2366 N   0  0  0  0  0  0  0  0  0  0  0  0
   -2.2166   -0.4790   -0.2994 H   0  0  0  0  0  0  0  0  0  0  0  0
   -0.1956   -0.2250    0.2596 C   0  0  1  0  0  0  0  0  0  0  0  0
    0.4876   -0.7722    0.9098 H   0  0  0  0  0  0  0  0  0  0  0  0
    0.4077   -0.2317   -1.1594 C   0  0  0  0  0  0  0  0  0  0  0  0
   -0.3397    0.1719   -1.8444 H   0  0  0  0  0  0  0  0  0  0  0  0
    1.2828    0.4194   -1.1818 H   0  0  0  0  0  0  0  0  0  0  0  0
    0.8094   -1.6338   -1.6473 C   0  0  0  0  0  0  0  0  0  0  0  0
    1.5535   -2.0502   -0.9640 H   0  0  0  0  0  0  0  0  0  0  0  0
   -0.0752   -2.2752   -1.6138 H   0  0  0  0  0  0  0  0  0  0  0  0
    1.3876   -1.6425   -3.0702 C   0  0  0  0  0  0  0  0  0  0  0  0
    1.3549   -0.5801   -3.7311 O   0  5  0  0  0  0  0  0  0  0  0  0
    1.8814   -2.7208   -3.4685 O   0  0  0  0  0  0  0  0  0  0  0  0
   -0.3510    1.1947    0.8434 C   0  0  0  0  0  0  0  0  0  0  0  0
    0.5307    2.0407    0.6807 O   0  0  0  0  0  0  0  0  0  0  0  0
   -1.4836    1.4683    1.5041 N   0  0  0  0  0  0  0  0  0  0  0  0
   -2.1355    0.7107    1.6441 H   0  0  0  0  0  0  0  0  0  0  0  0
   -1.7770    2.7545    2.1309 C   0  0  0  0  0  0  0  0  0  0  0  0
   -1.6214    3.5593    1.4103 H   0  0  0  0  0  0  0  0  0  0  0  0
   -2.8096    2.7742    2.4821 H   0  0  0  0  0  0  0  0  0  0  0  0
   -1.1040    2.9072    2.9769 H   0  0  0  0  0  0  0  0  0  0  0  0
  5  6  2  0  0  0  0
  5  7  1  0  0  0  0
  2  3  1  0  0  0  0
  2  4  1  0  0  0  0
  2  5  1  0  0  0  0
  1  2  1  0  0  0  0
 20 21  2  0  0  0  0
 20 22  1  0  0  0  0
 17 18  1  0  0  0  0
 17 19  2  0  0  0  0
 14 15  1  0  0  0  0
 14 16  1  0  0  0  0
 14 17  1  0  0  0  0
 11 12  1  0  0  0  0
 11 13  1  0  0  0  0
 11 14  1  0  0  0  0
  9 10  1  0  0  0  0
  9 11  1  0  0  0  0
  9 20  1  0  0  0  0
  7  8  1  0  0  0  0
  7  9  1  0  0  0  0
 24 25  1  0  0  0  0
 24 26  1  0  0  0  0
 24 27  1  0  0  0  0
 22 23  1  0  0  0  0
 22 24  1  0  0  0  0
M  CHG  1  18  -1
M  END
$$$$
default_name
  -OEChem-01062215323D

 27 26  0     1  0  0  0  0  0999 V2000
   -3.2406   -3.5400    1.2326 H   0  0  0  0  0  0  0  0  0  0  0  0
   -3.1436   -2.6190    0.6606 C   0  0  0  0  0  0  0  0  0  0  0  0
   -3.8786   -1.8920    0.9996 H   0  0  0  0  0  0  0  0  0  0  0  0
   -3.2846   -2.8280   -0.3984 H   0  0  0  0  0  0  0  0  0  0  0  0
   -1.7586   -2.0580    0.8686 C   0  0  0  0  0  0  0  0  0  0  0  0
   -0.9666   -2.6340    1.6026 O   0  0  0  0  0  0  0  0  0  0  0  0
   -1.4866   -0.9220    0.2366 N   0  0  0  0  0  0  0  0  0  0  0  0
   -2.2166   -0.4790   -0.2994 H   0  0  0  0  0  0  0  0  0  0  0  0
   -0.1956   -0.2250    0.2596 C   0  0  1  0  0  0  0  0  0  0  0  0
    0.4876   -0.7722    0.9098 H   0  0  0  0  0  0  0  0  0  0  0  0
    0.4077   -0.2317   -1.1594 C   0  0  0  0  0  0  0  0  0  0  0  0
   -0.3397    0.1719   -1.8444 H   0  0  0  0  0  0  0  0  0  0  0  0
    1.2828    0.4194   -1.1818 H   0  0  0  0  0  0  0  0  0  0  0  0
    0.8094   -1.6338   -1.6473 C   0  0  0  0  0  0  0  0  0  0  0  0
    1.5535   -2.0502   -0.9640 H   0  0  0  0  0  0  0  0  0  0  0  0
   -0.0752   -2.2752   -1.6138 H   0  0  0  0  0  0  0  0  0  0  0  0
    1.3876   -1.6425   -3.0702 C   0  0  0  0  0  0  0  0  0  0  0  0
    1.3549   -0.5801   -3.7311 O   0  5  0  0  0  0  0  0  0  0  0  0
    1.8814   -2.7208   -3.4685 O   0  0  0  0  0  0  0  0  0  0  0  0
   -0.3510    1.1947    0.8434 C   0  0  0  0  0  0  0  0  0  0  0  0
    0.3769    2.1137    0.4623 O   0  0  0  0  0  0  0  0  0  0  0  0
   -1.3165    1.3846    1.7521 N   0  0  0  0  0  0  0  0  0  0  0  0
   -1.8367    0.5746    2.0549 H   0  0  0  0  0  0  0  0  0  0  0  0
   -1.5816    2.6601    2.4125 C   0  0  0  0  0  0  0  0  0  0  0  0
   -1.6833    3.4481    1.6643 H   0  0  0  0  0  0  0  0  0  0  0  0
   -2.4982    2.5951    3.0005 H   0  0  0  0  0  0  0  0  0  0  0  0
   -0.7464    2.9078    3.0705 H   0  0  0  0  0  0  0  0  0  0  0  0
  5  6  2  0  0  0  0
  5  7  1  0  0  0  0
  2  3  1  0  0  0  0
  2  4  1  0  0  0  0
  2  5  1  0  0  0  0
  1  2  1  0  0  0  0
 20 21  2  0  0  0  0
 20 22  1  0  0  0  0
 17 18  1  0  0  0  0
 17 19  2  0  0  0  0
 14 15  1  0  0  0  0
 14 16  1  0  0  0  0
 14 17  1  0  0  0  0
 11 12  1  0  0  0  0
 11 13  1  0  0  0  0
 11 14  1  0  0  0  0
  9 10  1  0  0  0  0
  9 11  1  0  0  0  0
  9 20  1  0  0  0  0
  7  8  1  0  0  0  0
  7  9  1  0  0  0  0
 24 25  1  0  0  0  0
 24 26  1  0  0  0  0
 24 27  1  0  0  0  0
 22 23  1  0  0  0  0
 22 24  1  0  0  0  0
M  CHG  1  18  -1
M  END
$$$$
default_name
  -OEChem-01062215323D

 27 26  0     1  0  0  0  0  0999 V2000
   -3.2406   -3.5400    1.2326 H   0  0  0  0  0  0  0  0  0  0  0  0
   -3.1436   -2.6190    0.6606 C   0  0  0  0  0  0  0  0  0  0  0  0
   -3.8786   -1.8920    0.9996 H   0  0  0  0  0  0  0  0  0  0  0  0
   -3.2846   -2.8280   -0.3984 H   0  0  0  0  0  0  0  0  0  0  0  0
   -1.7586   -2.0580    0.8686 C   0  0  0  0  0  0  0  0  0  0  0  0
   -0.9666   -2.6340    1.6026 O   0  0  0  0  0  0  0  0  0  0  0  0
   -1.4866   -0.9220    0.2366 N   0  0  0  0  0  0  0  0  0  0  0  0
   -2.2166   -0.4790   -0.2994 H   0  0  0  0  0  0  0  0  0  0  0  0
   -0.1956   -0.2250    0.2596 C   0  0  1  0  0  0  0  0  0  0  0  0
    0.4876   -0.7722    0.9098 H   0  0  0  0  0  0  0  0  0  0  0  0
    0.4077   -0.2317   -1.1594 C   0  0  0  0  0  0  0  0  0  0  0  0
   -0.3397    0.1719   -1.8444 H   0  0  0  0  0  0  0  0  0  0  0  0
    1.2828    0.4194   -1.1818 H   0  0  0  0  0  0  0  0  0  0  0  0
    0.8094   -1.6338   -1.6473 C   0  0  0  0  0  0  0  0  0  0  0  0
    1.5535   -2.0502   -0.9640 H   0  0  0  0  0  0  0  0  0  0  0  0
   -0.0752   -2.2752   -1.6138 H   0  0  0  0  0  0  0  0  0  0  0  0
    1.3876   -1.6425   -3.0702 C   0  0  0  0  0  0  0  0  0  0  0  0
    1.3549   -0.5801   -3.7311 O   0  5  0  0  0  0  0  0  0  0  0  0
    1.8814   -2.7208   -3.4685 O   0  0  0  0  0  0  0  0  0  0  0  0
   -0.3510    1.1947    0.8434 C   0  0  0  0  0  0  0  0  0  0  0  0
    0.1692    2.1634    0.2860 O   0  0  0  0  0  0  0  0  0  0  0  0
   -1.0879    1.3266    1.9541 N   0  0  0  0  0  0  0  0  0  0  0  0
   -1.4369    0.4830    2.3841 H   0  0  0  0  0  0  0  0  0  0  0  0
   -1.3165    2.5954    2.6405 C   0  0  0  0  0  0  0  0  0  0  0  0
   -1.6716    3.3412    1.9273 H   0  0  0  0  0  0  0  0  0  0  0  0
   -2.0564    2.4662    3.4318 H   0  0  0  0  0  0  0  0  0  0  0  0
   -0.3787    2.9459    3.0758 H   0  0  0  0  0  0  0  0  0  0  0  0
  5  6  2  0  0  0  0
  5  7  1  0  0  0  0
  2  3  1  0  0  0  0
  2  4  1  0  0  0  0
  2  5  1  0  0  0  0
  1  2  1  0  0  0  0
 20 21  2  0  0  0  0
 20 22  1  0  0  0  0
 17 18  1  0  0  0  0
 17 19  2  0  0  0  0
 14 15  1  0  0  0  0
 14 16  1  0  0  0  0
 14 17  1  0  0  0  0
 11 12  1  0  0  0  0
 11 13  1  0  0  0  0
 11 14  1  0  0  0  0
  9 10  1  0  0  0  0
  9 11  1  0  0  0  0
  9 20  1  0  0  0  0
  7  8  1  0  0  0  0
  7  9  1  0  0  0  0
 24 25  1  0  0  0  0
 24 26  1  0  0  0  0
 24 27  1  0  0  0  0
 22 23  1  0  0  0  0
 22 24  1  0  0  0  0
M  CHG  1  18  -1
M  END
$$$$
default_name
  -OEChem-01062215323D

 27 26  0     1  0  0  0  0  0999 V2000
   -3.2406   -3.5400    1.2326 H   0  0  0  0  0  0  0  0  0  0  0  0
   -3.1436   -2.6190    0.6606 C   0  0  0  0  0  0  0  0  0  0  0  0
   -3.8786   -1.8920    0.9996 H   0  0  0  0  0  0  0  0  0  0  0  0
   -3.2846   -2.8280   -0.3984 H   0  0  0  0  0  0  0  0  0  0  0  0
   -1.7586   -2.0580    0.8686 C   0  0  0  0  0  0  0  0  0  0  0  0
   -0.9666   -2.6340    1.6026 O   0  0  0  0  0  0  0  0  0  0  0  0
   -1.4866   -0.9220    0.2366 N   0  0  0  0  0  0  0  0  0  0  0  0
   -2.2166   -0.4790   -0.2994 H   0  0  0  0  0  0  0  0  0  0  0  0
   -0.1956   -0.2250    0.2596 C   0  0  1  0  0  0  0  0  0  0  0  0
    0.4876   -0.7722    0.9098 H   0  0  0  0  0  0  0  0  0  0  0  0
    0.4077   -0.2317   -1.1594 C   0  0  0  0  0  0  0  0  0  0  0  0
   -0.3397    0.1719   -1.8444 H   0  0  0  0  0  0  0  0  0  0  0  0
    1.2828    0.4194   -1.1818 H   0  0  0  0  0  0  0  0  0  0  0  0
    0.8094   -1.6338   -1.6473 C   0  0  0  0  0  0  0  0  0  0  0  0
    1.5535   -2.0502   -0.9640 H   0  0  0  0  0  0  0  0  0  0  0  0
   -0.0752   -2.2752   -1.6138 H   0  0  0  0  0  0  0  0  0  0  0  0
    1.3876   -1.6425   -3.0702 C   0  0  0  0  0  0  0  0  0  0  0  0
    1.3549   -0.5801   -3.7311 O   0  5  0  0  0  0  0  0  0  0  0  0
    1.8814   -2.7208   -3.4685 O   0  0  0  0  0  0  0  0  0  0  0  0
   -0.3510    1.1947    0.8434 C   0  0  0  0  0  0  0  0  0  0  0  0
   -0.0783    2.1865    0.1639 O   0  0  0  0  0  0  0  0  0  0  0  0
   -0.8133    1.2982    2.0962 N   0  0  0  0  0  0  0  0  0  0  0  0
   -0.9634    0.4423    2.6093 H   0  0  0  0  0  0  0  0  0  0  0  0
   -0.9999    2.5648    2.7994 C   0  0  0  0  0  0  0  0  0  0  0  0
   -1.5873    3.2460    2.1814 H   0  0  0  0  0  0  0  0  0  0  0  0
   -1.5143    2.3962    3.7465 H   0  0  0  0  0  0  0  0  0  0  0  0
   -0.0260    3.0189    2.9923 H   0  0  0  0  0  0  0  0  0  0  0  0
  5  6  2  0  0  0  0
  5  7  1  0  0  0  0
  2  3  1  0  0  0  0
  2  4  1  0  0  0  0
  2  5  1  0  0  0  0
  1  2  1  0  0  0  0
 20 21  2  0  0  0  0
 20 22  1  0  0  0  0
 17 18  1  0  0  0  0
 17 19  2  0  0  0  0
 14 15  1  0  0  0  0
 14 16  1  0  0  0  0
 14 17  1  0  0  0  0
 11 12  1  0  0  0  0
 11 13  1  0  0  0  0
 11 14  1  0  0  0  0
  9 10  1  0  0  0  0
  9 11  1  0  0  0  0
  9 20  1  0  0  0  0
  7  8  1  0  0  0  0
  7  9  1  0  0  0  0
 24 25  1  0  0  0  0
 24 26  1  0  0  0  0
 24 27  1  0  0  0  0
 22 23  1  0  0  0  0
 22 24  1  0  0  0  0
M  CHG  1  18  -1
M  END
$$$$
default_name
  -OEChem-01062215323D

 27 26  0     1  0  0  0  0  0999 V2000
   -3.2406   -3.5400    1.2326 H   0  0  0  0  0  0  0  0  0  0  0  0
   -3.1436   -2.6190    0.6606 C   0  0  0  0  0  0  0  0  0  0  0  0
   -3.8786   -1.8920    0.9996 H   0  0  0  0  0  0  0  0  0  0  0  0
   -3.2846   -2.8280   -0.3984 H   0  0  0  0  0  0  0  0  0  0  0  0
   -1.7586   -2.0580    0.8686 C   0  0  0  0  0  0  0  0  0  0  0  0
   -0.9666   -2.6340    1.6026 O   0  0  0  0  0  0  0  0  0  0  0  0
   -1.4866   -0.9220    0.2366 N   0  0  0  0  0  0  0  0  0  0  0  0
   -2.2166   -0.4790   -0.2994 H   0  0  0  0  0  0  0  0  0  0  0  0
   -0.1956   -0.2250    0.2596 C   0  0  1  0  0  0  0  0  0  0  0  0
    0.4876   -0.7722    0.9098 H   0  0  0  0  0  0  0  0  0  0  0  0
    0.4077   -0.2317   -1.1594 C   0  0  0  0  0  0  0  0  0  0  0  0
   -0.3397    0.1719   -1.8444 H   0  0  0  0  0  0  0  0  0  0  0  0
    1.2828    0.4194   -1.1818 H   0  0  0  0  0  0  0  0  0  0  0  0
    0.8094   -1.6338   -1.6473 C   0  0  0  0  0  0  0  0  0  0  0  0
    1.5535   -2.0502   -0.9640 H   0  0  0  0  0  0  0  0  0  0  0  0
   -0.0752   -2.2752   -1.6138 H   0  0  0  0  0  0  0  0  0  0  0  0
    1.3876   -1.6425   -3.0702 C   0  0  0  0  0  0  0  0  0  0  0  0
    1.3549   -0.5801   -3.7311 O   0  5  0  0  0  0  0  0  0  0  0  0
    1.8814   -2.7208   -3.4685 O   0  0  0  0  0  0  0  0  0  0  0  0
   -0.3510    1.1947    0.8434 C   0  0  0  0  0  0  0  0  0  0  0  0
   -0.3487    2.1814    0.1043 O   0  0  0  0  0  0  0  0  0  0  0  0
   -0.5114    1.3014    2.1688 N   0  0  0  0  0  0  0  0  0  0  0  0
   -0.4485    0.4552    2.7151 H   0  0  0  0  0  0  0  0  0  0  0  0
   -0.6532    2.5704    2.8781 C   0  0  0  0  0  0  0  0  0  0  0  0
   -1.4360    3.1689    2.4092 H   0  0  0  0  0  0  0  0  0  0  0  0
   -0.9089    2.3898    3.9232 H   0  0  0  0  0  0  0  0  0  0  0  0
    0.2876    3.1217    2.8258 H   0  0  0  0  0  0  0  0  0  0  0  0
  5  6  2  0  0  0  0
  5  7  1  0  0  0  0
  2  3  1  0  0  0  0
  2  4  1  0  0  0  0
  2  5  1  0  0  0  0
  1  2  1  0  0  0  0
 20 21  2  0  0  0  0
 20 22  1  0  0  0  0
 17 18  1  0  0  0  0
 17 19  2  0  0  0  0
 14 15  1  0  0  0  0
 14 16  1  0  0  0  0
 14 17  1  0  0  0  0
 11 12  1  0  0  0  0
 11 13  1  0  0  0  0
 11 14  1  0  0  0  0
  9 10  1  0  0  0  0
  9 11  1  0  0  0  0
  9 20  1  0  0  0  0
  7  8  1  0  0  0  0
  7  9  1  0  0  0  0
 24 25  1  0  0  0  0
 24 26  1  0  0  0  0
 24 27  1  0  0  0  0
 22 23  1  0  0  0  0
 22 24  1  0  0  0  0
M  CHG  1  18  -1
M  END
$$$$
default_name
  -OEChem-01062215323D

 27 26  0     1  0  0  0  0  0999 V2000
   -3.2406   -3.5400    1.2326 H   0  0  0  0  0  0  0  0  0  0  0  0
   -3.1436   -2.6190    0.6606 C   0  0  0  0  0  0  0  0  0  0  0  0
   -3.8786   -1.8920    0.9996 H   0  0  0  0  0  0  0  0  0  0  0  0
   -3.2846   -2.8280   -0.3984 H   0  0  0  0  0  0  0  0  0  0  0  0
   -1.7586   -2.0580    0.8686 C   0  0  0  0  0  0  0  0  0  0  0  0
   -0.9666   -2.6340    1.6026 O   0  0  0  0  0  0  0  0  0  0  0  0
   -1.4866   -0.9220    0.2366 N   0  0  0  0  0  0  0  0  0  0  0  0
   -2.2166   -0.4790   -0.2994 H   0  0  0  0  0  0  0  0  0  0  0  0
   -0.1956   -0.2250    0.2596 C   0  0  1  0  0  0  0  0  0  0  0  0
    0.4876   -0.7722    0.9098 H   0  0  0  0  0  0  0  0  0  0  0  0
    0.4077   -0.2317   -1.1594 C   0  0  0  0  0  0  0  0  0  0  0  0
   -0.3397    0.1719   -1.8444 H   0  0  0  0  0  0  0  0  0  0  0  0
    1.2828    0.4194   -1.1818 H   0  0  0  0  0  0  0  0  0  0  0  0
    0.8094   -1.6338   -1.6473 C   0  0  0  0  0  0  0  0  0  0  0  0
    1.5535   -2.0502   -0.9640 H   0  0  0  0  0  0  0  0  0  0  0  0
   -0.0752   -2.2752   -1.6138 H   0  0  0  0  0  0  0  0  0  0  0  0
    1.3876   -1.6425   -3.0702 C   0  0  0  0  0  0  0  0  0  0  0  0
    1.3549   -0.5801   -3.7311 O   0  5  0  0  0  0  0  0  0  0  0  0
    1.8814   -2.7208   -3.4685 O   0  0  0  0  0  0  0  0  0  0  0  0
   -0.3510    1.1947    0.8434 C   0  0  0  0  0  0  0  0  0  0  0  0
   -0.6235    2.1484    0.1113 O   0  0  0  0  0  0  0  0  0  0  0  0
   -0.2029    1.3360    2.1670 N   0  0  0  0  0  0  0  0  0  0  0  0
    0.0729    0.5208    2.6943 H   0  0  0  0  0  0  0  0  0  0  0  0
   -0.3001    2.6118    2.8715 C   0  0  0  0  0  0  0  0  0  0  0  0
   -1.2281    3.1152    2.5952 H   0  0  0  0  0  0  0  0  0  0  0  0
   -0.2814    2.4476    3.9498 H   0  0  0  0  0  0  0  0  0  0  0  0
    0.5409    3.2474    2.5876 H   0  0  0  0  0  0  0  0  0  0  0  0
  5  6  2  0  0  0  0
  5  7  1  0  0  0  0
  2  3  1  0  0  0  0
  2  4  1  0  0  0  0
  2  5  1  0  0  0  0
  1  2  1  0  0  0  0
 20 21  2  0  0  0  0
 20 22  1  0  0  0  0
 17 18  1  0  0  0  0
 17 19  2  0  0  0  0
 14 15  1  0  0  0  0
 14 16  1  0  0  0  0
 14 17  1  0  0  0  0
 11 12  1  0  0  0  0
 11 13  1  0  0  0  0
 11 14  1  0  0  0  0
  9 10  1  0  0  0  0
  9 11  1  0  0  0  0
  9 20  1  0  0  0  0
  7  8  1  0  0  0  0
  7  9  1  0  0  0  0
 24 25  1  0  0  0  0
 24 26  1  0  0  0  0
 24 27  1  0  0  0  0
 22 23  1  0  0  0  0
 22 24  1  0  0  0  0
M  CHG  1  18  -1
M  END
$$$$
default_name
  -OEChem-01062215323D

 27 26  0     1  0  0  0  0  0999 V2000
   -3.2406   -3.5400    1.2326 H   0  0  0  0  0  0  0  0  0  0  0  0
   -3.1436   -2.6190    0.6606 C   0  0  0  0  0  0  0  0  0  0  0  0
   -3.8786   -1.8920    0.9996 H   0  0  0  0  0  0  0  0  0  0  0  0
   -3.2846   -2.8280   -0.3984 H   0  0  0  0  0  0  0  0  0  0  0  0
   -1.7586   -2.0580    0.8686 C   0  0  0  0  0  0  0  0  0  0  0  0
   -0.9666   -2.6340    1.6026 O   0  0  0  0  0  0  0  0  0  0  0  0
   -1.4866   -0.9220    0.2366 N   0  0  0  0  0  0  0  0  0  0  0  0
   -2.2166   -0.4790   -0.2994 H   0  0  0  0  0  0  0  0  0  0  0  0
   -0.1956   -0.2250    0.2596 C   0  0  1  0  0  0  0  0  0  0  0  0
    0.4876   -0.7722    0.9098 H   0  0  0  0  0  0  0  0  0  0  0  0
    0.4077   -0.2317   -1.1594 C   0  0  0  0  0  0  0  0  0  0  0  0
   -0.3397    0.1719   -1.8444 H   0  0  0  0  0  0  0  0  0  0  0  0
    1.2828    0.4194   -1.1818 H   0  0  0  0  0  0  0  0  0  0  0  0
    0.8094   -1.6338   -1.6473 C   0  0  0  0  0  0  0  0  0  0  0  0
    1.5535   -2.0502   -0.9640 H   0  0  0  0  0  0  0  0  0  0  0  0
   -0.0752   -2.2752   -1.6138 H   0  0  0  0  0  0  0  0  0  0  0  0
    1.3876   -1.6425   -3.0702 C   0  0  0  0  0  0  0  0  0  0  0  0
    1.3549   -0.5801   -3.7311 O   0  5  0  0  0  0  0  0  0  0  0  0
    1.8814   -2.7208   -3.4685 O   0  0  0  0  0  0  0  0  0  0  0  0
   -0.3510    1.1947    0.8434 C   0  0  0  0  0  0  0  0  0  0  0  0
   -0.8841    2.0898    0.1844 O   0  0  0  0  0  0  0  0  0  0  0  0
    0.0914    1.3995    2.0909 N   0  0  0  0  0  0  0  0  0  0  0  0
    0.5651    0.6347    2.5483 H   0  0  0  0  0  0  0  0  0  0  0  0
    0.0353    2.6861    2.7800 C   0  0  0  0  0  0  0  0  0  0  0  0
   -0.9777    3.0885    2.7268 H   0  0  0  0  0  0  0  0  0  0  0  0
    0.3254    2.5655    3.8246 H   0  0  0  0  0  0  0  0  0  0  0  0
    0.7164    3.3874    2.2939 H   0  0  0  0  0  0  0  0  0  0  0  0
  5  6  2  0  0  0  0
  5  7  1  0  0  0  0
  2  3  1  0  0  0  0
  2  4  1  0  0  0  0
  2  5  1  0  0  0  0
  1  2  1  0  0  0  0
 20 21  2  0  0  0  0
 20 22  1  0  0  0  0
 17 18  1  0  0  0  0
 17 19  2  0  0  0  0
 14 15  1  0  0  0  0
 14 16  1  0  0  0  0
 14 17  1  0  0  0  0
 11 12  1  0  0  0  0
 11 13  1  0  0  0  0
 11 14  1  0  0  0  0
  9 10  1  0  0  0  0
  9 11  1  0  0  0  0
  9 20  1  0  0  0  0
  7  8  1  0  0  0  0
  7  9  1  0  0  0  0
 24 25  1  0  0  0  0
 24 26  1  0  0  0  0
 24 27  1  0  0  0  0
 22 23  1  0  0  0  0
 22 24  1  0  0  0  0
M  CHG  1  18  -1
M  END
$$$$
default_name
  -OEChem-01062215323D

 27 26  0     1  0  0  0  0  0999 V2000
   -3.2406   -3.5400    1.2326 H   0  0  0  0  0  0  0  0  0  0  0  0
   -3.1436   -2.6190    0.6606 C   0  0  0  0  0  0  0  0  0  0  0  0
   -3.8786   -1.8920    0.9996 H   0  0  0  0  0  0  0  0  0  0  0  0
   -3.2846   -2.8280   -0.3984 H   0  0  0  0  0  0  0  0  0  0  0  0
   -1.7586   -2.0580    0.8686 C   0  0  0  0  0  0  0  0  0  0  0  0
   -0.9666   -2.6340    1.6026 O   0  0  0  0  0  0  0  0  0  0  0  0
   -1.4866   -0.9220    0.2366 N   0  0  0  0  0  0  0  0  0  0  0  0
   -2.2166   -0.4790   -0.2994 H   0  0  0  0  0  0  0  0  0  0  0  0
   -0.1956   -0.2250    0.2596 C   0  0  1  0  0  0  0  0  0  0  0  0
    0.4876   -0.7722    0.9098 H   0  0  0  0  0  0  0  0  0  0  0  0
    0.4077   -0.2317   -1.1594 C   0  0  0  0  0  0  0  0  0  0  0  0
   -0.3397    0.1719   -1.8444 H   0  0  0  0  0  0  0  0  0  0  0  0
    1.2828    0.4194   -1.1818 H   0  0  0  0  0  0  0  0  0  0  0  0
    0.8094   -1.6338   -1.6473 C   0  0  0  0  0  0  0  0  0  0  0  0
    1.5535   -2.0502   -0.9640 H   0  0  0  0  0  0  0  0  0  0  0  0
   -0.0752   -2.2752   -1.6138 H   0  0  0  0  0  0  0  0  0  0  0  0
    1.3876   -1.6425   -3.0702 C   0  0  0  0  0  0  0  0  0  0  0  0
    1.3549   -0.5801   -3.7311 O   0  5  0  0  0  0  0  0  0  0  0  0
    1.8814   -2.7208   -3.4685 O   0  0  0  0  0  0  0  0  0  0  0  0
   -0.3510    1.1947    0.8434 C   0  0  0  0  0  0  0  0  0  0  0  0
   -1.1127    2.0096    0.3185 O   0  0  0  0  0  0  0  0  0  0  0  0
    0.3512    1.4877    1.9456 N   0  0  0  0  0  0  0  0  0  0  0  0
    0.9946    0.7892    2.2871 H   0  0  0  0  0  0  0  0  0  0  0  0
    0.3302    2.7885    2.6097 C   0  0  0  0  0  0  0  0  0  0  0  0
   -0.7019    3.0907    2.7949 H   0  0  0  0  0  0  0  0  0  0  0  0
    0.8702    2.7356    3.5561 H   0  0  0  0  0  0  0  0  0  0  0  0
    0.8024    3.5321    1.9648 H   0  0  0  0  0  0  0  0  0  0  0  0
  5  6  2  0  0  0  0
  5  7  1  0  0  0  0
  2  3  1  0  0  0  0
  2  4  1  0  0  0  0
  2  5  1  0  0  0  0
  1  2  1  0  0  0  0
 20 21  2  0  0  0  0
 20 22  1  0  0  0  0
 17 18  1  0  0  0  0
 17 19  2  0  0  0  0
 14 15  1  0  0  0  0
 14 16  1  0  0  0  0
 14 17  1  0  0  0  0
 11 12  1  0  0  0  0
 11 13  1  0  0  0  0
 11 14  1  0  0  0  0
  9 10  1  0  0  0  0
  9 11  1  0  0  0  0
  9 20  1  0  0  0  0
  7  8  1  0  0  0  0
  7  9  1  0  0  0  0
 24 25  1  0  0  0  0
 24 26  1  0  0  0  0
 24 27  1  0  0  0  0
 22 23  1  0  0  0  0
 22 24  1  0  0  0  0
M  CHG  1  18  -1
M  END
$$$$
default_name
  -OEChem-01062215323D

 27 26  0     1  0  0  0  0  0999 V2000
   -3.2406   -3.5400    1.2326 H   0  0  0  0  0  0  0  0  0  0  0  0
   -3.1436   -2.6190    0.6606 C   0  0  0  0  0  0  0  0  0  0  0  0
   -3.8786   -1.8920    0.9996 H   0  0  0  0  0  0  0  0  0  0  0  0
   -3.2846   -2.8280   -0.3984 H   0  0  0  0  0  0  0  0  0  0  0  0
   -1.7586   -2.0580    0.8686 C   0  0  0  0  0  0  0  0  0  0  0  0
   -0.9666   -2.6340    1.6026 O   0  0  0  0  0  0  0  0  0  0  0  0
   -1.4866   -0.9220    0.2366 N   0  0  0  0  0  0  0  0  0  0  0  0
   -2.2166   -0.4790   -0.2994 H   0  0  0  0  0  0  0  0  0  0  0  0
   -0.1956   -0.2250    0.2596 C   0  0  1  0  0  0  0  0  0  0  0  0
    0.4876   -0.7722    0.9098 H   0  0  0  0  0  0  0  0  0  0  0  0
    0.4077   -0.2317   -1.1594 C   0  0  0  0  0  0  0  0  0  0  0  0
   -0.3397    0.1719   -1.8444 H   0  0  0  0  0  0  0  0  0  0  0  0
    1.2828    0.4194   -1.1818 H   0  0  0  0  0  0  0  0  0  0  0  0
    0.8094   -1.6338   -1.6473 C   0  0  0  0  0  0  0  0  0  0  0  0
    1.5535   -2.0502   -0.9640 H   0  0  0  0  0  0  0  0  0  0  0  0
   -0.0752   -2.2752   -1.6138 H   0  0  0  0  0  0  0  0  0  0  0  0
    1.3876   -1.6425   -3.0702 C   0  0  0  0  0  0  0  0  0  0  0  0
    1.3549   -0.5801   -3.7311 O   0  5  0  0  0  0  0  0  0  0  0  0
    1.8814   -2.7208   -3.4685 O   0  0  0  0  0  0  0  0  0  0  0  0
   -0.3510    1.1947    0.8434 C   0  0  0  0  0  0  0  0  0  0  0  0
   -1.2937    1.9133    0.5047 O   0  0  0  0  0  0  0  0  0  0  0  0
    0.5590    1.5945    1.7411 N   0  0  0  0  0  0  0  0  0  0  0  0
    1.3322    0.9736    1.9285 H   0  0  0  0  0  0  0  0  0  0  0  0
    0.5645    2.9117    2.3723 C   0  0  0  0  0  0  0  0  0  0  0  0
   -0.4195    3.1216    2.7950 H   0  0  0  0  0  0  0  0  0  0  0  0
    1.3158    2.9462    3.1626 H   0  0  0  0  0  0  0  0  0  0  0  0
    0.7928    3.6718    1.6226 H   0  0  0  0  0  0  0  0  0  0  0  0
  5  6  2  0  0  0  0
  5  7  1  0  0  0  0
  2  3  1  0  0  0  0
  2  4  1  0  0  0  0
  2  5  1  0  0  0  0
  1  2  1  0  0  0  0
 20 21  2  0  0  0  0
 20 22  1  0  0  0  0
 17 18  1  0  0  0  0
 17 19  2  0  0  0  0
 14 15  1  0  0  0  0
 14 16  1  0  0  0  0
 14 17  1  0  0  0  0
 11 12  1  0  0  0  0
 11 13  1  0  0  0  0
 11 14  1  0  0  0  0
  9 10  1  0  0  0  0
  9 11  1  0  0  0  0
  9 20  1  0  0  0  0
  7  8  1  0  0  0  0
  7  9  1  0  0  0  0
 24 25  1  0  0  0  0
 24 26  1  0  0  0  0
 24 27  1  0  0  0  0
 22 23  1  0  0  0  0
 22 24  1  0  0  0  0
M  CHG  1  18  -1
M  END
$$$$
default_name
  -OEChem-01062215323D

 27 26  0     1  0  0  0  0  0999 V2000
   -3.2406   -3.5400    1.2326 H   0  0  0  0  0  0  0  0  0  0  0  0
   -3.1436   -2.6190    0.6606 C   0  0  0  0  0  0  0  0  0  0  0  0
   -3.8786   -1.8920    0.9996 H   0  0  0  0  0  0  0  0  0  0  0  0
   -3.2846   -2.8280   -0.3984 H   0  0  0  0  0  0  0  0  0  0  0  0
   -1.7586   -2.0580    0.8686 C   0  0  0  0  0  0  0  0  0  0  0  0
   -0.9666   -2.6340    1.6026 O   0  0  0  0  0  0  0  0  0  0  0  0
   -1.4866   -0.9220    0.2366 N   0  0  0  0  0  0  0  0  0  0  0  0
   -2.2166   -0.4790   -0.2994 H   0  0  0  0  0  0  0  0  0  0  0  0
   -0.1956   -0.2250    0.2596 C   0  0  1  0  0  0  0  0  0  0  0  0
    0.4876   -0.7722    0.9098 H   0  0  0  0  0  0  0  0  0  0  0  0
    0.4077   -0.2317   -1.1594 C   0  0  0  0  0  0  0  0  0  0  0  0
   -0.3397    0.1719   -1.8444 H   0  0  0  0  0  0  0  0  0  0  0  0
    1.2828    0.4194   -1.1818 H   0  0  0  0  0  0  0  0  0  0  0  0
    0.8094   -1.6338   -1.6473 C   0  0  0  0  0  0  0  0  0  0  0  0
    1.5535   -2.0502   -0.9640 H   0  0  0  0  0  0  0  0  0  0  0  0
   -0.0752   -2.2752   -1.6138 H   0  0  0  0  0  0  0  0  0  0  0  0
    1.3876   -1.6425   -3.0702 C   0  0  0  0  0  0  0  0  0  0  0  0
    1.3549   -0.5801   -3.7311 O   0  5  0  0  0  0  0  0  0  0  0  0
    1.8814   -2.7208   -3.4685 O   0  0  0  0  0  0  0  0  0  0  0  0
   -0.3510    1.1947    0.8434 C   0  0  0  0  0  0  0  0  0  0  0  0
   -1.4148    1.8073    0.7300 O   0  0  0  0  0  0  0  0  0  0  0  0
    0.7005    1.7127    1.4913 N   0  0  0  0  0  0  0  0  0  0  0  0
    1.5548    1.1754    1.4969 H   0  0  0  0  0  0  0  0  0  0  0  0
    0.7222    3.0475    2.0840 C   0  0  0  0  0  0  0  0  0  0  0  0
   -0.1497    3.1791    2.7270 H   0  0  0  0  0  0  0  0  0  0  0  0
    1.6318    3.1830    2.6709 H   0  0  0  0  0  0  0  0  0  0  0  0
    0.6884    3.7968    1.2907 H   0  0  0  0  0  0  0  0  0  0  0  0
  5  6  2  0  0  0  0
  5  7  1  0  0  0  0
  2  3  1  0  0  0  0
  2  4  1  0  0  0  0
  2  5  1  0  0  0  0
  1  2  1  0  0  0  0
 20 21  2  0  0  0  0
 20 22  1  0  0  0  0
 17 18  1  0  0  0  0
 17 19  2  0  0  0  0
 14 15  1  0  0  0  0
 14 16  1  0  0  0  0
 14 17  1  0  0  0  0
 11 12  1  0  0  0  0
 11 13  1  0  0  0  0
 11 14  1  0  0  0  0
  9 10  1  0  0  0  0
  9 11  1  0  0  0  0
  9 20  1  0  0  0  0
  7  8  1  0  0  0  0
  7  9  1  0  0  0  0
 24 25  1  0  0  0  0
 24 26  1  0  0  0  0
 24 27  1  0  0  0  0
 22 23  1  0  0  0  0
 22 24  1  0  0  0  0
M  CHG  1  18  -1
M  END
$$$$
default_name
  -OEChem-01062215323D

 27 26  0     1  0  0  0  0  0999 V2000
   -3.2406   -3.5400    1.2326 H   0  0  0  0  0  0  0  0  0  0  0  0
   -3.1436   -2.6190    0.6606 C   0  0  0  0  0  0  0  0  0  0  0  0
   -3.8786   -1.8920    0.9996 H   0  0  0  0  0  0  0  0  0  0  0  0
   -3.2846   -2.8280   -0.3984 H   0  0  0  0  0  0  0  0  0  0  0  0
   -1.7586   -2.0580    0.8686 C   0  0  0  0  0  0  0  0  0  0  0  0
   -0.9666   -2.6340    1.6026 O   0  0  0  0  0  0  0  0  0  0  0  0
   -1.4866   -0.9220    0.2366 N   0  0  0  0  0  0  0  0  0  0  0  0
   -2.2166   -0.4790   -0.2994 H   0  0  0  0  0  0  0  0  0  0  0  0
   -0.1956   -0.2250    0.2596 C   0  0  1  0  0  0  0  0  0  0  0  0
    0.4876   -0.7722    0.9098 H   0  0  0  0  0  0  0  0  0  0  0  0
    0.4077   -0.2317   -1.1594 C   0  0  0  0  0  0  0  0  0  0  0  0
   -0.3397    0.1719   -1.8444 H   0  0  0  0  0  0  0  0  0  0  0  0
    1.2828    0.4194   -1.1818 H   0  0  0  0  0  0  0  0  0  0  0  0
    0.8094   -1.6338   -1.6473 C   0  0  0  0  0  0  0  0  0  0  0  0
    1.5535   -2.0502   -0.9640 H   0  0  0  0  0  0  0  0  0  0  0  0
   -0.0752   -2.2752   -1.6138 H   0  0  0  0  0  0  0  0  0  0  0  0
    1.3876   -1.6425   -3.0702 C   0  0  0  0  0  0  0  0  0  0  0  0
    1.3549   -0.5801   -3.7311 O   0  5  0  0  0  0  0  0  0  0  0  0
    1.8814   -2.7208   -3.4685 O   0  0  0  0  0  0  0  0  0  0  0  0
   -0.3510    1.1947    0.8434 C   0  0  0  0  0  0  0  0  0  0  0  0
   -1.4677    1.6990    0.9794 O   0  0  0  0  0  0  0  0  0  0  0  0
    0.7662    1.8343    1.2132 N   0  0  0  0  0  0  0  0  0  0  0  0
    1.6473    1.3809    1.0217 H   0  0  0  0  0  0  0  0  0  0  0  0
    0.7926    3.1866    1.7645 C   0  0  0  0  0  0  0  0  0  0  0  0
    0.0891    3.2593    2.5956 H   0  0  0  0  0  0  0  0  0  0  0  0
    1.7968    3.4299    2.1144 H   0  0  0  0  0  0  0  0  0  0  0  0
    0.4963    3.8987    0.9917 H   0  0  0  0  0  0  0  0  0  0  0  0
  5  6  2  0  0  0  0
  5  7  1  0  0  0  0
  2  3  1  0  0  0  0
  2  4  1  0  0  0  0
  2  5  1  0  0  0  0
  1  2  1  0  0  0  0
 20 21  2  0  0  0  0
 20 22  1  0  0  0  0
 17 18  1  0  0  0  0
 17 19  2  0  0  0  0
 14 15  1  0  0  0  0
 14 16  1  0  0  0  0
 14 17  1  0  0  0  0
 11 12  1  0  0  0  0
 11 13  1  0  0  0  0
 11 14  1  0  0  0  0
  9 10  1  0  0  0  0
  9 11  1  0  0  0  0
  9 20  1  0  0  0  0
  7  8  1  0  0  0  0
  7  9  1  0  0  0  0
 24 25  1  0  0  0  0
 24 26  1  0  0  0  0
 24 27  1  0  0  0  0
 22 23  1  0  0  0  0
 22 24  1  0  0  0  0
M  CHG  1  18  -1
M  END
$$$$
default_name
  -OEChem-01062215323D

 27 26  0     1  0  0  0  0  0999 V2000
   -3.2406   -3.5400    1.2326 H   0  0  0  0  0  0  0  0  0  0  0  0
   -3.1436   -2.6190    0.6606 C   0  0  0  0  0  0  0  0  0  0  0  0
   -3.8786   -1.8920    0.9996 H   0  0  0  0  0  0  0  0  0  0  0  0
   -3.2846   -2.8280   -0.3984 H   0  0  0  0  0  0  0  0  0  0  0  0
   -1.7586   -2.0580    0.8686 C   0  0  0  0  0  0  0  0  0  0  0  0
   -0.9666   -2.6340    1.6026 O   0  0  0  0  0  0  0  0  0  0  0  0
   -1.4866   -0.9220    0.2366 N   0  0  0  0  0  0  0  0  0  0  0  0
   -2.2166   -0.4790   -0.2994 H   0  0  0  0  0  0  0  0  0  0  0  0
   -0.1956   -0.2250    0.2596 C   0  0  1  0  0  0  0  0  0  0  0  0
    0.5570   -0.8932    0.6792 H   0  0  0  0  0  0  0  0  0  0  0  0
    0.2278    0.1023   -1.1865 C   0  0  0  0  0  0  0  0  0  0  0  0
   -0.5942    0.6373   -1.6645 H   0  0  0  0  0  0  0  0  0  0  0  0
    1.1001    0.7573   -1.1668 H   0  0  0  0  0  0  0  0  0  0  0  0
    0.5520   -1.1445   -2.0266 C   0  0  0  0  0  0  0  0  0  0  0  0
    1.3705   -1.6917   -1.5526 H   0  0  0  0  0  0  0  0  0  0  0  0
   -0.3282   -1.7928   -2.0321 H   0  0  0  0  0  0  0  0  0  0  0  0
    0.9501   -0.8187   -3.4738 C   0  0  0  0  0  0  0  0  0  0  0  0
    0.8469    0.3654   -3.8660 O   0  5  0  0  0  0  0  0  0  0  0  0
    1.3799   -1.7689   -4.1648 O   0  0  0  0  0  0  0  0  0  0  0  0
   -0.2633    1.0216    1.1662 C   0  0  0  0  0  0  0  0  0  0  0  0
   -1.3001    1.3028    1.7709 O   0  0  0  0  0  0  0  0  0  0  0  0
    0.8485    1.7592    1.2831 N   0  0  0  0  0  0  0  0  0  0  0  0
    1.6418    1.4988    0.7163 H   0  0  0  0  0  0  0  0  0  0  0  0
    0.9446    2.9762    2.0850 C   0  0  0  0  0  0  0  0  0  0  0  0
    0.5787    2.7818    3.0946 H   0  0  0  0  0  0  0  0  0  0  0  0
    1.9807    3.3144    2.1315 H   0  0  0  0  0  0  0  0  0  0  0  0
    0.3290    3.7569    1.6339 H   0  0  0  0  0  0  0  0  0  0  0  0
  5  6  2  0  0  0  0
  5  7  1  0  0  0  0
  2  3  1  0  0  0  0
  2  4  1  0  0  0  0
  2  5  1  0  0  0  0
  1  2  1  0  0  0  0
 20 21  2  0  0  0  0
 20 22  1  0  0  0  0
 17 18  1  0  0  0  0
 17 19  2  0  0  0  0
 14 15  1  0  0  0  0
 14 16  1  0  0  0  0
 14 17  1  0  0  0  0
 11 12  1  0  0  0  0
 11 13  1  0  0  0  0
 11 14  1  0  0  0  0
  9 10  1  0  0  0  0
  9 11  1  0  0  0  0
  9 20  1  0  0  0  0
  7  8  1  0  0  0  0
  7  9  1  0  0  0  0
 24 25  1  0  0  0  0
 24 26  1  0  0  0  0
 24 27  1  0  0  0  0
 22 23  1  0  0  0  0
 22 24  1  0  0  0  0
M  CHG  1  18  -1
M  END
$$$$
default_name
  -OEChem-01062215323D

 27 26  0     1  0  0  0  0  0999 V2000
   -3.2406   -3.5400    1.2326 H   0  0  0  0  0  0  0  0  0  0  0  0
   -3.1436   -2.6190    0.6606 C   0  0  0  0  0  0  0  0  0  0  0  0
   -3.8786   -1.8920    0.9996 H   0  0  0  0  0  0  0  0  0  0  0  0
   -3.2846   -2.8280   -0.3984 H   0  0  0  0  0  0  0  0  0  0  0  0
   -1.7586   -2.0580    0.8686 C   0  0  0  0  0  0  0  0  0  0  0  0
   -0.9666   -2.6340    1.6026 O   0  0  0  0  0  0  0  0  0  0  0  0
   -1.4866   -0.9220    0.2366 N   0  0  0  0  0  0  0  0  0  0  0  0
   -2.2166   -0.4790   -0.2994 H   0  0  0  0  0  0  0  0  0  0  0  0
   -0.1956   -0.2250    0.2596 C   0  0  1  0  0  0  0  0  0  0  0  0
    0.5570   -0.8932    0.6792 H   0  0  0  0  0  0  0  0  0  0  0  0
    0.2278    0.1023   -1.1865 C   0  0  0  0  0  0  0  0  0  0  0  0
   -0.5942    0.6373   -1.6645 H   0  0  0  0  0  0  0  0  0  0  0  0
    1.1001    0.7573   -1.1668 H   0  0  0  0  0  0  0  0  0  0  0  0
    0.5520   -1.1445   -2.0266 C   0  0  0  0  0  0  0  0  0  0  0  0
    1.3705   -1.6917   -1.5526 H   0  0  0  0  0  0  0  0  0  0  0  0
   -0.3282   -1.7928   -2.0321 H   0  0  0  0  0  0  0  0  0  0  0  0
    0.9501   -0.8187   -3.4738 C   0  0  0  0  0  0  0  0  0  0  0  0
    0.8469    0.3654   -3.8660 O   0  5  0  0  0  0  0  0  0  0  0  0
    1.3799   -1.7689   -4.1648 O   0  0  0  0  0  0  0  0  0  0  0  0
   -0.2633    1.0216    1.1662 C   0  0  0  0  0  0  0  0  0  0  0  0
   -1.1820    1.1597    1.9765 O   0  0  0  0  0  0  0  0  0  0  0  0
    0.7220    1.9215    1.0506 N   0  0  0  0  0  0  0  0  0  0  0  0
    1.4102    1.7681    0.3285 H   0  0  0  0  0  0  0  0  0  0  0  0
    0.7953    3.1607    1.8203 C   0  0  0  0  0  0  0  0  0  0  0  0
    0.6819    2.9412    2.8832 H   0  0  0  0  0  0  0  0  0  0  0  0
    1.7540    3.6525    1.6497 H   0  0  0  0  0  0  0  0  0  0  0  0
   -0.0130    3.8268    1.5122 H   0  0  0  0  0  0  0  0  0  0  0  0
  5  6  2  0  0  0  0
  5  7  1  0  0  0  0
  2  3  1  0  0  0  0
  2  4  1  0  0  0  0
  2  5  1  0  0  0  0
  1  2  1  0  0  0  0
 20 21  2  0  0  0  0
 20 22  1  0  0  0  0
 17 18  1  0  0  0  0
 17 19  2  0  0  0  0
 14 15  1  0  0  0  0
 14 16  1  0  0  0  0
 14 17  1  0  0  0  0
 11 12  1  0  0  0  0
 11 13  1  0  0  0  0
 11 14  1  0  0  0  0
  9 10  1  0  0  0  0
  9 11  1  0  0  0  0
  9 20  1  0  0  0  0
  7  8  1  0  0  0  0
  7  9  1  0  0  0  0
 24 25  1  0  0  0  0
 24 26  1  0  0  0  0
 24 27  1  0  0  0  0
 22 23  1  0  0  0  0
 22 24  1  0  0  0  0
M  CHG  1  18  -1
M  END
$$$$
default_name
  -OEChem-01062215323D

 27 26  0     1  0  0  0  0  0999 V2000
   -3.2406   -3.5400    1.2326 H   0  0  0  0  0  0  0  0  0  0  0  0
   -3.1436   -2.6190    0.6606 C   0  0  0  0  0  0  0  0  0  0  0  0
   -3.8786   -1.8920    0.9996 H   0  0  0  0  0  0  0  0  0  0  0  0
   -3.2846   -2.8280   -0.3984 H   0  0  0  0  0  0  0  0  0  0  0  0
   -1.7586   -2.0580    0.8686 C   0  0  0  0  0  0  0  0  0  0  0  0
   -0.9666   -2.6340    1.6026 O   0  0  0  0  0  0  0  0  0  0  0  0
   -1.4866   -0.9220    0.2366 N   0  0  0  0  0  0  0  0  0  0  0  0
   -2.2166   -0.4790   -0.2994 H   0  0  0  0  0  0  0  0  0  0  0  0
   -0.1956   -0.2250    0.2596 C   0  0  1  0  0  0  0  0  0  0  0  0
    0.5570   -0.8932    0.6792 H   0  0  0  0  0  0  0  0  0  0  0  0
    0.2278    0.1023   -1.1865 C   0  0  0  0  0  0  0  0  0  0  0  0
   -0.5942    0.6373   -1.6645 H   0  0  0  0  0  0  0  0  0  0  0  0
    1.1001    0.7573   -1.1668 H   0  0  0  0  0  0  0  0  0  0  0  0
    0.5520   -1.1445   -2.0266 C   0  0  0  0  0  0  0  0  0  0  0  0
    1.3705   -1.6917   -1.5526 H   0  0  0  0  0  0  0  0  0  0  0  0
   -0.3282   -1.7928   -2.0321 H   0  0  0  0  0  0  0  0  0  0  0  0
    0.9501   -0.8187   -3.4738 C   0  0  0  0  0  0  0  0  0  0  0  0
    0.8469    0.3654   -3.8660 O   0  5  0  0  0  0  0  0  0  0  0  0
    1.3799   -1.7689   -4.1648 O   0  0  0  0  0  0  0  0  0  0  0  0
   -0.2633    1.0216    1.1662 C   0  0  0  0  0  0  0  0  0  0  0  0
   -1.0032    1.0418    2.1520 O   0  0  0  0  0  0  0  0  0  0  0  0
    0.5265    2.0563    0.8506 N   0  0  0  0  0  0  0  0  0  0  0  0
    1.0644    1.9887   -0.0007 H   0  0  0  0  0  0  0  0  0  0  0  0
    0.5676    3.3131    1.5936 C   0  0  0  0  0  0  0  0  0  0  0  0
    0.7131    3.1084    2.6557 H   0  0  0  0  0  0  0  0  0  0  0  0
    1.3828    3.9390    1.2279 H   0  0  0  0  0  0  0  0  0  0  0  0
   -0.3794    3.8409    1.4654 H   0  0  0  0  0  0  0  0  0  0  0  0
  5  6  2  0  0  0  0
  5  7  1  0  0  0  0
  2  3  1  0  0  0  0
  2  4  1  0  0  0  0
  2  5  1  0  0  0  0
  1  2  1  0  0  0  0
 20 21  2  0  0  0  0
 20 22  1  0  0  0  0
 17 18  1  0  0  0  0
 17 19  2  0  0  0  0
 14 15  1  0  0  0  0
 14 16  1  0  0  0  0
 14 17  1  0  0  0  0
 11 12  1  0  0  0  0
 11 13  1  0  0  0  0
 11 14  1  0  0  0  0
  9 10  1  0  0  0  0
  9 11  1  0  0  0  0
  9 20  1  0  0  0  0
  7  8  1  0  0  0  0
  7  9  1  0  0  0  0
 24 25  1  0  0  0  0
 24 26  1  0  0  0  0
 24 27  1  0  0  0  0
 22 23  1  0  0  0  0
 22 24  1  0  0  0  0
M  CHG  1  18  -1
M  END
$$$$
default_name
  -OEChem-01062215323D

 27 26  0     1  0  0  0  0  0999 V2000
   -3.2406   -3.5400    1.2326 H   0  0  0  0  0  0  0  0  0  0  0  0
   -3.1436   -2.6190    0.6606 C   0  0  0  0  0  0  0  0  0  0  0  0
   -3.8786   -1.8920    0.9996 H   0  0  0  0  0  0  0  0  0  0  0  0
   -3.2846   -2.8280   -0.3984 H   0  0  0  0  0  0  0  0  0  0  0  0
   -1.7586   -2.0580    0.8686 C   0  0  0  0  0  0  0  0  0  0  0  0
   -0.9666   -2.6340    1.6026 O   0  0  0  0  0  0  0  0  0  0  0  0
   -1.4866   -0.9220    0.2366 N   0  0  0  0  0  0  0  0  0  0  0  0
   -2.2166   -0.4790   -0.2994 H   0  0  0  0  0  0  0  0  0  0  0  0
   -0.1956   -0.2250    0.2596 C   0  0  1  0  0  0  0  0  0  0  0  0
    0.5570   -0.8932    0.6792 H   0  0  0  0  0  0  0  0  0  0  0  0
    0.2278    0.1023   -1.1865 C   0  0  0  0  0  0  0  0  0  0  0  0
   -0.5942    0.6373   -1.6645 H   0  0  0  0  0  0  0  0  0  0  0  0
    1.1001    0.7573   -1.1668 H   0  0  0  0  0  0  0  0  0  0  0  0
    0.5520   -1.1445   -2.0266 C   0  0  0  0  0  0  0  0  0  0  0  0
    1.3705   -1.6917   -1.5526 H   0  0  0  0  0  0  0  0  0  0  0  0
   -0.3282   -1.7928   -2.0321 H   0  0  0  0  0  0  0  0  0  0  0  0
    0.9501   -0.8187   -3.4738 C   0  0  0  0  0  0  0  0  0  0  0  0
    0.8469    0.3654   -3.8660 O   0  5  0  0  0  0  0  0  0  0  0  0
    1.3799   -1.7689   -4.1648 O   0  0  0  0  0  0  0  0  0  0  0  0
   -0.2633    1.0216    1.1662 C   0  0  0  0  0  0  0  0  0  0  0  0
   -0.7759    0.9571    2.2855 O   0  0  0  0  0  0  0  0  0  0  0  0
    0.2753    2.1545    0.6967 N   0  0  0  0  0  0  0  0  0  0  0  0
    0.6280    2.1454   -0.2488 H   0  0  0  0  0  0  0  0  0  0  0  0
    0.2771    3.4231    1.4206 C   0  0  0  0  0  0  0  0  0  0  0  0
    0.6702    3.2720    2.4274 H   0  0  0  0  0  0  0  0  0  0  0  0
    0.8925    4.1545    0.8949 H   0  0  0  0  0  0  0  0  0  0  0  0
   -0.7453    3.7983    1.4966 H   0  0  0  0  0  0  0  0  0  0  0  0
  5  6  2  0  0  0  0
  5  7  1  0  0  0  0
  2  3  1  0  0  0  0
  2  4  1  0  0  0  0
  2  5  1  0  0  0  0
  1  2  1  0  0  0  0
 20 21  2  0  0  0  0
 20 22  1  0  0  0  0
 17 18  1  0  0  0  0
 17 19  2  0  0  0  0
 14 15  1  0  0  0  0
 14 16  1  0  0  0  0
 14 17  1  0  0  0  0
 11 12  1  0  0  0  0
 11 13  1  0  0  0  0
 11 14  1  0  0  0  0
  9 10  1  0  0  0  0
  9 11  1  0  0  0  0
  9 20  1  0  0  0  0
  7  8  1  0  0  0  0
  7  9  1  0  0  0  0
 24 25  1  0  0  0  0
 24 26  1  0  0  0  0
 24 27  1  0  0  0  0
 22 23  1  0  0  0  0
 22 24  1  0  0  0  0
M  CHG  1  18  -1
M  END
$$$$
default_name
  -OEChem-01062215323D

 27 26  0     1  0  0  0  0  0999 V2000
   -3.2406   -3.5400    1.2326 H   0  0  0  0  0  0  0  0  0  0  0  0
   -3.1436   -2.6190    0.6606 C   0  0  0  0  0  0  0  0  0  0  0  0
   -3.8786   -1.8920    0.9996 H   0  0  0  0  0  0  0  0  0  0  0  0
   -3.2846   -2.8280   -0.3984 H   0  0  0  0  0  0  0  0  0  0  0  0
   -1.7586   -2.0580    0.8686 C   0  0  0  0  0  0  0  0  0  0  0  0
   -0.9666   -2.6340    1.6026 O   0  0  0  0  0  0  0  0  0  0  0  0
   -1.4866   -0.9220    0.2366 N   0  0  0  0  0  0  0  0  0  0  0  0
   -2.2166   -0.4790   -0.2994 H   0  0  0  0  0  0  0  0  0  0  0  0
   -0.1956   -0.2250    0.2596 C   0  0  1  0  0  0  0  0  0  0  0  0
    0.5570   -0.8932    0.6792 H   0  0  0  0  0  0  0  0  0  0  0  0
    0.2278    0.1023   -1.1865 C   0  0  0  0  0  0  0  0  0  0  0  0
   -0.5942    0.6373   -1.6645 H   0  0  0  0  0  0  0  0  0  0  0  0
    1.1001    0.7573   -1.1668 H   0  0  0  0  0  0  0  0  0  0  0  0
    0.5520   -1.1445   -2.0266 C   0  0  0  0  0  0  0  0  0  0  0  0
    1.3705   -1.6917   -1.5526 H   0  0  0  0  0  0  0  0  0  0  0  0
   -0.3282   -1.7928   -2.0321 H   0  0  0  0  0  0  0  0  0  0  0  0
    0.9501   -0.8187   -3.4738 C   0  0  0  0  0  0  0  0  0  0  0  0
    0.8469    0.3654   -3.8660 O   0  5  0  0  0  0  0  0  0  0  0  0
    1.3799   -1.7689   -4.1648 O   0  0  0  0  0  0  0  0  0  0  0  0
   -0.2633    1.0216    1.1662 C   0  0  0  0  0  0  0  0  0  0  0  0
   -0.5154    0.9114    2.3678 O   0  0  0  0  0  0  0  0  0  0  0  0
   -0.0144    2.2094    0.5995 N   0  0  0  0  0  0  0  0  0  0  0  0
    0.1308    2.2276   -0.3990 H   0  0  0  0  0  0  0  0  0  0  0  0
   -0.0564    3.4833    1.3130 C   0  0  0  0  0  0  0  0  0  0  0  0
    0.5561    3.4210    2.2140 H   0  0  0  0  0  0  0  0  0  0  0  0
    0.3165    4.2844    0.6732 H   0  0  0  0  0  0  0  0  0  0  0  0
   -1.0857    3.7018    1.6038 H   0  0  0  0  0  0  0  0  0  0  0  0
  5  6  2  0  0  0  0
  5  7  1  0  0  0  0
  2  3  1  0  0  0  0
  2  4  1  0  0  0  0
  2  5  1  0  0  0  0
  1  2  1  0  0  0  0
 20 21  2  0  0  0  0
 20 22  1  0  0  0  0
 17 18  1  0  0  0  0
 17 19  2  0  0  0  0
 14 15  1  0  0  0  0
 14 16  1  0  0  0  0
 14 17  1  0  0  0  0
 11 12  1  0  0  0  0
 11 13  1  0  0  0  0
 11 14  1  0  0  0  0
  9 10  1  0  0  0  0
  9 11  1  0  0  0  0
  9 20  1  0  0  0  0
  7  8  1  0  0  0  0
  7  9  1  0  0  0  0
 24 25  1  0  0  0  0
 24 26  1  0  0  0  0
 24 27  1  0  0  0  0
 22 23  1  0  0  0  0
 22 24  1  0  0  0  0
M  CHG  1  18  -1
M  END
$$$$
default_name
  -OEChem-01062215323D

 27 26  0     1  0  0  0  0  0999 V2000
   -3.2406   -3.5400    1.2326 H   0  0  0  0  0  0  0  0  0  0  0  0
   -3.1436   -2.6190    0.6606 C   0  0  0  0  0  0  0  0  0  0  0  0
   -3.8786   -1.8920    0.9996 H   0  0  0  0  0  0  0  0  0  0  0  0
   -3.2846   -2.8280   -0.3984 H   0  0  0  0  0  0  0  0  0  0  0  0
   -1.7586   -2.0580    0.8686 C   0  0  0  0  0  0  0  0  0  0  0  0
   -0.9666   -2.6340    1.6026 O   0  0  0  0  0  0  0  0  0  0  0  0
   -1.4866   -0.9220    0.2366 N   0  0  0  0  0  0  0  0  0  0  0  0
   -2.2166   -0.4790   -0.2994 H   0  0  0  0  0  0  0  0  0  0  0  0
   -0.1956   -0.2250    0.2596 C   0  0  1  0  0  0  0  0  0  0  0  0
    0.5570   -0.8932    0.6792 H   0  0  0  0  0  0  0  0  0  0  0  0
    0.2278    0.1023   -1.1865 C   0  0  0  0  0  0  0  0  0  0  0  0
   -0.5942    0.6373   -1.6645 H   0  0  0  0  0  0  0  0  0  0  0  0
    1.1001    0.7573   -1.1668 H   0  0  0  0  0  0  0  0  0  0  0  0
    0.5520   -1.1445   -2.0266 C   0  0  0  0  0  0  0  0  0  0  0  0
    1.3705   -1.6917   -1.5526 H   0  0  0  0  0  0  0  0  0  0  0  0
   -0.3282   -1.7928   -2.0321 H   0  0  0  0  0  0  0  0  0  0  0  0
    0.9501   -0.8187   -3.4738 C   0  0  0  0  0  0  0  0  0  0  0  0
    0.8469    0.3654   -3.8660 O   0  5  0  0  0  0  0  0  0  0  0  0
    1.3799   -1.7689   -4.1648 O   0  0  0  0  0  0  0  0  0  0  0  0
   -0.2633    1.0216    1.1662 C   0  0  0  0  0  0  0  0  0  0  0  0
   -0.2397    0.9078    2.3934 O   0  0  0  0  0  0  0  0  0  0  0  0
   -0.3230    2.2173    0.5656 N   0  0  0  0  0  0  0  0  0  0  0  0
   -0.3934    2.2297   -0.4411 H   0  0  0  0  0  0  0  0  0  0  0  0
   -0.4102    3.4894    1.2781 C   0  0  0  0  0  0  0  0  0  0  0  0
    0.3787    3.5451    2.0301 H   0  0  0  0  0  0  0  0  0  0  0  0
   -0.3060    4.3197    0.5781 H   0  0  0  0  0  0  0  0  0  0  0  0
   -1.3775    3.5581    1.7796 H   0  0  0  0  0  0  0  0  0  0  0  0
  5  6  2  0  0  0  0
  5  7  1  0  0  0  0
  2  3  1  0  0  0  0
  2  4  1  0  0  0  0
  2  5  1  0  0  0  0
  1  2  1  0  0  0  0
 20 21  2  0  0  0  0
 20 22  1  0  0  0  0
 17 18  1  0  0  0  0
 17 19  2  0  0  0  0
 14 15  1  0  0  0  0
 14 16  1  0  0  0  0
 14 17  1  0  0  0  0
 11 12  1  0  0  0  0
 11 13  1  0  0  0  0
 11 14  1  0  0  0  0
  9 10  1  0  0  0  0
  9 11  1  0  0  0  0
  9 20  1  0  0  0  0
  7  8  1  0  0  0  0
  7  9  1  0  0  0  0
 24 25  1  0  0  0  0
 24 26  1  0  0  0  0
 24 27  1  0  0  0  0
 22 23  1  0  0  0  0
 22 24  1  0  0  0  0
M  CHG  1  18  -1
M  END
$$$$
default_name
  -OEChem-01062215323D

 27 26  0     1  0  0  0  0  0999 V2000
   -3.2406   -3.5400    1.2326 H   0  0  0  0  0  0  0  0  0  0  0  0
   -3.1436   -2.6190    0.6606 C   0  0  0  0  0  0  0  0  0  0  0  0
   -3.8786   -1.8920    0.9996 H   0  0  0  0  0  0  0  0  0  0  0  0
   -3.2846   -2.8280   -0.3984 H   0  0  0  0  0  0  0  0  0  0  0  0
   -1.7586   -2.0580    0.8686 C   0  0  0  0  0  0  0  0  0  0  0  0
   -0.9666   -2.6340    1.6026 O   0  0  0  0  0  0  0  0  0  0  0  0
   -1.4866   -0.9220    0.2366 N   0  0  0  0  0  0  0  0  0  0  0  0
   -2.2166   -0.4790   -0.2994 H   0  0  0  0  0  0  0  0  0  0  0  0
   -0.1956   -0.2250    0.2596 C   0  0  1  0  0  0  0  0  0  0  0  0
    0.5570   -0.8932    0.6792 H   0  0  0  0  0  0  0  0  0  0  0  0
    0.2278    0.1023   -1.1865 C   0  0  0  0  0  0  0  0  0  0  0  0
   -0.5942    0.6373   -1.6645 H   0  0  0  0  0  0  0  0  0  0  0  0
    1.1001    0.7573   -1.1668 H   0  0  0  0  0  0  0  0  0  0  0  0
    0.5520   -1.1445   -2.0266 C   0  0  0  0  0  0  0  0  0  0  0  0
    1.3705   -1.6917   -1.5526 H   0  0  0  0  0  0  0  0  0  0  0  0
   -0.3282   -1.7928   -2.0321 H   0  0  0  0  0  0  0  0  0  0  0  0
    0.9501   -0.8187   -3.4738 C   0  0  0  0  0  0  0  0  0  0  0  0
    0.8469    0.3654   -3.8660 O   0  5  0  0  0  0  0  0  0  0  0  0
    1.3799   -1.7689   -4.1648 O   0  0  0  0  0  0  0  0  0  0  0  0
   -0.2633    1.0216    1.1662 C   0  0  0  0  0  0  0  0  0  0  0  0
    0.0325    0.9465    2.3606 O   0  0  0  0  0  0  0  0  0  0  0  0
   -0.6293    2.1776    0.5973 N   0  0  0  0  0  0  0  0  0  0  0  0
   -0.9089    2.1515   -0.3721 H   0  0  0  0  0  0  0  0  0  0  0  0
   -0.7602    3.4411    1.3183 C   0  0  0  0  0  0  0  0  0  0  0  0
    0.1499    3.6359    1.8881 H   0  0  0  0  0  0  0  0  0  0  0  0
   -0.9326    4.2580    0.6161 H   0  0  0  0  0  0  0  0  0  0  0  0
   -1.6006    3.3769    2.0121 H   0  0  0  0  0  0  0  0  0  0  0  0
  5  6  2  0  0  0  0
  5  7  1  0  0  0  0
  2  3  1  0  0  0  0
  2  4  1  0  0  0  0
  2  5  1  0  0  0  0
  1  2  1  0  0  0  0
 20 21  2  0  0  0  0
 20 22  1  0  0  0  0
 17 18  1  0  0  0  0
 17 19  2  0  0  0  0
 14 15  1  0  0  0  0
 14 16  1  0  0  0  0
 14 17  1  0  0  0  0
 11 12  1  0  0  0  0
 11 13  1  0  0  0  0
 11 14  1  0  0  0  0
  9 10  1  0  0  0  0
  9 11  1  0  0  0  0
  9 20  1  0  0  0  0
  7  8  1  0  0  0  0
  7  9  1  0  0  0  0
 24 25  1  0  0  0  0
 24 26  1  0  0  0  0
 24 27  1  0  0  0  0
 22 23  1  0  0  0  0
 22 24  1  0  0  0  0
M  CHG  1  18  -1
M  END
$$$$
default_name
  -OEChem-01062215323D

 27 26  0     1  0  0  0  0  0999 V2000
   -3.2406   -3.5400    1.2326 H   0  0  0  0  0  0  0  0  0  0  0  0
   -3.1436   -2.6190    0.6606 C   0  0  0  0  0  0  0  0  0  0  0  0
   -3.8786   -1.8920    0.9996 H   0  0  0  0  0  0  0  0  0  0  0  0
   -3.2846   -2.8280   -0.3984 H   0  0  0  0  0  0  0  0  0  0  0  0
   -1.7586   -2.0580    0.8686 C   0  0  0  0  0  0  0  0  0  0  0  0
   -0.9666   -2.6340    1.6026 O   0  0  0  0  0  0  0  0  0  0  0  0
   -1.4866   -0.9220    0.2366 N   0  0  0  0  0  0  0  0  0  0  0  0
   -2.2166   -0.4790   -0.2994 H   0  0  0  0  0  0  0  0  0  0  0  0
   -0.1956   -0.2250    0.2596 C   0  0  1  0  0  0  0  0  0  0  0  0
    0.5570   -0.8932    0.6792 H   0  0  0  0  0  0  0  0  0  0  0  0
    0.2278    0.1023   -1.1865 C   0  0  0  0  0  0  0  0  0  0  0  0
   -0.5942    0.6373   -1.6645 H   0  0  0  0  0  0  0  0  0  0  0  0
    1.1001    0.7573   -1.1668 H   0  0  0  0  0  0  0  0  0  0  0  0
    0.5520   -1.1445   -2.0266 C   0  0  0  0  0  0  0  0  0  0  0  0
    1.3705   -1.6917   -1.5526 H   0  0  0  0  0  0  0  0  0  0  0  0
   -0.3282   -1.7928   -2.0321 H   0  0  0  0  0  0  0  0  0  0  0  0
    0.9501   -0.8187   -3.4738 C   0  0  0  0  0  0  0  0  0  0  0  0
    0.8469    0.3654   -3.8660 O   0  5  0  0  0  0  0  0  0  0  0  0
    1.3799   -1.7689   -4.1648 O   0  0  0  0  0  0  0  0  0  0  0  0
   -0.2633    1.0216    1.1662 C   0  0  0  0  0  0  0  0  0  0  0  0
    0.2826    1.0249    2.2714 O   0  0  0  0  0  0  0  0  0  0  0  0
   -0.9125    2.0931    0.6924 N   0  0  0  0  0  0  0  0  0  0  0  0
   -1.3805    1.9984   -0.1968 H   0  0  0  0  0  0  0  0  0  0  0  0
   -1.0825    3.3417    1.4308 C   0  0  0  0  0  0  0  0  0  0  0  0
   -0.1145    3.6872    1.7978 H   0  0  0  0  0  0  0  0  0  0  0  0
   -1.5204    4.1036    0.7844 H   0  0  0  0  0  0  0  0  0  0  0  0
   -1.7400    3.1706    2.2854 H   0  0  0  0  0  0  0  0  0  0  0  0
  5  6  2  0  0  0  0
  5  7  1  0  0  0  0
  2  3  1  0  0  0  0
  2  4  1  0  0  0  0
  2  5  1  0  0  0  0
  1  2  1  0  0  0  0
 20 21  2  0  0  0  0
 20 22  1  0  0  0  0
 17 18  1  0  0  0  0
 17 19  2  0  0  0  0
 14 15  1  0  0  0  0
 14 16  1  0  0  0  0
 14 17  1  0  0  0  0
 11 12  1  0  0  0  0
 11 13  1  0  0  0  0
 11 14  1  0  0  0  0
  9 10  1  0  0  0  0
  9 11  1  0  0  0  0
  9 20  1  0  0  0  0
  7  8  1  0  0  0  0
  7  9  1  0  0  0  0
 24 25  1  0  0  0  0
 24 26  1  0  0  0  0
 24 27  1  0  0  0  0
 22 23  1  0  0  0  0
 22 24  1  0  0  0  0
M  CHG  1  18  -1
M  END
$$$$
default_name
  -OEChem-01062215323D

 27 26  0     1  0  0  0  0  0999 V2000
   -3.2406   -3.5400    1.2326 H   0  0  0  0  0  0  0  0  0  0  0  0
   -3.1436   -2.6190    0.6606 C   0  0  0  0  0  0  0  0  0  0  0  0
   -3.8786   -1.8920    0.9996 H   0  0  0  0  0  0  0  0  0  0  0  0
   -3.2846   -2.8280   -0.3984 H   0  0  0  0  0  0  0  0  0  0  0  0
   -1.7586   -2.0580    0.8686 C   0  0  0  0  0  0  0  0  0  0  0  0
   -0.9666   -2.6340    1.6026 O   0  0  0  0  0  0  0  0  0  0  0  0
   -1.4866   -0.9220    0.2366 N   0  0  0  0  0  0  0  0  0  0  0  0
   -2.2166   -0.4790   -0.2994 H   0  0  0  0  0  0  0  0  0  0  0  0
   -0.1956   -0.2250    0.2596 C   0  0  1  0  0  0  0  0  0  0  0  0
    0.5570   -0.8932    0.6792 H   0  0  0  0  0  0  0  0  0  0  0  0
    0.2278    0.1023   -1.1865 C   0  0  0  0  0  0  0  0  0  0  0  0
   -0.5942    0.6373   -1.6645 H   0  0  0  0  0  0  0  0  0  0  0  0
    1.1001    0.7573   -1.1668 H   0  0  0  0  0  0  0  0  0  0  0  0
    0.5520   -1.1445   -2.0266 C   0  0  0  0  0  0  0  0  0  0  0  0
    1.3705   -1.6917   -1.5526 H   0  0  0  0  0  0  0  0  0  0  0  0
   -0.3282   -1.7928   -2.0321 H   0  0  0  0  0  0  0  0  0  0  0  0
    0.9501   -0.8187   -3.4738 C   0  0  0  0  0  0  0  0  0  0  0  0
    0.8469    0.3654   -3.8660 O   0  5  0  0  0  0  0  0  0  0  0  0
    1.3799   -1.7689   -4.1648 O   0  0  0  0  0  0  0  0  0  0  0  0
   -0.2633    1.0216    1.1662 C   0  0  0  0  0  0  0  0  0  0  0  0
    0.4937    1.1377    2.1321 O   0  0  0  0  0  0  0  0  0  0  0  0
   -1.1534    1.9694    0.8444 N   0  0  0  0  0  0  0  0  0  0  0  0
   -1.7760    1.7807    0.0729 H   0  0  0  0  0  0  0  0  0  0  0  0
   -1.3551    3.1980    1.6081 C   0  0  0  0  0  0  0  0  0  0  0  0
   -0.3966    3.6955    1.7653 H   0  0  0  0  0  0  0  0  0  0  0  0
   -2.0296    3.8670    1.0718 H   0  0  0  0  0  0  0  0  0  0  0  0
   -1.7862    2.9533    2.5808 H   0  0  0  0  0  0  0  0  0  0  0  0
  5  6  2  0  0  0  0
  5  7  1  0  0  0  0
  2  3  1  0  0  0  0
  2  4  1  0  0  0  0
  2  5  1  0  0  0  0
  1  2  1  0  0  0  0
 20 21  2  0  0  0  0
 20 22  1  0  0  0  0
 17 18  1  0  0  0  0
 17 19  2  0  0  0  0
 14 15  1  0  0  0  0
 14 16  1  0  0  0  0
 14 17  1  0  0  0  0
 11 12  1  0  0  0  0
 11 13  1  0  0  0  0
 11 14  1  0  0  0  0
  9 10  1  0  0  0  0
  9 11  1  0  0  0  0
  9 20  1  0  0  0  0
  7  8  1  0  0  0  0
  7  9  1  0  0  0  0
 24 25  1  0  0  0  0
 24 26  1  0  0  0  0
 24 27  1  0  0  0  0
 22 23  1  0  0  0  0
 22 24  1  0  0  0  0
M  CHG  1  18  -1
M  END
$$$$
default_name
  -OEChem-01062215323D

 27 26  0     1  0  0  0  0  0999 V2000
   -3.2406   -3.5400    1.2326 H   0  0  0  0  0  0  0  0  0  0  0  0
   -3.1436   -2.6190    0.6606 C   0  0  0  0  0  0  0  0  0  0  0  0
   -3.8786   -1.8920    0.9996 H   0  0  0  0  0  0  0  0  0  0  0  0
   -3.2846   -2.8280   -0.3984 H   0  0  0  0  0  0  0  0  0  0  0  0
   -1.7586   -2.0580    0.8686 C   0  0  0  0  0  0  0  0  0  0  0  0
   -0.9666   -2.6340    1.6026 O   0  0  0  0  0  0  0  0  0  0  0  0
   -1.4866   -0.9220    0.2366 N   0  0  0  0  0  0  0  0  0  0  0  0
   -2.2166   -0.4790   -0.2994 H   0  0  0  0  0  0  0  0  0  0  0  0
   -0.1956   -0.2250    0.2596 C   0  0  1  0  0  0  0  0  0  0  0  0
    0.5570   -0.8932    0.6792 H   0  0  0  0  0  0  0  0  0  0  0  0
    0.2278    0.1023   -1.1865 C   0  0  0  0  0  0  0  0  0  0  0  0
   -0.5942    0.6373   -1.6645 H   0  0  0  0  0  0  0  0  0  0  0  0
    1.1001    0.7573   -1.1668 H   0  0  0  0  0  0  0  0  0  0  0  0
    0.5520   -1.1445   -2.0266 C   0  0  0  0  0  0  0  0  0  0  0  0
    1.3705   -1.6917   -1.5526 H   0  0  0  0  0  0  0  0  0  0  0  0
   -0.3282   -1.7928   -2.0321 H   0  0  0  0  0  0  0  0  0  0  0  0
    0.9501   -0.8187   -3.4738 C   0  0  0  0  0  0  0  0  0  0  0  0
    0.8469    0.3654   -3.8660 O   0  5  0  0  0  0  0  0  0  0  0  0
    1.3799   -1.7689   -4.1648 O   0  0  0  0  0  0  0  0  0  0  0  0
   -0.2633    1.0216    1.1662 C   0  0  0  0  0  0  0  0  0  0  0  0
    0.6513    1.2771    1.9521 O   0  0  0  0  0  0  0  0  0  0  0  0
   -1.3354    1.8151    1.0430 N   0  0  0  0  0  0  0  0  0  0  0  0
   -2.0686    1.5134    0.4186 H   0  0  0  0  0  0  0  0  0  0  0  0
   -1.5596    3.0197    1.8380 C   0  0  0  0  0  0  0  0  0  0  0  0
   -0.6772    3.6603    1.7927 H   0  0  0  0  0  0  0  0  0  0  0  0
   -2.4253    3.5643    1.4584 H   0  0  0  0  0  0  0  0  0  0  0  0
   -1.7359    2.7396    2.8783 H   0  0  0  0  0  0  0  0  0  0  0  0
  5  6  2  0  0  0  0
  5  7  1  0  0  0  0
  2  3  1  0  0  0  0
  2  4  1  0  0  0  0
  2  5  1  0  0  0  0
  1  2  1  0  0  0  0
 20 21  2  0  0  0  0
 20 22  1  0  0  0  0
 17 18  1  0  0  0  0
 17 19  2  0  0  0  0
 14 15  1  0  0  0  0
 14 16  1  0  0  0  0
 14 17  1  0  0  0  0
 11 12  1  0  0  0  0
 11 13  1  0  0  0  0
 11 14  1  0  0  0  0
  9 10  1  0  0  0  0
  9 11  1  0  0  0  0
  9 20  1  0  0  0  0
  7  8  1  0  0  0  0
  7  9  1  0  0  0  0
 24 25  1  0  0  0  0
 24 26  1  0  0  0  0
 24 27  1  0  0  0  0
 22 23  1  0  0  0  0
 22 24  1  0  0  0  0
M  CHG  1  18  -1
M  END
$$$$
default_name
  -OEChem-01062215323D

 27 26  0     1  0  0  0  0  0999 V2000
   -3.2406   -3.5400    1.2326 H   0  0  0  0  0  0  0  0  0  0  0  0
   -3.1436   -2.6190    0.6606 C   0  0  0  0  0  0  0  0  0  0  0  0
   -3.8786   -1.8920    0.9996 H   0  0  0  0  0  0  0  0  0  0  0  0
   -3.2846   -2.8280   -0.3984 H   0  0  0  0  0  0  0  0  0  0  0  0
   -1.7586   -2.0580    0.8686 C   0  0  0  0  0  0  0  0  0  0  0  0
   -0.9666   -2.6340    1.6026 O   0  0  0  0  0  0  0  0  0  0  0  0
   -1.4866   -0.9220    0.2366 N   0  0  0  0  0  0  0  0  0  0  0  0
   -2.2166   -0.4790   -0.2994 H   0  0  0  0  0  0  0  0  0  0  0  0
   -0.1956   -0.2250    0.2596 C   0  0  1  0  0  0  0  0  0  0  0  0
    0.5570   -0.8932    0.6792 H   0  0  0  0  0  0  0  0  0  0  0  0
    0.2278    0.1023   -1.1865 C   0  0  0  0  0  0  0  0  0  0  0  0
   -0.5942    0.6373   -1.6645 H   0  0  0  0  0  0  0  0  0  0  0  0
    1.1001    0.7573   -1.1668 H   0  0  0  0  0  0  0  0  0  0  0  0
    0.5520   -1.1445   -2.0266 C   0  0  0  0  0  0  0  0  0  0  0  0
    1.3705   -1.6917   -1.5526 H   0  0  0  0  0  0  0  0  0  0  0  0
   -0.3282   -1.7928   -2.0321 H   0  0  0  0  0  0  0  0  0  0  0  0
    0.9501   -0.8187   -3.4738 C   0  0  0  0  0  0  0  0  0  0  0  0
    0.8469    0.3654   -3.8660 O   0  5  0  0  0  0  0  0  0  0  0  0
    1.3799   -1.7689   -4.1648 O   0  0  0  0  0  0  0  0  0  0  0  0
   -0.2633    1.0216    1.1662 C   0  0  0  0  0  0  0  0  0  0  0  0
    0.7447    1.4337    1.7437 O   0  0  0  0  0  0  0  0  0  0  0  0
   -1.4462    1.6406    1.2747 N   0  0  0  0  0  0  0  0  0  0  0  0
   -2.2383    1.2147    0.8168 H   0  0  0  0  0  0  0  0  0  0  0  0
   -1.6819    2.8191    2.1048 C   0  0  0  0  0  0  0  0  0  0  0  0
   -0.9371    3.5839    1.8783 H   0  0  0  0  0  0  0  0  0  0  0  0
   -2.6807    3.2161    1.9182 H   0  0  0  0  0  0  0  0  0  0  0  0
   -1.5926    2.5443    3.1576 H   0  0  0  0  0  0  0  0  0  0  0  0
  5  6  2  0  0  0  0
  5  7  1  0  0  0  0
  2  3  1  0  0  0  0
  2  4  1  0  0  0  0
  2  5  1  0  0  0  0
  1  2  1  0  0  0  0
 20 21  2  0  0  0  0
 20 22  1  0  0  0  0
 17 18  1  0  0  0  0
 17 19  2  0  0  0  0
 14 15  1  0  0  0  0
 14 16  1  0  0  0  0
 14 17  1  0  0  0  0
 11 12  1  0  0  0  0
 11 13  1  0  0  0  0
 11 14  1  0  0  0  0
  9 10  1  0  0  0  0
  9 11  1  0  0  0  0
  9 20  1  0  0  0  0
  7  8  1  0  0  0  0
  7  9  1  0  0  0  0
 24 25  1  0  0  0  0
 24 26  1  0  0  0  0
 24 27  1  0  0  0  0
 22 23  1  0  0  0  0
 22 24  1  0  0  0  0
M  CHG  1  18  -1
M  END
$$$$
default_name
  -OEChem-01062215323D

 27 26  0     1  0  0  0  0  0999 V2000
   -3.2406   -3.5400    1.2326 H   0  0  0  0  0  0  0  0  0  0  0  0
   -3.1436   -2.6190    0.6606 C   0  0  0  0  0  0  0  0  0  0  0  0
   -3.8786   -1.8920    0.9996 H   0  0  0  0  0  0  0  0  0  0  0  0
   -3.2846   -2.8280   -0.3984 H   0  0  0  0  0  0  0  0  0  0  0  0
   -1.7586   -2.0580    0.8686 C   0  0  0  0  0  0  0  0  0  0  0  0
   -0.9666   -2.6340    1.6026 O   0  0  0  0  0  0  0  0  0  0  0  0
   -1.4866   -0.9220    0.2366 N   0  0  0  0  0  0  0  0  0  0  0  0
   -2.2166   -0.4790   -0.2994 H   0  0  0  0  0  0  0  0  0  0  0  0
   -0.1956   -0.2250    0.2596 C   0  0  1  0  0  0  0  0  0  0  0  0
    0.5570   -0.8932    0.6792 H   0  0  0  0  0  0  0  0  0  0  0  0
    0.2278    0.1023   -1.1865 C   0  0  0  0  0  0  0  0  0  0  0  0
   -0.5942    0.6373   -1.6645 H   0  0  0  0  0  0  0  0  0  0  0  0
    1.1001    0.7573   -1.1668 H   0  0  0  0  0  0  0  0  0  0  0  0
    0.5520   -1.1445   -2.0266 C   0  0  0  0  0  0  0  0  0  0  0  0
    1.3705   -1.6917   -1.5526 H   0  0  0  0  0  0  0  0  0  0  0  0
   -0.3282   -1.7928   -2.0321 H   0  0  0  0  0  0  0  0  0  0  0  0
    0.9501   -0.8187   -3.4738 C   0  0  0  0  0  0  0  0  0  0  0  0
    0.8469    0.3654   -3.8660 O   0  5  0  0  0  0  0  0  0  0  0  0
    1.3799   -1.7689   -4.1648 O   0  0  0  0  0  0  0  0  0  0  0  0
   -0.2633    1.0216    1.1662 C   0  0  0  0  0  0  0  0  0  0  0  0
    0.7676    1.5969    1.5211 O   0  0  0  0  0  0  0  0  0  0  0  0
   -1.4782    1.4578    1.5237 N   0  0  0  0  0  0  0  0  0  0  0  0
   -2.2735    0.9048    1.2402 H   0  0  0  0  0  0  0  0  0  0  0  0
   -1.7137    2.6096    2.3904 C   0  0  0  0  0  0  0  0  0  0  0  0
   -1.1587    3.4716    2.0163 H   0  0  0  0  0  0  0  0  0  0  0  0
   -2.7783    2.8462    2.4196 H   0  0  0  0  0  0  0  0  0  0  0  0
   -1.3661    2.3807    3.3997 H   0  0  0  0  0  0  0  0  0  0  0  0
  5  6  2  0  0  0  0
  5  7  1  0  0  0  0
  2  3  1  0  0  0  0
  2  4  1  0  0  0  0
  2  5  1  0  0  0  0
  1  2  1  0  0  0  0
 20 21  2  0  0  0  0
 20 22  1  0  0  0  0
 17 18  1  0  0  0  0
 17 19  2  0  0  0  0
 14 15  1  0  0  0  0
 14 16  1  0  0  0  0
 14 17  1  0  0  0  0
 11 12  1  0  0  0  0
 11 13  1  0  0  0  0
 11 14  1  0  0  0  0
  9 10  1  0  0  0  0
  9 11  1  0  0  0  0
  9 20  1  0  0  0  0
  7  8  1  0  0  0  0
  7  9  1  0  0  0  0
 24 25  1  0  0  0  0
 24 26  1  0  0  0  0
 24 27  1  0  0  0  0
 22 23  1  0  0  0  0
 22 24  1  0  0  0  0
M  CHG  1  18  -1
M  END
$$$$
default_name
  -OEChem-01062215323D

 27 26  0     1  0  0  0  0  0999 V2000
   -3.2406   -3.5400    1.2326 H   0  0  0  0  0  0  0  0  0  0  0  0
   -3.1436   -2.6190    0.6606 C   0  0  0  0  0  0  0  0  0  0  0  0
   -3.8786   -1.8920    0.9996 H   0  0  0  0  0  0  0  0  0  0  0  0
   -3.2846   -2.8280   -0.3984 H   0  0  0  0  0  0  0  0  0  0  0  0
   -1.7586   -2.0580    0.8686 C   0  0  0  0  0  0  0  0  0  0  0  0
   -0.9666   -2.6340    1.6026 O   0  0  0  0  0  0  0  0  0  0  0  0
   -1.4866   -0.9220    0.2366 N   0  0  0  0  0  0  0  0  0  0  0  0
   -2.2166   -0.4790   -0.2994 H   0  0  0  0  0  0  0  0  0  0  0  0
   -0.1956   -0.2250    0.2596 C   0  0  1  0  0  0  0  0  0  0  0  0
    0.5570   -0.8932    0.6792 H   0  0  0  0  0  0  0  0  0  0  0  0
    0.2278    0.1023   -1.1865 C   0  0  0  0  0  0  0  0  0  0  0  0
   -0.5942    0.6373   -1.6645 H   0  0  0  0  0  0  0  0  0  0  0  0
    1.1001    0.7573   -1.1668 H   0  0  0  0  0  0  0  0  0  0  0  0
    0.5520   -1.1445   -2.0266 C   0  0  0  0  0  0  0  0  0  0  0  0
    1.3705   -1.6917   -1.5526 H   0  0  0  0  0  0  0  0  0  0  0  0
   -0.3282   -1.7928   -2.0321 H   0  0  0  0  0  0  0  0  0  0  0  0
    0.9501   -0.8187   -3.4738 C   0  0  0  0  0  0  0  0  0  0  0  0
    0.8469    0.3654   -3.8660 O   0  5  0  0  0  0  0  0  0  0  0  0
    1.3799   -1.7689   -4.1648 O   0  0  0  0  0  0  0  0  0  0  0  0
   -0.2633    1.0216    1.1662 C   0  0  0  0  0  0  0  0  0  0  0  0
    0.7182    1.7554    1.2995 O   0  0  0  0  0  0  0  0  0  0  0  0
   -1.4293    1.2792    1.7729 N   0  0  0  0  0  0  0  0  0  0  0  0
   -2.1718    0.6050    1.6601 H   0  0  0  0  0  0  0  0  0  0  0  0
   -1.6529    2.4058    2.6753 C   0  0  0  0  0  0  0  0  0  0  0  0
   -1.3267    3.3309    2.1971 H   0  0  0  0  0  0  0  0  0  0  0  0
   -2.7114    2.4797    2.9285 H   0  0  0  0  0  0  0  0  0  0  0  0
   -1.0718    2.2597    3.5879 H   0  0  0  0  0  0  0  0  0  0  0  0
  5  6  2  0  0  0  0
  5  7  1  0  0  0  0
  2  3  1  0  0  0  0
  2  4  1  0  0  0  0
  2  5  1  0  0  0  0
  1  2  1  0  0  0  0
 20 21  2  0  0  0  0
 20 22  1  0  0  0  0
 17 18  1  0  0  0  0
 17 19  2  0  0  0  0
 14 15  1  0  0  0  0
 14 16  1  0  0  0  0
 14 17  1  0  0  0  0
 11 12  1  0  0  0  0
 11 13  1  0  0  0  0
 11 14  1  0  0  0  0
  9 10  1  0  0  0  0
  9 11  1  0  0  0  0
  9 20  1  0  0  0  0
  7  8  1  0  0  0  0
  7  9  1  0  0  0  0
 24 25  1  0  0  0  0
 24 26  1  0  0  0  0
 24 27  1  0  0  0  0
 22 23  1  0  0  0  0
 22 24  1  0  0  0  0
M  CHG  1  18  -1
M  END
$$$$
default_name
  -OEChem-01062215323D

 27 26  0     1  0  0  0  0  0999 V2000
   -3.2406   -3.5400    1.2326 H   0  0  0  0  0  0  0  0  0  0  0  0
   -3.1436   -2.6190    0.6606 C   0  0  0  0  0  0  0  0  0  0  0  0
   -3.8786   -1.8920    0.9996 H   0  0  0  0  0  0  0  0  0  0  0  0
   -3.2846   -2.8280   -0.3984 H   0  0  0  0  0  0  0  0  0  0  0  0
   -1.7586   -2.0580    0.8686 C   0  0  0  0  0  0  0  0  0  0  0  0
   -0.9666   -2.6340    1.6026 O   0  0  0  0  0  0  0  0  0  0  0  0
   -1.4866   -0.9220    0.2366 N   0  0  0  0  0  0  0  0  0  0  0  0
   -2.2166   -0.4790   -0.2994 H   0  0  0  0  0  0  0  0  0  0  0  0
   -0.1956   -0.2250    0.2596 C   0  0  1  0  0  0  0  0  0  0  0  0
    0.5570   -0.8932    0.6792 H   0  0  0  0  0  0  0  0  0  0  0  0
    0.2278    0.1023   -1.1865 C   0  0  0  0  0  0  0  0  0  0  0  0
   -0.5942    0.6373   -1.6645 H   0  0  0  0  0  0  0  0  0  0  0  0
    1.1001    0.7573   -1.1668 H   0  0  0  0  0  0  0  0  0  0  0  0
    0.5520   -1.1445   -2.0266 C   0  0  0  0  0  0  0  0  0  0  0  0
    1.3705   -1.6917   -1.5526 H   0  0  0  0  0  0  0  0  0  0  0  0
   -0.3282   -1.7928   -2.0321 H   0  0  0  0  0  0  0  0  0  0  0  0
    0.9501   -0.8187   -3.4738 C   0  0  0  0  0  0  0  0  0  0  0  0
    0.8469    0.3654   -3.8660 O   0  5  0  0  0  0  0  0  0  0  0  0
    1.3799   -1.7689   -4.1648 O   0  0  0  0  0  0  0  0  0  0  0  0
   -0.2633    1.0216    1.1662 C   0  0  0  0  0  0  0  0  0  0  0  0
    0.6001    1.8984    1.0939 O   0  0  0  0  0  0  0  0  0  0  0  0
   -1.3028    1.1169    2.0055 N   0  0  0  0  0  0  0  0  0  0  0  0
   -1.9402    0.3356    2.0479 H   0  0  0  0  0  0  0  0  0  0  0  0
   -1.5035    2.2214    2.9401 C   0  0  0  0  0  0  0  0  0  0  0  0
   -1.4299    3.1716    2.4085 H   0  0  0  0  0  0  0  0  0  0  0  0
   -2.4846    2.1417    3.4103 H   0  0  0  0  0  0  0  0  0  0  0  0
   -0.7298    2.1898    3.7096 H   0  0  0  0  0  0  0  0  0  0  0  0
  5  6  2  0  0  0  0
  5  7  1  0  0  0  0
  2  3  1  0  0  0  0
  2  4  1  0  0  0  0
  2  5  1  0  0  0  0
  1  2  1  0  0  0  0
 20 21  2  0  0  0  0
 20 22  1  0  0  0  0
 17 18  1  0  0  0  0
 17 19  2  0  0  0  0
 14 15  1  0  0  0  0
 14 16  1  0  0  0  0
 14 17  1  0  0  0  0
 11 12  1  0  0  0  0
 11 13  1  0  0  0  0
 11 14  1  0  0  0  0
  9 10  1  0  0  0  0
  9 11  1  0  0  0  0
  9 20  1  0  0  0  0
  7  8  1  0  0  0  0
  7  9  1  0  0  0  0
 24 25  1  0  0  0  0
 24 26  1  0  0  0  0
 24 27  1  0  0  0  0
 22 23  1  0  0  0  0
 22 24  1  0  0  0  0
M  CHG  1  18  -1
M  END
$$$$
default_name
  -OEChem-01062215323D

 27 26  0     1  0  0  0  0  0999 V2000
   -3.2406   -3.5400    1.2326 H   0  0  0  0  0  0  0  0  0  0  0  0
   -3.1436   -2.6190    0.6606 C   0  0  0  0  0  0  0  0  0  0  0  0
   -3.8786   -1.8920    0.9996 H   0  0  0  0  0  0  0  0  0  0  0  0
   -3.2846   -2.8280   -0.3984 H   0  0  0  0  0  0  0  0  0  0  0  0
   -1.7586   -2.0580    0.8686 C   0  0  0  0  0  0  0  0  0  0  0  0
   -0.9666   -2.6340    1.6026 O   0  0  0  0  0  0  0  0  0  0  0  0
   -1.4866   -0.9220    0.2366 N   0  0  0  0  0  0  0  0  0  0  0  0
   -2.2166   -0.4790   -0.2994 H   0  0  0  0  0  0  0  0  0  0  0  0
   -0.1956   -0.2250    0.2596 C   0  0  1  0  0  0  0  0  0  0  0  0
    0.5570   -0.8932    0.6792 H   0  0  0  0  0  0  0  0  0  0  0  0
    0.2278    0.1023   -1.1865 C   0  0  0  0  0  0  0  0  0  0  0  0
   -0.5942    0.6373   -1.6645 H   0  0  0  0  0  0  0  0  0  0  0  0
    1.1001    0.7573   -1.1668 H   0  0  0  0  0  0  0  0  0  0  0  0
    0.5520   -1.1445   -2.0266 C   0  0  0  0  0  0  0  0  0  0  0  0
    1.3705   -1.6917   -1.5526 H   0  0  0  0  0  0  0  0  0  0  0  0
   -0.3282   -1.7928   -2.0321 H   0  0  0  0  0  0  0  0  0  0  0  0
    0.9501   -0.8187   -3.4738 C   0  0  0  0  0  0  0  0  0  0  0  0
    0.8469    0.3654   -3.8660 O   0  5  0  0  0  0  0  0  0  0  0  0
    1.3799   -1.7689   -4.1648 O   0  0  0  0  0  0  0  0  0  0  0  0
   -0.2633    1.0216    1.1662 C   0  0  0  0  0  0  0  0  0  0  0  0
    0.4213    2.0163    0.9184 O   0  0  0  0  0  0  0  0  0  0  0  0
   -1.1073    0.9821    2.2055 N   0  0  0  0  0  0  0  0  0  0  0  0
   -1.5944    0.1151    2.3771 H   0  0  0  0  0  0  0  0  0  0  0  0
   -1.2758    2.0689    3.1667 C   0  0  0  0  0  0  0  0  0  0  0  0
   -1.4610    3.0044    2.6361 H   0  0  0  0  0  0  0  0  0  0  0  0
   -2.1135    1.8551    3.8321 H   0  0  0  0  0  0  0  0  0  0  0  0
   -0.3633    2.1757    3.7564 H   0  0  0  0  0  0  0  0  0  0  0  0
  5  6  2  0  0  0  0
  5  7  1  0  0  0  0
  2  3  1  0  0  0  0
  2  4  1  0  0  0  0
  2  5  1  0  0  0  0
  1  2  1  0  0  0  0
 20 21  2  0  0  0  0
 20 22  1  0  0  0  0
 17 18  1  0  0  0  0
 17 19  2  0  0  0  0
 14 15  1  0  0  0  0
 14 16  1  0  0  0  0
 14 17  1  0  0  0  0
 11 12  1  0  0  0  0
 11 13  1  0  0  0  0
 11 14  1  0  0  0  0
  9 10  1  0  0  0  0
  9 11  1  0  0  0  0
  9 20  1  0  0  0  0
  7  8  1  0  0  0  0
  7  9  1  0  0  0  0
 24 25  1  0  0  0  0
 24 26  1  0  0  0  0
 24 27  1  0  0  0  0
 22 23  1  0  0  0  0
 22 24  1  0  0  0  0
M  CHG  1  18  -1
M  END
$$$$
default_name
  -OEChem-01062215323D

 27 26  0     1  0  0  0  0  0999 V2000
   -3.2406   -3.5400    1.2326 H   0  0  0  0  0  0  0  0  0  0  0  0
   -3.1436   -2.6190    0.6606 C   0  0  0  0  0  0  0  0  0  0  0  0
   -3.8786   -1.8920    0.9996 H   0  0  0  0  0  0  0  0  0  0  0  0
   -3.2846   -2.8280   -0.3984 H   0  0  0  0  0  0  0  0  0  0  0  0
   -1.7586   -2.0580    0.8686 C   0  0  0  0  0  0  0  0  0  0  0  0
   -0.9666   -2.6340    1.6026 O   0  0  0  0  0  0  0  0  0  0  0  0
   -1.4866   -0.9220    0.2366 N   0  0  0  0  0  0  0  0  0  0  0  0
   -2.2166   -0.4790   -0.2994 H   0  0  0  0  0  0  0  0  0  0  0  0
   -0.1956   -0.2250    0.2596 C   0  0  1  0  0  0  0  0  0  0  0  0
    0.5570   -0.8932    0.6792 H   0  0  0  0  0  0  0  0  0  0  0  0
    0.2278    0.1023   -1.1865 C   0  0  0  0  0  0  0  0  0  0  0  0
   -0.5942    0.6373   -1.6645 H   0  0  0  0  0  0  0  0  0  0  0  0
    1.1001    0.7573   -1.1668 H   0  0  0  0  0  0  0  0  0  0  0  0
    0.5520   -1.1445   -2.0266 C   0  0  0  0  0  0  0  0  0  0  0  0
    1.3705   -1.6917   -1.5526 H   0  0  0  0  0  0  0  0  0  0  0  0
   -0.3282   -1.7928   -2.0321 H   0  0  0  0  0  0  0  0  0  0  0  0
    0.9501   -0.8187   -3.4738 C   0  0  0  0  0  0  0  0  0  0  0  0
    0.8469    0.3654   -3.8660 O   0  5  0  0  0  0  0  0  0  0  0  0
    1.3799   -1.7689   -4.1648 O   0  0  0  0  0  0  0  0  0  0  0  0
   -0.2633    1.0216    1.1662 C   0  0  0  0  0  0  0  0  0  0  0  0
    0.1940    2.1010    0.7849 O   0  0  0  0  0  0  0  0  0  0  0  0
   -0.8561    0.8839    2.3594 N   0  0  0  0  0  0  0  0  0  0  0  0
   -1.1580   -0.0417    2.6252 H   0  0  0  0  0  0  0  0  0  0  0  0
   -0.9854    1.9589    3.3397 C   0  0  0  0  0  0  0  0  0  0  0  0
   -1.4181    2.8407    2.8643 H   0  0  0  0  0  0  0  0  0  0  0  0
   -1.6232    1.6396    4.1651 H   0  0  0  0  0  0  0  0  0  0  0  0
    0.0026    2.2183    3.7252 H   0  0  0  0  0  0  0  0  0  0  0  0
  5  6  2  0  0  0  0
  5  7  1  0  0  0  0
  2  3  1  0  0  0  0
  2  4  1  0  0  0  0
  2  5  1  0  0  0  0
  1  2  1  0  0  0  0
 20 21  2  0  0  0  0
 20 22  1  0  0  0  0
 17 18  1  0  0  0  0
 17 19  2  0  0  0  0
 14 15  1  0  0  0  0
 14 16  1  0  0  0  0
 14 17  1  0  0  0  0
 11 12  1  0  0  0  0
 11 13  1  0  0  0  0
 11 14  1  0  0  0  0
  9 10  1  0  0  0  0
  9 11  1  0  0  0  0
  9 20  1  0  0  0  0
  7  8  1  0  0  0  0
  7  9  1  0  0  0  0
 24 25  1  0  0  0  0
 24 26  1  0  0  0  0
 24 27  1  0  0  0  0
 22 23  1  0  0  0  0
 22 24  1  0  0  0  0
M  CHG  1  18  -1
M  END
$$$$
default_name
  -OEChem-01062215323D

 27 26  0     1  0  0  0  0  0999 V2000
   -3.2406   -3.5400    1.2326 H   0  0  0  0  0  0  0  0  0  0  0  0
   -3.1436   -2.6190    0.6606 C   0  0  0  0  0  0  0  0  0  0  0  0
   -3.8786   -1.8920    0.9996 H   0  0  0  0  0  0  0  0  0  0  0  0
   -3.2846   -2.8280   -0.3984 H   0  0  0  0  0  0  0  0  0  0  0  0
   -1.7586   -2.0580    0.8686 C   0  0  0  0  0  0  0  0  0  0  0  0
   -0.9666   -2.6340    1.6026 O   0  0  0  0  0  0  0  0  0  0  0  0
   -1.4866   -0.9220    0.2366 N   0  0  0  0  0  0  0  0  0  0  0  0
   -2.2166   -0.4790   -0.2994 H   0  0  0  0  0  0  0  0  0  0  0  0
   -0.1956   -0.2250    0.2596 C   0  0  1  0  0  0  0  0  0  0  0  0
    0.5570   -0.8932    0.6792 H   0  0  0  0  0  0  0  0  0  0  0  0
    0.2278    0.1023   -1.1865 C   0  0  0  0  0  0  0  0  0  0  0  0
   -0.5942    0.6373   -1.6645 H   0  0  0  0  0  0  0  0  0  0  0  0
    1.1001    0.7573   -1.1668 H   0  0  0  0  0  0  0  0  0  0  0  0
    0.5520   -1.1445   -2.0266 C   0  0  0  0  0  0  0  0  0  0  0  0
    1.3705   -1.6917   -1.5526 H   0  0  0  0  0  0  0  0  0  0  0  0
   -0.3282   -1.7928   -2.0321 H   0  0  0  0  0  0  0  0  0  0  0  0
    0.9501   -0.8187   -3.4738 C   0  0  0  0  0  0  0  0  0  0  0  0
    0.8469    0.3654   -3.8660 O   0  5  0  0  0  0  0  0  0  0  0  0
    1.3799   -1.7689   -4.1648 O   0  0  0  0  0  0  0  0  0  0  0  0
   -0.2633    1.0216    1.1662 C   0  0  0  0  0  0  0  0  0  0  0  0
   -0.0664    2.1468    0.7026 O   0  0  0  0  0  0  0  0  0  0  0  0
   -0.5664    0.8290    2.4566 N   0  0  0  0  0  0  0  0  0  0  0  0
   -0.6608   -0.1239    2.7754 H   0  0  0  0  0  0  0  0  0  0  0  0
   -0.6518    1.8988    3.4473 C   0  0  0  0  0  0  0  0  0  0  0  0
   -1.3041    2.6918    3.0777 H   0  0  0  0  0  0  0  0  0  0  0  0
   -1.0471    1.5098    4.3868 H   0  0  0  0  0  0  0  0  0  0  0  0
    0.3430    2.3148    3.6180 H   0  0  0  0  0  0  0  0  0  0  0  0
  5  6  2  0  0  0  0
  5  7  1  0  0  0  0
  2  3  1  0  0  0  0
  2  4  1  0  0  0  0
  2  5  1  0  0  0  0
  1  2  1  0  0  0  0
 20 21  2  0  0  0  0
 20 22  1  0  0  0  0
 17 18  1  0  0  0  0
 17 19  2  0  0  0  0
 14 15  1  0  0  0  0
 14 16  1  0  0  0  0
 14 17  1  0  0  0  0
 11 12  1  0  0  0  0
 11 13  1  0  0  0  0
 11 14  1  0  0  0  0
  9 10  1  0  0  0  0
  9 11  1  0  0  0  0
  9 20  1  0  0  0  0
  7  8  1  0  0  0  0
  7  9  1  0  0  0  0
 24 25  1  0  0  0  0
 24 26  1  0  0  0  0
 24 27  1  0  0  0  0
 22 23  1  0  0  0  0
 22 24  1  0  0  0  0
M  CHG  1  18  -1
M  END
$$$$
default_name
  -OEChem-01062215323D

 27 26  0     1  0  0  0  0  0999 V2000
   -3.2406   -3.5400    1.2326 H   0  0  0  0  0  0  0  0  0  0  0  0
   -3.1436   -2.6190    0.6606 C   0  0  0  0  0  0  0  0  0  0  0  0
   -3.8786   -1.8920    0.9996 H   0  0  0  0  0  0  0  0  0  0  0  0
   -3.2846   -2.8280   -0.3984 H   0  0  0  0  0  0  0  0  0  0  0  0
   -1.7586   -2.0580    0.8686 C   0  0  0  0  0  0  0  0  0  0  0  0
   -0.9666   -2.6340    1.6026 O   0  0  0  0  0  0  0  0  0  0  0  0
   -1.4866   -0.9220    0.2366 N   0  0  0  0  0  0  0  0  0  0  0  0
   -2.2166   -0.4790   -0.2994 H   0  0  0  0  0  0  0  0  0  0  0  0
   -0.1956   -0.2250    0.2596 C   0  0  1  0  0  0  0  0  0  0  0  0
    0.5570   -0.8932    0.6792 H   0  0  0  0  0  0  0  0  0  0  0  0
    0.2278    0.1023   -1.1865 C   0  0  0  0  0  0  0  0  0  0  0  0
   -0.5942    0.6373   -1.6645 H   0  0  0  0  0  0  0  0  0  0  0  0
    1.1001    0.7573   -1.1668 H   0  0  0  0  0  0  0  0  0  0  0  0
    0.5520   -1.1445   -2.0266 C   0  0  0  0  0  0  0  0  0  0  0  0
    1.3705   -1.6917   -1.5526 H   0  0  0  0  0  0  0  0  0  0  0  0
   -0.3282   -1.7928   -2.0321 H   0  0  0  0  0  0  0  0  0  0  0  0
    0.9501   -0.8187   -3.4738 C   0  0  0  0  0  0  0  0  0  0  0  0
    0.8469    0.3654   -3.8660 O   0  5  0  0  0  0  0  0  0  0  0  0
    1.3799   -1.7689   -4.1648 O   0  0  0  0  0  0  0  0  0  0  0  0
   -0.2633    1.0216    1.1662 C   0  0  0  0  0  0  0  0  0  0  0  0
   -0.3421    2.1504    0.6770 O   0  0  0  0  0  0  0  0  0  0  0  0
   -0.2578    0.8211    2.4905 N   0  0  0  0  0  0  0  0  0  0  0  0
   -0.1365   -0.1259    2.8175 H   0  0  0  0  0  0  0  0  0  0  0  0
   -0.2981    1.8926    3.4823 C   0  0  0  0  0  0  0  0  0  0  0  0
   -1.1267    2.5677    3.2616 H   0  0  0  0  0  0  0  0  0  0  0  0
   -0.4246    1.4745    4.4819 H   0  0  0  0  0  0  0  0  0  0  0  0
    0.6347    2.4585    3.4422 H   0  0  0  0  0  0  0  0  0  0  0  0
  5  6  2  0  0  0  0
  5  7  1  0  0  0  0
  2  3  1  0  0  0  0
  2  4  1  0  0  0  0
  2  5  1  0  0  0  0
  1  2  1  0  0  0  0
 20 21  2  0  0  0  0
 20 22  1  0  0  0  0
 17 18  1  0  0  0  0
 17 19  2  0  0  0  0
 14 15  1  0  0  0  0
 14 16  1  0  0  0  0
 14 17  1  0  0  0  0
 11 12  1  0  0  0  0
 11 13  1  0  0  0  0
 11 14  1  0  0  0  0
  9 10  1  0  0  0  0
  9 11  1  0  0  0  0
  9 20  1  0  0  0  0
  7  8  1  0  0  0  0
  7  9  1  0  0  0  0
 24 25  1  0  0  0  0
 24 26  1  0  0  0  0
 24 27  1  0  0  0  0
 22 23  1  0  0  0  0
 22 24  1  0  0  0  0
M  CHG  1  18  -1
M  END
$$$$
default_name
  -OEChem-01062215323D

 27 26  0     1  0  0  0  0  0999 V2000
   -3.2406   -3.5400    1.2326 H   0  0  0  0  0  0  0  0  0  0  0  0
   -3.1436   -2.6190    0.6606 C   0  0  0  0  0  0  0  0  0  0  0  0
   -3.8786   -1.8920    0.9996 H   0  0  0  0  0  0  0  0  0  0  0  0
   -3.2846   -2.8280   -0.3984 H   0  0  0  0  0  0  0  0  0  0  0  0
   -1.7586   -2.0580    0.8686 C   0  0  0  0  0  0  0  0  0  0  0  0
   -0.9666   -2.6340    1.6026 O   0  0  0  0  0  0  0  0  0  0  0  0
   -1.4866   -0.9220    0.2366 N   0  0  0  0  0  0  0  0  0  0  0  0
   -2.2166   -0.4790   -0.2994 H   0  0  0  0  0  0  0  0  0  0  0  0
   -0.1956   -0.2250    0.2596 C   0  0  1  0  0  0  0  0  0  0  0  0
    0.5570   -0.8932    0.6792 H   0  0  0  0  0  0  0  0  0  0  0  0
    0.2278    0.1023   -1.1865 C   0  0  0  0  0  0  0  0  0  0  0  0
   -0.5942    0.6373   -1.6645 H   0  0  0  0  0  0  0  0  0  0  0  0
    1.1001    0.7573   -1.1668 H   0  0  0  0  0  0  0  0  0  0  0  0
    0.5520   -1.1445   -2.0266 C   0  0  0  0  0  0  0  0  0  0  0  0
    1.3705   -1.6917   -1.5526 H   0  0  0  0  0  0  0  0  0  0  0  0
   -0.3282   -1.7928   -2.0321 H   0  0  0  0  0  0  0  0  0  0  0  0
    0.9501   -0.8187   -3.4738 C   0  0  0  0  0  0  0  0  0  0  0  0
    0.8469    0.3654   -3.8660 O   0  5  0  0  0  0  0  0  0  0  0  0
    1.3799   -1.7689   -4.1648 O   0  0  0  0  0  0  0  0  0  0  0  0
   -0.2633    1.0216    1.1662 C   0  0  0  0  0  0  0  0  0  0  0  0
   -0.6144    2.1117    0.7099 O   0  0  0  0  0  0  0  0  0  0  0  0
    0.0485    0.8608    2.4588 N   0  0  0  0  0  0  0  0  0  0  0  0
    0.3789   -0.0477    2.7485 H   0  0  0  0  0  0  0  0  0  0  0  0
    0.0519    1.9409    3.4421 C   0  0  0  0  0  0  0  0  0  0  0  0
   -0.8979    2.4769    3.4036 H   0  0  0  0  0  0  0  0  0  0  0  0
    0.2019    1.5361    4.4439 H   0  0  0  0  0  0  0  0  0  0  0  0
    0.8579    2.6397    3.2097 H   0  0  0  0  0  0  0  0  0  0  0  0
  5  6  2  0  0  0  0
  5  7  1  0  0  0  0
  2  3  1  0  0  0  0
  2  4  1  0  0  0  0
  2  5  1  0  0  0  0
  1  2  1  0  0  0  0
 20 21  2  0  0  0  0
 20 22  1  0  0  0  0
 17 18  1  0  0  0  0
 17 19  2  0  0  0  0
 14 15  1  0  0  0  0
 14 16  1  0  0  0  0
 14 17  1  0  0  0  0
 11 12  1  0  0  0  0
 11 13  1  0  0  0  0
 11 14  1  0  0  0  0
  9 10  1  0  0  0  0
  9 11  1  0  0  0  0
  9 20  1  0  0  0  0
  7  8  1  0  0  0  0
  7  9  1  0  0  0  0
 24 25  1  0  0  0  0
 24 26  1  0  0  0  0
 24 27  1  0  0  0  0
 22 23  1  0  0  0  0
 22 24  1  0  0  0  0
M  CHG  1  18  -1
M  END
$$$$
default_name
  -OEChem-01062215323D

 27 26  0     1  0  0  0  0  0999 V2000
   -3.2406   -3.5400    1.2326 H   0  0  0  0  0  0  0  0  0  0  0  0
   -3.1436   -2.6190    0.6606 C   0  0  0  0  0  0  0  0  0  0  0  0
   -3.8786   -1.8920    0.9996 H   0  0  0  0  0  0  0  0  0  0  0  0
   -3.2846   -2.8280   -0.3984 H   0  0  0  0  0  0  0  0  0  0  0  0
   -1.7586   -2.0580    0.8686 C   0  0  0  0  0  0  0  0  0  0  0  0
   -0.9666   -2.6340    1.6026 O   0  0  0  0  0  0  0  0  0  0  0  0
   -1.4866   -0.9220    0.2366 N   0  0  0  0  0  0  0  0  0  0  0  0
   -2.2166   -0.4790   -0.2994 H   0  0  0  0  0  0  0  0  0  0  0  0
   -0.1956   -0.2250    0.2596 C   0  0  1  0  0  0  0  0  0  0  0  0
    0.5570   -0.8932    0.6792 H   0  0  0  0  0  0  0  0  0  0  0  0
    0.2278    0.1023   -1.1865 C   0  0  0  0  0  0  0  0  0  0  0  0
   -0.5942    0.6373   -1.6645 H   0  0  0  0  0  0  0  0  0  0  0  0
    1.1001    0.7573   -1.1668 H   0  0  0  0  0  0  0  0  0  0  0  0
    0.5520   -1.1445   -2.0266 C   0  0  0  0  0  0  0  0  0  0  0  0
    1.3705   -1.6917   -1.5526 H   0  0  0  0  0  0  0  0  0  0  0  0
   -0.3282   -1.7928   -2.0321 H   0  0  0  0  0  0  0  0  0  0  0  0
    0.9501   -0.8187   -3.4738 C   0  0  0  0  0  0  0  0  0  0  0  0
    0.8469    0.3654   -3.8660 O   0  5  0  0  0  0  0  0  0  0  0  0
    1.3799   -1.7689   -4.1648 O   0  0  0  0  0  0  0  0  0  0  0  0
   -0.2633    1.0216    1.1662 C   0  0  0  0  0  0  0  0  0  0  0  0
   -0.8645    2.0333    0.7990 O   0  0  0  0  0  0  0  0  0  0  0  0
    0.3317    0.9453    2.3637 N   0  0  0  0  0  0  0  0  0  0  0  0
    0.8505    0.1054    2.5732 H   0  0  0  0  0  0  0  0  0  0  0  0
    0.3742    2.0403    3.3295 C   0  0  0  0  0  0  0  0  0  0  0  0
   -0.6335    2.4256    3.4939 H   0  0  0  0  0  0  0  0  0  0  0  0
    0.7898    1.6905    4.2756 H   0  0  0  0  0  0  0  0  0  0  0  0
    0.9973    2.8460    2.9364 H   0  0  0  0  0  0  0  0  0  0  0  0
  5  6  2  0  0  0  0
  5  7  1  0  0  0  0
  2  3  1  0  0  0  0
  2  4  1  0  0  0  0
  2  5  1  0  0  0  0
  1  2  1  0  0  0  0
 20 21  2  0  0  0  0
 20 22  1  0  0  0  0
 17 18  1  0  0  0  0
 17 19  2  0  0  0  0
 14 15  1  0  0  0  0
 14 16  1  0  0  0  0
 14 17  1  0  0  0  0
 11 12  1  0  0  0  0
 11 13  1  0  0  0  0
 11 14  1  0  0  0  0
  9 10  1  0  0  0  0
  9 11  1  0  0  0  0
  9 20  1  0  0  0  0
  7  8  1  0  0  0  0
  7  9  1  0  0  0  0
 24 25  1  0  0  0  0
 24 26  1  0  0  0  0
 24 27  1  0  0  0  0
 22 23  1  0  0  0  0
 22 24  1  0  0  0  0
M  CHG  1  18  -1
M  END
$$$$
default_name
  -OEChem-01062215323D

 27 26  0     1  0  0  0  0  0999 V2000
   -3.2406   -3.5400    1.2326 H   0  0  0  0  0  0  0  0  0  0  0  0
   -3.1436   -2.6190    0.6606 C   0  0  0  0  0  0  0  0  0  0  0  0
   -3.8786   -1.8920    0.9996 H   0  0  0  0  0  0  0  0  0  0  0  0
   -3.2846   -2.8280   -0.3984 H   0  0  0  0  0  0  0  0  0  0  0  0
   -1.7586   -2.0580    0.8686 C   0  0  0  0  0  0  0  0  0  0  0  0
   -0.9666   -2.6340    1.6026 O   0  0  0  0  0  0  0  0  0  0  0  0
   -1.4866   -0.9220    0.2366 N   0  0  0  0  0  0  0  0  0  0  0  0
   -2.2166   -0.4790   -0.2994 H   0  0  0  0  0  0  0  0  0  0  0  0
   -0.1956   -0.2250    0.2596 C   0  0  1  0  0  0  0  0  0  0  0  0
    0.5570   -0.8932    0.6792 H   0  0  0  0  0  0  0  0  0  0  0  0
    0.2278    0.1023   -1.1865 C   0  0  0  0  0  0  0  0  0  0  0  0
   -0.5942    0.6373   -1.6645 H   0  0  0  0  0  0  0  0  0  0  0  0
    1.1001    0.7573   -1.1668 H   0  0  0  0  0  0  0  0  0  0  0  0
    0.5520   -1.1445   -2.0266 C   0  0  0  0  0  0  0  0  0  0  0  0
    1.3705   -1.6917   -1.5526 H   0  0  0  0  0  0  0  0  0  0  0  0
   -0.3282   -1.7928   -2.0321 H   0  0  0  0  0  0  0  0  0  0  0  0
    0.9501   -0.8187   -3.4738 C   0  0  0  0  0  0  0  0  0  0  0  0
    0.8469    0.3654   -3.8660 O   0  5  0  0  0  0  0  0  0  0  0  0
    1.3799   -1.7689   -4.1648 O   0  0  0  0  0  0  0  0  0  0  0  0
   -0.2633    1.0216    1.1662 C   0  0  0  0  0  0  0  0  0  0  0  0
   -1.0756    1.9205    0.9383 O   0  0  0  0  0  0  0  0  0  0  0  0
    0.5726    1.0690    2.2117 N   0  0  0  0  0  0  0  0  0  0  0  0
    1.2460    0.3230    2.3035 H   0  0  0  0  0  0  0  0  0  0  0  0
    0.6469    2.1840    3.1522 C   0  0  0  0  0  0  0  0  0  0  0  0
   -0.3514    2.4172    3.5265 H   0  0  0  0  0  0  0  0  0  0  0  0
    1.2989    1.9271    3.9883 H   0  0  0  0  0  0  0  0  0  0  0  0
    1.0434    3.0634    2.6410 H   0  0  0  0  0  0  0  0  0  0  0  0
  5  6  2  0  0  0  0
  5  7  1  0  0  0  0
  2  3  1  0  0  0  0
  2  4  1  0  0  0  0
  2  5  1  0  0  0  0
  1  2  1  0  0  0  0
 20 21  2  0  0  0  0
 20 22  1  0  0  0  0
 17 18  1  0  0  0  0
 17 19  2  0  0  0  0
 14 15  1  0  0  0  0
 14 16  1  0  0  0  0
 14 17  1  0  0  0  0
 11 12  1  0  0  0  0
 11 13  1  0  0  0  0
 11 14  1  0  0  0  0
  9 10  1  0  0  0  0
  9 11  1  0  0  0  0
  9 20  1  0  0  0  0
  7  8  1  0  0  0  0
  7  9  1  0  0  0  0
 24 25  1  0  0  0  0
 24 26  1  0  0  0  0
 24 27  1  0  0  0  0
 22 23  1  0  0  0  0
 22 24  1  0  0  0  0
M  CHG  1  18  -1
M  END
$$$$
default_name
  -OEChem-01062215323D

 27 26  0     1  0  0  0  0  0999 V2000
   -3.2406   -3.5400    1.2326 H   0  0  0  0  0  0  0  0  0  0  0  0
   -3.1436   -2.6190    0.6606 C   0  0  0  0  0  0  0  0  0  0  0  0
   -3.8786   -1.8920    0.9996 H   0  0  0  0  0  0  0  0  0  0  0  0
   -3.2846   -2.8280   -0.3984 H   0  0  0  0  0  0  0  0  0  0  0  0
   -1.7586   -2.0580    0.8686 C   0  0  0  0  0  0  0  0  0  0  0  0
   -0.9666   -2.6340    1.6026 O   0  0  0  0  0  0  0  0  0  0  0  0
   -1.4866   -0.9220    0.2366 N   0  0  0  0  0  0  0  0  0  0  0  0
   -2.2166   -0.4790   -0.2994 H   0  0  0  0  0  0  0  0  0  0  0  0
   -0.1956   -0.2250    0.2596 C   0  0  1  0  0  0  0  0  0  0  0  0
    0.5570   -0.8932    0.6792 H   0  0  0  0  0  0  0  0  0  0  0  0
    0.2278    0.1023   -1.1865 C   0  0  0  0  0  0  0  0  0  0  0  0
   -0.5942    0.6373   -1.6645 H   0  0  0  0  0  0  0  0  0  0  0  0
    1.1001    0.7573   -1.1668 H   0  0  0  0  0  0  0  0  0  0  0  0
    0.5520   -1.1445   -2.0266 C   0  0  0  0  0  0  0  0  0  0  0  0
    1.3705   -1.6917   -1.5526 H   0  0  0  0  0  0  0  0  0  0  0  0
   -0.3282   -1.7928   -2.0321 H   0  0  0  0  0  0  0  0  0  0  0  0
    0.9501   -0.8187   -3.4738 C   0  0  0  0  0  0  0  0  0  0  0  0
    0.8469    0.3654   -3.8660 O   0  5  0  0  0  0  0  0  0  0  0  0
    1.3799   -1.7689   -4.1648 O   0  0  0  0  0  0  0  0  0  0  0  0
   -0.2633    1.0216    1.1662 C   0  0  0  0  0  0  0  0  0  0  0  0
   -1.2332    1.7810    1.1183 O   0  0  0  0  0  0  0  0  0  0  0  0
    0.7546    1.2233    2.0130 N   0  0  0  0  0  0  0  0  0  0  0  0
    1.5386    0.5903    1.9578 H   0  0  0  0  0  0  0  0  0  0  0  0
    0.8513    2.3623    2.9224 C   0  0  0  0  0  0  0  0  0  0  0  0
   -0.0708    2.4525    3.4990 H   0  0  0  0  0  0  0  0  0  0  0  0
    1.6947    2.2299    3.6016 H   0  0  0  0  0  0  0  0  0  0  0  0
    0.9931    3.2770    2.3435 H   0  0  0  0  0  0  0  0  0  0  0  0
  5  6  2  0  0  0  0
  5  7  1  0  0  0  0
  2  3  1  0  0  0  0
  2  4  1  0  0  0  0
  2  5  1  0  0  0  0
  1  2  1  0  0  0  0
 20 21  2  0  0  0  0
 20 22  1  0  0  0  0
 17 18  1  0  0  0  0
 17 19  2  0  0  0  0
 14 15  1  0  0  0  0
 14 16  1  0  0  0  0
 14 17  1  0  0  0  0
 11 12  1  0  0  0  0
 11 13  1  0  0  0  0
 11 14  1  0  0  0  0
  9 10  1  0  0  0  0
  9 11  1  0  0  0  0
  9 20  1  0  0  0  0
  7  8  1  0  0  0  0
  7  9  1  0  0  0  0
 24 25  1  0  0  0  0
 24 26  1  0  0  0  0
 24 27  1  0  0  0  0
 22 23  1  0  0  0  0
 22 24  1  0  0  0  0
M  CHG  1  18  -1
M  END
$$$$
default_name
  -OEChem-01062215323D

 27 26  0     1  0  0  0  0  0999 V2000
   -3.2406   -3.5400    1.2326 H   0  0  0  0  0  0  0  0  0  0  0  0
   -3.1436   -2.6190    0.6606 C   0  0  0  0  0  0  0  0  0  0  0  0
   -3.8786   -1.8920    0.9996 H   0  0  0  0  0  0  0  0  0  0  0  0
   -3.2846   -2.8280   -0.3984 H   0  0  0  0  0  0  0  0  0  0  0  0
   -1.7586   -2.0580    0.8686 C   0  0  0  0  0  0  0  0  0  0  0  0
   -0.9666   -2.6340    1.6026 O   0  0  0  0  0  0  0  0  0  0  0  0
   -1.4866   -0.9220    0.2366 N   0  0  0  0  0  0  0  0  0  0  0  0
   -2.2166   -0.4790   -0.2994 H   0  0  0  0  0  0  0  0  0  0  0  0
   -0.1956   -0.2250    0.2596 C   0  0  1  0  0  0  0  0  0  0  0  0
    0.5570   -0.8932    0.6792 H   0  0  0  0  0  0  0  0  0  0  0  0
    0.2278    0.1023   -1.1865 C   0  0  0  0  0  0  0  0  0  0  0  0
   -0.5942    0.6373   -1.6645 H   0  0  0  0  0  0  0  0  0  0  0  0
    1.1001    0.7573   -1.1668 H   0  0  0  0  0  0  0  0  0  0  0  0
    0.5520   -1.1445   -2.0266 C   0  0  0  0  0  0  0  0  0  0  0  0
    1.3705   -1.6917   -1.5526 H   0  0  0  0  0  0  0  0  0  0  0  0
   -0.3282   -1.7928   -2.0321 H   0  0  0  0  0  0  0  0  0  0  0  0
    0.9501   -0.8187   -3.4738 C   0  0  0  0  0  0  0  0  0  0  0  0
    0.8469    0.3654   -3.8660 O   0  5  0  0  0  0  0  0  0  0  0  0
    1.3799   -1.7689   -4.1648 O   0  0  0  0  0  0  0  0  0  0  0  0
   -0.2633    1.0216    1.1662 C   0  0  0  0  0  0  0  0  0  0  0  0
   -1.3266    1.6244    1.3267 O   0  0  0  0  0  0  0  0  0  0  0  0
    0.8654    1.3979    1.7813 N   0  0  0  0  0  0  0  0  0  0  0  0
    1.7083    0.8891    1.5596 H   0  0  0  0  0  0  0  0  0  0  0  0
    0.9736    2.5630    2.6555 C   0  0  0  0  0  0  0  0  0  0  0  0
    0.1891    2.5289    3.4134 H   0  0  0  0  0  0  0  0  0  0  0  0
    1.9500    2.5780    3.1418 H   0  0  0  0  0  0  0  0  0  0  0  0
    0.8498    3.4723    2.0642 H   0  0  0  0  0  0  0  0  0  0  0  0
  5  6  2  0  0  0  0
  5  7  1  0  0  0  0
  2  3  1  0  0  0  0
  2  4  1  0  0  0  0
  2  5  1  0  0  0  0
  1  2  1  0  0  0  0
 20 21  2  0  0  0  0
 20 22  1  0  0  0  0
 17 18  1  0  0  0  0
 17 19  2  0  0  0  0
 14 15  1  0  0  0  0
 14 16  1  0  0  0  0
 14 17  1  0  0  0  0
 11 12  1  0  0  0  0
 11 13  1  0  0  0  0
 11 14  1  0  0  0  0
  9 10  1  0  0  0  0
  9 11  1  0  0  0  0
  9 20  1  0  0  0  0
  7  8  1  0  0  0  0
  7  9  1  0  0  0  0
 24 25  1  0  0  0  0
 24 26  1  0  0  0  0
 24 27  1  0  0  0  0
 22 23  1  0  0  0  0
 22 24  1  0  0  0  0
M  CHG  1  18  -1
M  END
$$$$
default_name
  -OEChem-01062215323D

 27 26  0     1  0  0  0  0  0999 V2000
   -3.2406   -3.5400    1.2326 H   0  0  0  0  0  0  0  0  0  0  0  0
   -3.1436   -2.6190    0.6606 C   0  0  0  0  0  0  0  0  0  0  0  0
   -3.8786   -1.8920    0.9996 H   0  0  0  0  0  0  0  0  0  0  0  0
   -3.2846   -2.8280   -0.3984 H   0  0  0  0  0  0  0  0  0  0  0  0
   -1.7586   -2.0580    0.8686 C   0  0  0  0  0  0  0  0  0  0  0  0
   -0.9666   -2.6340    1.6026 O   0  0  0  0  0  0  0  0  0  0  0  0
   -1.4866   -0.9220    0.2366 N   0  0  0  0  0  0  0  0  0  0  0  0
   -2.2166   -0.4790   -0.2994 H   0  0  0  0  0  0  0  0  0  0  0  0
   -0.1956   -0.2250    0.2596 C   0  0  1  0  0  0  0  0  0  0  0  0
    0.5570   -0.8932    0.6792 H   0  0  0  0  0  0  0  0  0  0  0  0
    0.2278    0.1023   -1.1865 C   0  0  0  0  0  0  0  0  0  0  0  0
   -0.5942    0.6373   -1.6645 H   0  0  0  0  0  0  0  0  0  0  0  0
    1.1001    0.7573   -1.1668 H   0  0  0  0  0  0  0  0  0  0  0  0
    0.5520   -1.1445   -2.0266 C   0  0  0  0  0  0  0  0  0  0  0  0
    1.3705   -1.6917   -1.5526 H   0  0  0  0  0  0  0  0  0  0  0  0
   -0.3282   -1.7928   -2.0321 H   0  0  0  0  0  0  0  0  0  0  0  0
    0.9501   -0.8187   -3.4738 C   0  0  0  0  0  0  0  0  0  0  0  0
    0.8469    0.3654   -3.8660 O   0  5  0  0  0  0  0  0  0  0  0  0
    1.3799   -1.7689   -4.1648 O   0  0  0  0  0  0  0  0  0  0  0  0
   -0.2633    1.0216    1.1662 C   0  0  0  0  0  0  0  0  0  0  0  0
   -1.3494    1.4613    1.5493 O   0  0  0  0  0  0  0  0  0  0  0  0
    0.8974    1.5806    1.5324 N   0  0  0  0  0  0  0  0  0  0  0  0
    1.7435    1.1989    1.1362 H   0  0  0  0  0  0  0  0  0  0  0  0
    1.0054    2.7724    2.3699 C   0  0  0  0  0  0  0  0  0  0  0  0
    0.4107    2.6412    3.2755 H   0  0  0  0  0  0  0  0  0  0  0  0
    2.0476    2.9480    2.6404 H   0  0  0  0  0  0  0  0  0  0  0  0
    0.6233    3.6360    1.8222 H   0  0  0  0  0  0  0  0  0  0  0  0
  5  6  2  0  0  0  0
  5  7  1  0  0  0  0
  2  3  1  0  0  0  0
  2  4  1  0  0  0  0
  2  5  1  0  0  0  0
  1  2  1  0  0  0  0
 20 21  2  0  0  0  0
 20 22  1  0  0  0  0
 17 18  1  0  0  0  0
 17 19  2  0  0  0  0
 14 15  1  0  0  0  0
 14 16  1  0  0  0  0
 14 17  1  0  0  0  0
 11 12  1  0  0  0  0
 11 13  1  0  0  0  0
 11 14  1  0  0  0  0
  9 10  1  0  0  0  0
  9 11  1  0  0  0  0
  9 20  1  0  0  0  0
  7  8  1  0  0  0  0
  7  9  1  0  0  0  0
 24 25  1  0  0  0  0
 24 26  1  0  0  0  0
 24 27  1  0  0  0  0
 22 23  1  0  0  0  0
 22 24  1  0  0  0  0
M  CHG  1  18  -1
M  END
$$$$
default_name
  -OEChem-01062215323D

 27 26  0     1  0  0  0  0  0999 V2000
   -3.2406   -3.5400    1.2326 H   0  0  0  0  0  0  0  0  0  0  0  0
   -3.1436   -2.6190    0.6606 C   0  0  0  0  0  0  0  0  0  0  0  0
   -3.8786   -1.8920    0.9996 H   0  0  0  0  0  0  0  0  0  0  0  0
   -3.2846   -2.8280   -0.3984 H   0  0  0  0  0  0  0  0  0  0  0  0
   -1.7586   -2.0580    0.8686 C   0  0  0  0  0  0  0  0  0  0  0  0
   -0.9666   -2.6340    1.6026 O   0  0  0  0  0  0  0  0  0  0  0  0
   -1.4866   -0.9220    0.2366 N   0  0  0  0  0  0  0  0  0  0  0  0
   -2.2166   -0.4790   -0.2994 H   0  0  0  0  0  0  0  0  0  0  0  0
   -0.1956   -0.2250    0.2596 C   0  0  1  0  0  0  0  0  0  0  0  0
    0.5962   -0.9572    0.4205 H   0  0  0  0  0  0  0  0  0  0  0  0
    0.0494    0.4304   -1.1145 C   0  0  0  0  0  0  0  0  0  0  0  0
   -0.8198    1.0450   -1.3536 H   0  0  0  0  0  0  0  0  0  0  0  0
    0.9241    1.0796   -1.0530 H   0  0  0  0  0  0  0  0  0  0  0  0
    0.2547   -0.5865   -2.2499 C   0  0  0  0  0  0  0  0  0  0  0  0
    1.1198   -1.2122   -2.0171 H   0  0  0  0  0  0  0  0  0  0  0  0
   -0.6260   -1.2326   -2.2952 H   0  0  0  0  0  0  0  0  0  0  0  0
    0.4745    0.0671   -3.6222 C   0  0  0  0  0  0  0  0  0  0  0  0
    0.3357    1.3073   -3.7186 O   0  5  0  0  0  0  0  0  0  0  0  0
    0.8060   -0.6930   -4.5590 O   0  0  0  0  0  0  0  0  0  0  0  0
   -0.1382    0.7813    1.4278 C   0  0  0  0  0  0  0  0  0  0  0  0
   -1.0895    0.8985    2.2030 O   0  0  0  0  0  0  0  0  0  0  0  0
    0.9870    1.4932    1.5728 N   0  0  0  0  0  0  0  0  0  0  0  0
    1.7016    1.3830    0.8686 H   0  0  0  0  0  0  0  0  0  0  0  0
    1.1937    2.4974    2.6130 C   0  0  0  0  0  0  0  0  0  0  0  0
    0.9533    2.0718    3.5887 H   0  0  0  0  0  0  0  0  0  0  0  0
    2.2310    2.8351    2.6081 H   0  0  0  0  0  0  0  0  0  0  0  0
    0.5352    3.3488    2.4306 H   0  0  0  0  0  0  0  0  0  0  0  0
  5  6  2  0  0  0  0
  5  7  1  0  0  0  0
  2  3  1  0  0  0  0
  2  4  1  0  0  0  0
  2  5  1  0  0  0  0
  1  2  1  0  0  0  0
 20 21  2  0  0  0  0
 20 22  1  0  0  0  0
 17 18  1  0  0  0  0
 17 19  2  0  0  0  0
 14 15  1  0  0  0  0
 14 16  1  0  0  0  0
 14 17  1  0  0  0  0
 11 12  1  0  0  0  0
 11 13  1  0  0  0  0
 11 14  1  0  0  0  0
  9 10  1  0  0  0  0
  9 11  1  0  0  0  0
  9 20  1  0  0  0  0
  7  8  1  0  0  0  0
  7  9  1  0  0  0  0
 24 25  1  0  0  0  0
 24 26  1  0  0  0  0
 24 27  1  0  0  0  0
 22 23  1  0  0  0  0
 22 24  1  0  0  0  0
M  CHG  1  18  -1
M  END
$$$$
default_name
  -OEChem-01062215323D

 27 26  0     1  0  0  0  0  0999 V2000
   -3.2406   -3.5400    1.2326 H   0  0  0  0  0  0  0  0  0  0  0  0
   -3.1436   -2.6190    0.6606 C   0  0  0  0  0  0  0  0  0  0  0  0
   -3.8786   -1.8920    0.9996 H   0  0  0  0  0  0  0  0  0  0  0  0
   -3.2846   -2.8280   -0.3984 H   0  0  0  0  0  0  0  0  0  0  0  0
   -1.7586   -2.0580    0.8686 C   0  0  0  0  0  0  0  0  0  0  0  0
   -0.9666   -2.6340    1.6026 O   0  0  0  0  0  0  0  0  0  0  0  0
   -1.4866   -0.9220    0.2366 N   0  0  0  0  0  0  0  0  0  0  0  0
   -2.2166   -0.4790   -0.2994 H   0  0  0  0  0  0  0  0  0  0  0  0
   -0.1956   -0.2250    0.2596 C   0  0  1  0  0  0  0  0  0  0  0  0
    0.5962   -0.9572    0.4205 H   0  0  0  0  0  0  0  0  0  0  0  0
    0.0494    0.4304   -1.1145 C   0  0  0  0  0  0  0  0  0  0  0  0
   -0.8198    1.0450   -1.3536 H   0  0  0  0  0  0  0  0  0  0  0  0
    0.9241    1.0796   -1.0530 H   0  0  0  0  0  0  0  0  0  0  0  0
    0.2547   -0.5865   -2.2499 C   0  0  0  0  0  0  0  0  0  0  0  0
    1.1198   -1.2122   -2.0171 H   0  0  0  0  0  0  0  0  0  0  0  0
   -0.6260   -1.2326   -2.2952 H   0  0  0  0  0  0  0  0  0  0  0  0
    0.4745    0.0671   -3.6222 C   0  0  0  0  0  0  0  0  0  0  0  0
    0.3357    1.3073   -3.7186 O   0  5  0  0  0  0  0  0  0  0  0  0
    0.8060   -0.6930   -4.5590 O   0  0  0  0  0  0  0  0  0  0  0  0
   -0.1382    0.7813    1.4278 C   0  0  0  0  0  0  0  0  0  0  0  0
   -0.9484    0.7146    2.3545 O   0  0  0  0  0  0  0  0  0  0  0  0
    0.8344    1.7017    1.4006 N   0  0  0  0  0  0  0  0  0  0  0  0
    1.4266    1.7293    0.5839 H   0  0  0  0  0  0  0  0  0  0  0  0
    1.0147    2.7345    2.4176 C   0  0  0  0  0  0  0  0  0  0  0  0
    1.0312    2.2769    3.4082 H   0  0  0  0  0  0  0  0  0  0  0  0
    1.9500    3.2696    2.2475 H   0  0  0  0  0  0  0  0  0  0  0  0
    0.1815    3.4383    2.3709 H   0  0  0  0  0  0  0  0  0  0  0  0
  5  6  2  0  0  0  0
  5  7  1  0  0  0  0
  2  3  1  0  0  0  0
  2  4  1  0  0  0  0
  2  5  1  0  0  0  0
  1  2  1  0  0  0  0
 20 21  2  0  0  0  0
 20 22  1  0  0  0  0
 17 18  1  0  0  0  0
 17 19  2  0  0  0  0
 14 15  1  0  0  0  0
 14 16  1  0  0  0  0
 14 17  1  0  0  0  0
 11 12  1  0  0  0  0
 11 13  1  0  0  0  0
 11 14  1  0  0  0  0
  9 10  1  0  0  0  0
  9 11  1  0  0  0  0
  9 20  1  0  0  0  0
  7  8  1  0  0  0  0
  7  9  1  0  0  0  0
 24 25  1  0  0  0  0
 24 26  1  0  0  0  0
 24 27  1  0  0  0  0
 22 23  1  0  0  0  0
 22 24  1  0  0  0  0
M  CHG  1  18  -1
M  END
$$$$
default_name
  -OEChem-01062215323D

 27 26  0     1  0  0  0  0  0999 V2000
   -3.2406   -3.5400    1.2326 H   0  0  0  0  0  0  0  0  0  0  0  0
   -3.1436   -2.6190    0.6606 C   0  0  0  0  0  0  0  0  0  0  0  0
   -3.8786   -1.8920    0.9996 H   0  0  0  0  0  0  0  0  0  0  0  0
   -3.2846   -2.8280   -0.3984 H   0  0  0  0  0  0  0  0  0  0  0  0
   -1.7586   -2.0580    0.8686 C   0  0  0  0  0  0  0  0  0  0  0  0
   -0.9666   -2.6340    1.6026 O   0  0  0  0  0  0  0  0  0  0  0  0
   -1.4866   -0.9220    0.2366 N   0  0  0  0  0  0  0  0  0  0  0  0
   -2.2166   -0.4790   -0.2994 H   0  0  0  0  0  0  0  0  0  0  0  0
   -0.1956   -0.2250    0.2596 C   0  0  1  0  0  0  0  0  0  0  0  0
    0.5962   -0.9572    0.4205 H   0  0  0  0  0  0  0  0  0  0  0  0
    0.0494    0.4304   -1.1145 C   0  0  0  0  0  0  0  0  0  0  0  0
   -0.8198    1.0450   -1.3536 H   0  0  0  0  0  0  0  0  0  0  0  0
    0.9241    1.0796   -1.0530 H   0  0  0  0  0  0  0  0  0  0  0  0
    0.2547   -0.5865   -2.2499 C   0  0  0  0  0  0  0  0  0  0  0  0
    1.1198   -1.2122   -2.0171 H   0  0  0  0  0  0  0  0  0  0  0  0
   -0.6260   -1.2326   -2.2952 H   0  0  0  0  0  0  0  0  0  0  0  0
    0.4745    0.0671   -3.6222 C   0  0  0  0  0  0  0  0  0  0  0  0
    0.3357    1.3073   -3.7186 O   0  5  0  0  0  0  0  0  0  0  0  0
    0.8060   -0.6930   -4.5590 O   0  0  0  0  0  0  0  0  0  0  0  0
   -0.1382    0.7813    1.4278 C   0  0  0  0  0  0  0  0  0  0  0  0
   -0.7505    0.5631    2.4753 O   0  0  0  0  0  0  0  0  0  0  0  0
    0.6171    1.8749    1.2621 N   0  0  0  0  0  0  0  0  0  0  0  0
    1.0451    2.0126    0.3586 H   0  0  0  0  0  0  0  0  0  0  0  0
    0.7624    2.9303    2.2613 C   0  0  0  0  0  0  0  0  0  0  0  0
    1.0357    2.4920    3.2227 H   0  0  0  0  0  0  0  0  0  0  0  0
    1.5326    3.6378    1.9509 H   0  0  0  0  0  0  0  0  0  0  0  0
   -0.1878    3.4560    2.3737 H   0  0  0  0  0  0  0  0  0  0  0  0
  5  6  2  0  0  0  0
  5  7  1  0  0  0  0
  2  3  1  0  0  0  0
  2  4  1  0  0  0  0
  2  5  1  0  0  0  0
  1  2  1  0  0  0  0
 20 21  2  0  0  0  0
 20 22  1  0  0  0  0
 17 18  1  0  0  0  0
 17 19  2  0  0  0  0
 14 15  1  0  0  0  0
 14 16  1  0  0  0  0
 14 17  1  0  0  0  0
 11 12  1  0  0  0  0
 11 13  1  0  0  0  0
 11 14  1  0  0  0  0
  9 10  1  0  0  0  0
  9 11  1  0  0  0  0
  9 20  1  0  0  0  0
  7  8  1  0  0  0  0
  7  9  1  0  0  0  0
 24 25  1  0  0  0  0
 24 26  1  0  0  0  0
 24 27  1  0  0  0  0
 22 23  1  0  0  0  0
 22 24  1  0  0  0  0
M  CHG  1  18  -1
M  END
$$$$
default_name
  -OEChem-01062215323D

 27 26  0     1  0  0  0  0  0999 V2000
   -3.2406   -3.5400    1.2326 H   0  0  0  0  0  0  0  0  0  0  0  0
   -3.1436   -2.6190    0.6606 C   0  0  0  0  0  0  0  0  0  0  0  0
   -3.8786   -1.8920    0.9996 H   0  0  0  0  0  0  0  0  0  0  0  0
   -3.2846   -2.8280   -0.3984 H   0  0  0  0  0  0  0  0  0  0  0  0
   -1.7586   -2.0580    0.8686 C   0  0  0  0  0  0  0  0  0  0  0  0
   -0.9666   -2.6340    1.6026 O   0  0  0  0  0  0  0  0  0  0  0  0
   -1.4866   -0.9220    0.2366 N   0  0  0  0  0  0  0  0  0  0  0  0
   -2.2166   -0.4790   -0.2994 H   0  0  0  0  0  0  0  0  0  0  0  0
   -0.1956   -0.2250    0.2596 C   0  0  1  0  0  0  0  0  0  0  0  0
    0.5962   -0.9572    0.4205 H   0  0  0  0  0  0  0  0  0  0  0  0
    0.0494    0.4304   -1.1145 C   0  0  0  0  0  0  0  0  0  0  0  0
   -0.8198    1.0450   -1.3536 H   0  0  0  0  0  0  0  0  0  0  0  0
    0.9241    1.0796   -1.0530 H   0  0  0  0  0  0  0  0  0  0  0  0
    0.2547   -0.5865   -2.2499 C   0  0  0  0  0  0  0  0  0  0  0  0
    1.1198   -1.2122   -2.0171 H   0  0  0  0  0  0  0  0  0  0  0  0
   -0.6260   -1.2326   -2.2952 H   0  0  0  0  0  0  0  0  0  0  0  0
    0.4745    0.0671   -3.6222 C   0  0  0  0  0  0  0  0  0  0  0  0
    0.3357    1.3073   -3.7186 O   0  5  0  0  0  0  0  0  0  0  0  0
    0.8060   -0.6930   -4.5590 O   0  0  0  0  0  0  0  0  0  0  0  0
   -0.1382    0.7813    1.4278 C   0  0  0  0  0  0  0  0  0  0  0  0
   -0.5093    0.4545    2.5570 O   0  0  0  0  0  0  0  0  0  0  0  0
    0.3498    2.0009    1.1666 N   0  0  0  0  0  0  0  0  0  0  0  0
    0.5831    2.2136    0.2080 H   0  0  0  0  0  0  0  0  0  0  0  0
    0.4539    3.0714    2.1549 C   0  0  0  0  0  0  0  0  0  0  0  0
    0.9666    2.7025    3.0448 H   0  0  0  0  0  0  0  0  0  0  0  0
    1.0071    3.9144    1.7384 H   0  0  0  0  0  0  0  0  0  0  0  0
   -0.5475    3.4007    2.4390 H   0  0  0  0  0  0  0  0  0  0  0  0
  5  6  2  0  0  0  0
  5  7  1  0  0  0  0
  2  3  1  0  0  0  0
  2  4  1  0  0  0  0
  2  5  1  0  0  0  0
  1  2  1  0  0  0  0
 20 21  2  0  0  0  0
 20 22  1  0  0  0  0
 17 18  1  0  0  0  0
 17 19  2  0  0  0  0
 14 15  1  0  0  0  0
 14 16  1  0  0  0  0
 14 17  1  0  0  0  0
 11 12  1  0  0  0  0
 11 13  1  0  0  0  0
 11 14  1  0  0  0  0
  9 10  1  0  0  0  0
  9 11  1  0  0  0  0
  9 20  1  0  0  0  0
  7  8  1  0  0  0  0
  7  9  1  0  0  0  0
 24 25  1  0  0  0  0
 24 26  1  0  0  0  0
 24 27  1  0  0  0  0
 22 23  1  0  0  0  0
 22 24  1  0  0  0  0
M  CHG  1  18  -1
M  END
$$$$
default_name
  -OEChem-01062215323D

 27 26  0     1  0  0  0  0  0999 V2000
   -3.2406   -3.5400    1.2326 H   0  0  0  0  0  0  0  0  0  0  0  0
   -3.1436   -2.6190    0.6606 C   0  0  0  0  0  0  0  0  0  0  0  0
   -3.8786   -1.8920    0.9996 H   0  0  0  0  0  0  0  0  0  0  0  0
   -3.2846   -2.8280   -0.3984 H   0  0  0  0  0  0  0  0  0  0  0  0
   -1.7586   -2.0580    0.8686 C   0  0  0  0  0  0  0  0  0  0  0  0
   -0.9666   -2.6340    1.6026 O   0  0  0  0  0  0  0  0  0  0  0  0
   -1.4866   -0.9220    0.2366 N   0  0  0  0  0  0  0  0  0  0  0  0
   -2.2166   -0.4790   -0.2994 H   0  0  0  0  0  0  0  0  0  0  0  0
   -0.1956   -0.2250    0.2596 C   0  0  1  0  0  0  0  0  0  0  0  0
    0.5962   -0.9572    0.4205 H   0  0  0  0  0  0  0  0  0  0  0  0
    0.0494    0.4304   -1.1145 C   0  0  0  0  0  0  0  0  0  0  0  0
   -0.8198    1.0450   -1.3536 H   0  0  0  0  0  0  0  0  0  0  0  0
    0.9241    1.0796   -1.0530 H   0  0  0  0  0  0  0  0  0  0  0  0
    0.2547   -0.5865   -2.2499 C   0  0  0  0  0  0  0  0  0  0  0  0
    1.1198   -1.2122   -2.0171 H   0  0  0  0  0  0  0  0  0  0  0  0
   -0.6260   -1.2326   -2.2952 H   0  0  0  0  0  0  0  0  0  0  0  0
    0.4745    0.0671   -3.6222 C   0  0  0  0  0  0  0  0  0  0  0  0
    0.3357    1.3073   -3.7186 O   0  5  0  0  0  0  0  0  0  0  0  0
    0.8060   -0.6930   -4.5590 O   0  0  0  0  0  0  0  0  0  0  0  0
   -0.1382    0.7813    1.4278 C   0  0  0  0  0  0  0  0  0  0  0  0
   -0.2412    0.3960    2.5943 O   0  0  0  0  0  0  0  0  0  0  0  0
    0.0509    2.0712    1.1207 N   0  0  0  0  0  0  0  0  0  0  0  0
    0.0720    2.3187    0.1426 H   0  0  0  0  0  0  0  0  0  0  0  0
    0.1103    3.1484    2.1054 C   0  0  0  0  0  0  0  0  0  0  0  0
    0.8287    2.8940    2.8866 H   0  0  0  0  0  0  0  0  0  0  0  0
    0.4095    4.0807    1.6245 H   0  0  0  0  0  0  0  0  0  0  0  0
   -0.8730    3.2762    2.5623 H   0  0  0  0  0  0  0  0  0  0  0  0
  5  6  2  0  0  0  0
  5  7  1  0  0  0  0
  2  3  1  0  0  0  0
  2  4  1  0  0  0  0
  2  5  1  0  0  0  0
  1  2  1  0  0  0  0
 20 21  2  0  0  0  0
 20 22  1  0  0  0  0
 17 18  1  0  0  0  0
 17 19  2  0  0  0  0
 14 15  1  0  0  0  0
 14 16  1  0  0  0  0
 14 17  1  0  0  0  0
 11 12  1  0  0  0  0
 11 13  1  0  0  0  0
 11 14  1  0  0  0  0
  9 10  1  0  0  0  0
  9 11  1  0  0  0  0
  9 20  1  0  0  0  0
  7  8  1  0  0  0  0
  7  9  1  0  0  0  0
 24 25  1  0  0  0  0
 24 26  1  0  0  0  0
 24 27  1  0  0  0  0
 22 23  1  0  0  0  0
 22 24  1  0  0  0  0
M  CHG  1  18  -1
M  END
$$$$
default_name
  -OEChem-01062215323D

 27 26  0     1  0  0  0  0  0999 V2000
   -3.2406   -3.5400    1.2326 H   0  0  0  0  0  0  0  0  0  0  0  0
   -3.1436   -2.6190    0.6606 C   0  0  0  0  0  0  0  0  0  0  0  0
   -3.8786   -1.8920    0.9996 H   0  0  0  0  0  0  0  0  0  0  0  0
   -3.2846   -2.8280   -0.3984 H   0  0  0  0  0  0  0  0  0  0  0  0
   -1.7586   -2.0580    0.8686 C   0  0  0  0  0  0  0  0  0  0  0  0
   -0.9666   -2.6340    1.6026 O   0  0  0  0  0  0  0  0  0  0  0  0
   -1.4866   -0.9220    0.2366 N   0  0  0  0  0  0  0  0  0  0  0  0
   -2.2166   -0.4790   -0.2994 H   0  0  0  0  0  0  0  0  0  0  0  0
   -0.1956   -0.2250    0.2596 C   0  0  1  0  0  0  0  0  0  0  0  0
    0.5962   -0.9572    0.4205 H   0  0  0  0  0  0  0  0  0  0  0  0
    0.0494    0.4304   -1.1145 C   0  0  0  0  0  0  0  0  0  0  0  0
   -0.8198    1.0450   -1.3536 H   0  0  0  0  0  0  0  0  0  0  0  0
    0.9241    1.0796   -1.0530 H   0  0  0  0  0  0  0  0  0  0  0  0
    0.2547   -0.5865   -2.2499 C   0  0  0  0  0  0  0  0  0  0  0  0
    1.1198   -1.2122   -2.0171 H   0  0  0  0  0  0  0  0  0  0  0  0
   -0.6260   -1.2326   -2.2952 H   0  0  0  0  0  0  0  0  0  0  0  0
    0.4745    0.0671   -3.6222 C   0  0  0  0  0  0  0  0  0  0  0  0
    0.3357    1.3073   -3.7186 O   0  5  0  0  0  0  0  0  0  0  0  0
    0.8060   -0.6930   -4.5590 O   0  0  0  0  0  0  0  0  0  0  0  0
   -0.1382    0.7813    1.4278 C   0  0  0  0  0  0  0  0  0  0  0  0
    0.0355    0.3917    2.5844 O   0  0  0  0  0  0  0  0  0  0  0  0
   -0.2594    2.0810    1.1276 N   0  0  0  0  0  0  0  0  0  0  0  0
   -0.4534    2.3207    0.1666 H   0  0  0  0  0  0  0  0  0  0  0  0
   -0.2450    3.1558    2.1165 C   0  0  0  0  0  0  0  0  0  0  0  0
    0.6311    3.0534    2.7589 H   0  0  0  0  0  0  0  0  0  0  0  0
   -0.2196    4.1253    1.6169 H   0  0  0  0  0  0  0  0  0  0  0  0
   -1.1423    3.0909    2.7350 H   0  0  0  0  0  0  0  0  0  0  0  0
  5  6  2  0  0  0  0
  5  7  1  0  0  0  0
  2  3  1  0  0  0  0
  2  4  1  0  0  0  0
  2  5  1  0  0  0  0
  1  2  1  0  0  0  0
 20 21  2  0  0  0  0
 20 22  1  0  0  0  0
 17 18  1  0  0  0  0
 17 19  2  0  0  0  0
 14 15  1  0  0  0  0
 14 16  1  0  0  0  0
 14 17  1  0  0  0  0
 11 12  1  0  0  0  0
 11 13  1  0  0  0  0
 11 14  1  0  0  0  0
  9 10  1  0  0  0  0
  9 11  1  0  0  0  0
  9 20  1  0  0  0  0
  7  8  1  0  0  0  0
  7  9  1  0  0  0  0
 24 25  1  0  0  0  0
 24 26  1  0  0  0  0
 24 27  1  0  0  0  0
 22 23  1  0  0  0  0
 22 24  1  0  0  0  0
M  CHG  1  18  -1
M  END
$$$$
default_name
  -OEChem-01062215323D

 27 26  0     1  0  0  0  0  0999 V2000
   -3.2406   -3.5400    1.2326 H   0  0  0  0  0  0  0  0  0  0  0  0
   -3.1436   -2.6190    0.6606 C   0  0  0  0  0  0  0  0  0  0  0  0
   -3.8786   -1.8920    0.9996 H   0  0  0  0  0  0  0  0  0  0  0  0
   -3.2846   -2.8280   -0.3984 H   0  0  0  0  0  0  0  0  0  0  0  0
   -1.7586   -2.0580    0.8686 C   0  0  0  0  0  0  0  0  0  0  0  0
   -0.9666   -2.6340    1.6026 O   0  0  0  0  0  0  0  0  0  0  0  0
   -1.4866   -0.9220    0.2366 N   0  0  0  0  0  0  0  0  0  0  0  0
   -2.2166   -0.4790   -0.2994 H   0  0  0  0  0  0  0  0  0  0  0  0
   -0.1956   -0.2250    0.2596 C   0  0  1  0  0  0  0  0  0  0  0  0
    0.5962   -0.9572    0.4205 H   0  0  0  0  0  0  0  0  0  0  0  0
    0.0494    0.4304   -1.1145 C   0  0  0  0  0  0  0  0  0  0  0  0
   -0.8198    1.0450   -1.3536 H   0  0  0  0  0  0  0  0  0  0  0  0
    0.9241    1.0796   -1.0530 H   0  0  0  0  0  0  0  0  0  0  0  0
    0.2547   -0.5865   -2.2499 C   0  0  0  0  0  0  0  0  0  0  0  0
    1.1198   -1.2122   -2.0171 H   0  0  0  0  0  0  0  0  0  0  0  0
   -0.6260   -1.2326   -2.2952 H   0  0  0  0  0  0  0  0  0  0  0  0
    0.4745    0.0671   -3.6222 C   0  0  0  0  0  0  0  0  0  0  0  0
    0.3357    1.3073   -3.7186 O   0  5  0  0  0  0  0  0  0  0  0  0
    0.8060   -0.6930   -4.5590 O   0  0  0  0  0  0  0  0  0  0  0  0
   -0.1382    0.7813    1.4278 C   0  0  0  0  0  0  0  0  0  0  0  0
    0.3019    0.4418    2.5281 O   0  0  0  0  0  0  0  0  0  0  0  0
   -0.5598    2.0295    1.1866 N   0  0  0  0  0  0  0  0  0  0  0  0
   -0.9572    2.2194    0.2786 H   0  0  0  0  0  0  0  0  0  0  0  0
   -0.5878    3.0933    2.1871 C   0  0  0  0  0  0  0  0  0  0  0  0
    0.3876    3.1699    2.6705 H   0  0  0  0  0  0  0  0  0  0  0  0
   -0.8372    4.0452    1.7162 H   0  0  0  0  0  0  0  0  0  0  0  0
   -1.3369    2.8576    2.9456 H   0  0  0  0  0  0  0  0  0  0  0  0
  5  6  2  0  0  0  0
  5  7  1  0  0  0  0
  2  3  1  0  0  0  0
  2  4  1  0  0  0  0
  2  5  1  0  0  0  0
  1  2  1  0  0  0  0
 20 21  2  0  0  0  0
 20 22  1  0  0  0  0
 17 18  1  0  0  0  0
 17 19  2  0  0  0  0
 14 15  1  0  0  0  0
 14 16  1  0  0  0  0
 14 17  1  0  0  0  0
 11 12  1  0  0  0  0
 11 13  1  0  0  0  0
 11 14  1  0  0  0  0
  9 10  1  0  0  0  0
  9 11  1  0  0  0  0
  9 20  1  0  0  0  0
  7  8  1  0  0  0  0
  7  9  1  0  0  0  0
 24 25  1  0  0  0  0
 24 26  1  0  0  0  0
 24 27  1  0  0  0  0
 22 23  1  0  0  0  0
 22 24  1  0  0  0  0
M  CHG  1  18  -1
M  END
$$$$
default_name
  -OEChem-01062215323D

 27 26  0     1  0  0  0  0  0999 V2000
   -3.2406   -3.5400    1.2326 H   0  0  0  0  0  0  0  0  0  0  0  0
   -3.1436   -2.6190    0.6606 C   0  0  0  0  0  0  0  0  0  0  0  0
   -3.8786   -1.8920    0.9996 H   0  0  0  0  0  0  0  0  0  0  0  0
   -3.2846   -2.8280   -0.3984 H   0  0  0  0  0  0  0  0  0  0  0  0
   -1.7586   -2.0580    0.8686 C   0  0  0  0  0  0  0  0  0  0  0  0
   -0.9666   -2.6340    1.6026 O   0  0  0  0  0  0  0  0  0  0  0  0
   -1.4866   -0.9220    0.2366 N   0  0  0  0  0  0  0  0  0  0  0  0
   -2.2166   -0.4790   -0.2994 H   0  0  0  0  0  0  0  0  0  0  0  0
   -0.1956   -0.2250    0.2596 C   0  0  1  0  0  0  0  0  0  0  0  0
    0.5962   -0.9572    0.4205 H   0  0  0  0  0  0  0  0  0  0  0  0
    0.0494    0.4304   -1.1145 C   0  0  0  0  0  0  0  0  0  0  0  0
   -0.8198    1.0450   -1.3536 H   0  0  0  0  0  0  0  0  0  0  0  0
    0.9241    1.0796   -1.0530 H   0  0  0  0  0  0  0  0  0  0  0  0
    0.2547   -0.5865   -2.2499 C   0  0  0  0  0  0  0  0  0  0  0  0
    1.1198   -1.2122   -2.0171 H   0  0  0  0  0  0  0  0  0  0  0  0
   -0.6260   -1.2326   -2.2952 H   0  0  0  0  0  0  0  0  0  0  0  0
    0.4745    0.0671   -3.6222 C   0  0  0  0  0  0  0  0  0  0  0  0
    0.3357    1.3073   -3.7186 O   0  5  0  0  0  0  0  0  0  0  0  0
    0.8060   -0.6930   -4.5590 O   0  0  0  0  0  0  0  0  0  0  0  0
   -0.1382    0.7813    1.4278 C   0  0  0  0  0  0  0  0  0  0  0  0
    0.5400    0.5430    2.4293 O   0  0  0  0  0  0  0  0  0  0  0  0
   -0.8300    1.9204    1.2939 N   0  0  0  0  0  0  0  0  0  0  0  0
   -1.4050    2.0218    0.4708 H   0  0  0  0  0  0  0  0  0  0  0  0
   -0.8948    2.9650    2.3127 C   0  0  0  0  0  0  0  0  0  0  0  0
    0.1145    3.2356    2.6274 H   0  0  0  0  0  0  0  0  0  0  0  0
   -1.4014    3.8458    1.9156 H   0  0  0  0  0  0  0  0  0  0  0  0
   -1.4436    2.5920    3.1796 H   0  0  0  0  0  0  0  0  0  0  0  0
  5  6  2  0  0  0  0
  5  7  1  0  0  0  0
  2  3  1  0  0  0  0
  2  4  1  0  0  0  0
  2  5  1  0  0  0  0
  1  2  1  0  0  0  0
 20 21  2  0  0  0  0
 20 22  1  0  0  0  0
 17 18  1  0  0  0  0
 17 19  2  0  0  0  0
 14 15  1  0  0  0  0
 14 16  1  0  0  0  0
 14 17  1  0  0  0  0
 11 12  1  0  0  0  0
 11 13  1  0  0  0  0
 11 14  1  0  0  0  0
  9 10  1  0  0  0  0
  9 11  1  0  0  0  0
  9 20  1  0  0  0  0
  7  8  1  0  0  0  0
  7  9  1  0  0  0  0
 24 25  1  0  0  0  0
 24 26  1  0  0  0  0
 24 27  1  0  0  0  0
 22 23  1  0  0  0  0
 22 24  1  0  0  0  0
M  CHG  1  18  -1
M  END
$$$$
default_name
  -OEChem-01062215323D

 27 26  0     1  0  0  0  0  0999 V2000
   -3.2406   -3.5400    1.2326 H   0  0  0  0  0  0  0  0  0  0  0  0
   -3.1436   -2.6190    0.6606 C   0  0  0  0  0  0  0  0  0  0  0  0
   -3.8786   -1.8920    0.9996 H   0  0  0  0  0  0  0  0  0  0  0  0
   -3.2846   -2.8280   -0.3984 H   0  0  0  0  0  0  0  0  0  0  0  0
   -1.7586   -2.0580    0.8686 C   0  0  0  0  0  0  0  0  0  0  0  0
   -0.9666   -2.6340    1.6026 O   0  0  0  0  0  0  0  0  0  0  0  0
   -1.4866   -0.9220    0.2366 N   0  0  0  0  0  0  0  0  0  0  0  0
   -2.2166   -0.4790   -0.2994 H   0  0  0  0  0  0  0  0  0  0  0  0
   -0.1956   -0.2250    0.2596 C   0  0  1  0  0  0  0  0  0  0  0  0
    0.5962   -0.9572    0.4205 H   0  0  0  0  0  0  0  0  0  0  0  0
    0.0494    0.4304   -1.1145 C   0  0  0  0  0  0  0  0  0  0  0  0
   -0.8198    1.0450   -1.3536 H   0  0  0  0  0  0  0  0  0  0  0  0
    0.9241    1.0796   -1.0530 H   0  0  0  0  0  0  0  0  0  0  0  0
    0.2547   -0.5865   -2.2499 C   0  0  0  0  0  0  0  0  0  0  0  0
    1.1198   -1.2122   -2.0171 H   0  0  0  0  0  0  0  0  0  0  0  0
   -0.6260   -1.2326   -2.2952 H   0  0  0  0  0  0  0  0  0  0  0  0
    0.4745    0.0671   -3.6222 C   0  0  0  0  0  0  0  0  0  0  0  0
    0.3357    1.3073   -3.7186 O   0  5  0  0  0  0  0  0  0  0  0  0
    0.8060   -0.6930   -4.5590 O   0  0  0  0  0  0  0  0  0  0  0  0
   -0.1382    0.7813    1.4278 C   0  0  0  0  0  0  0  0  0  0  0  0
    0.7334    0.6884    2.2946 O   0  0  0  0  0  0  0  0  0  0  0  0
   -1.0515    1.7610    1.4421 N   0  0  0  0  0  0  0  0  0  0  0  0
   -1.7665    1.7414    0.7301 H   0  0  0  0  0  0  0  0  0  0  0  0
   -1.1449    2.7798    2.4845 C   0  0  0  0  0  0  0  0  0  0  0  0
   -0.1693    3.2459    2.6324 H   0  0  0  0  0  0  0  0  0  0  0  0
   -1.8736    3.5407    2.2016 H   0  0  0  0  0  0  0  0  0  0  0  0
   -1.4551    2.3123    3.4211 H   0  0  0  0  0  0  0  0  0  0  0  0
  5  6  2  0  0  0  0
  5  7  1  0  0  0  0
  2  3  1  0  0  0  0
  2  4  1  0  0  0  0
  2  5  1  0  0  0  0
  1  2  1  0  0  0  0
 20 21  2  0  0  0  0
 20 22  1  0  0  0  0
 17 18  1  0  0  0  0
 17 19  2  0  0  0  0
 14 15  1  0  0  0  0
 14 16  1  0  0  0  0
 14 17  1  0  0  0  0
 11 12  1  0  0  0  0
 11 13  1  0  0  0  0
 11 14  1  0  0  0  0
  9 10  1  0  0  0  0
  9 11  1  0  0  0  0
  9 20  1  0  0  0  0
  7  8  1  0  0  0  0
  7  9  1  0  0  0  0
 24 25  1  0  0  0  0
 24 26  1  0  0  0  0
 24 27  1  0  0  0  0
 22 23  1  0  0  0  0
 22 24  1  0  0  0  0
M  CHG  1  18  -1
M  END
$$$$
default_name
  -OEChem-01062215323D

 27 26  0     1  0  0  0  0  0999 V2000
   -3.2406   -3.5400    1.2326 H   0  0  0  0  0  0  0  0  0  0  0  0
   -3.1436   -2.6190    0.6606 C   0  0  0  0  0  0  0  0  0  0  0  0
   -3.8786   -1.8920    0.9996 H   0  0  0  0  0  0  0  0  0  0  0  0
   -3.2846   -2.8280   -0.3984 H   0  0  0  0  0  0  0  0  0  0  0  0
   -1.7586   -2.0580    0.8686 C   0  0  0  0  0  0  0  0  0  0  0  0
   -0.9666   -2.6340    1.6026 O   0  0  0  0  0  0  0  0  0  0  0  0
   -1.4866   -0.9220    0.2366 N   0  0  0  0  0  0  0  0  0  0  0  0
   -2.2166   -0.4790   -0.2994 H   0  0  0  0  0  0  0  0  0  0  0  0
   -0.1956   -0.2250    0.2596 C   0  0  1  0  0  0  0  0  0  0  0  0
    0.5962   -0.9572    0.4205 H   0  0  0  0  0  0  0  0  0  0  0  0
    0.0494    0.4304   -1.1145 C   0  0  0  0  0  0  0  0  0  0  0  0
   -0.8198    1.0450   -1.3536 H   0  0  0  0  0  0  0  0  0  0  0  0
    0.9241    1.0796   -1.0530 H   0  0  0  0  0  0  0  0  0  0  0  0
    0.2547   -0.5865   -2.2499 C   0  0  0  0  0  0  0  0  0  0  0  0
    1.1198   -1.2122   -2.0171 H   0  0  0  0  0  0  0  0  0  0  0  0
   -0.6260   -1.2326   -2.2952 H   0  0  0  0  0  0  0  0  0  0  0  0
    0.4745    0.0671   -3.6222 C   0  0  0  0  0  0  0  0  0  0  0  0
    0.3357    1.3073   -3.7186 O   0  5  0  0  0  0  0  0  0  0  0  0
    0.8060   -0.6930   -4.5590 O   0  0  0  0  0  0  0  0  0  0  0  0
   -0.1382    0.7813    1.4278 C   0  0  0  0  0  0  0  0  0  0  0  0
    0.8690    0.8680    2.1332 O   0  0  0  0  0  0  0  0  0  0  0  0
   -1.2091    1.5622    1.6210 N   0  0  0  0  0  0  0  0  0  0  0  0
   -2.0169    1.3971    1.0389 H   0  0  0  0  0  0  0  0  0  0  0  0
   -1.3213    2.5501    2.6910 C   0  0  0  0  0  0  0  0  0  0  0  0
   -0.4447    3.2002    2.6852 H   0  0  0  0  0  0  0  0  0  0  0  0
   -2.2216    3.1508    2.5546 H   0  0  0  0  0  0  0  0  0  0  0  0
   -1.3706    2.0376    3.6536 H   0  0  0  0  0  0  0  0  0  0  0  0
  5  6  2  0  0  0  0
  5  7  1  0  0  0  0
  2  3  1  0  0  0  0
  2  4  1  0  0  0  0
  2  5  1  0  0  0  0
  1  2  1  0  0  0  0
 20 21  2  0  0  0  0
 20 22  1  0  0  0  0
 17 18  1  0  0  0  0
 17 19  2  0  0  0  0
 14 15  1  0  0  0  0
 14 16  1  0  0  0  0
 14 17  1  0  0  0  0
 11 12  1  0  0  0  0
 11 13  1  0  0  0  0
 11 14  1  0  0  0  0
  9 10  1  0  0  0  0
  9 11  1  0  0  0  0
  9 20  1  0  0  0  0
  7  8  1  0  0  0  0
  7  9  1  0  0  0  0
 24 25  1  0  0  0  0
 24 26  1  0  0  0  0
 24 27  1  0  0  0  0
 22 23  1  0  0  0  0
 22 24  1  0  0  0  0
M  CHG  1  18  -1
M  END
$$$$
default_name
  -OEChem-01062215323D

 27 26  0     1  0  0  0  0  0999 V2000
   -3.2406   -3.5400    1.2326 H   0  0  0  0  0  0  0  0  0  0  0  0
   -3.1436   -2.6190    0.6606 C   0  0  0  0  0  0  0  0  0  0  0  0
   -3.8786   -1.8920    0.9996 H   0  0  0  0  0  0  0  0  0  0  0  0
   -3.2846   -2.8280   -0.3984 H   0  0  0  0  0  0  0  0  0  0  0  0
   -1.7586   -2.0580    0.8686 C   0  0  0  0  0  0  0  0  0  0  0  0
   -0.9666   -2.6340    1.6026 O   0  0  0  0  0  0  0  0  0  0  0  0
   -1.4866   -0.9220    0.2366 N   0  0  0  0  0  0  0  0  0  0  0  0
   -2.2166   -0.4790   -0.2994 H   0  0  0  0  0  0  0  0  0  0  0  0
   -0.1956   -0.2250    0.2596 C   0  0  1  0  0  0  0  0  0  0  0  0
    0.5962   -0.9572    0.4205 H   0  0  0  0  0  0  0  0  0  0  0  0
    0.0494    0.4304   -1.1145 C   0  0  0  0  0  0  0  0  0  0  0  0
   -0.8198    1.0450   -1.3536 H   0  0  0  0  0  0  0  0  0  0  0  0
    0.9241    1.0796   -1.0530 H   0  0  0  0  0  0  0  0  0  0  0  0
    0.2547   -0.5865   -2.2499 C   0  0  0  0  0  0  0  0  0  0  0  0
    1.1198   -1.2122   -2.0171 H   0  0  0  0  0  0  0  0  0  0  0  0
   -0.6260   -1.2326   -2.2952 H   0  0  0  0  0  0  0  0  0  0  0  0
    0.4745    0.0671   -3.6222 C   0  0  0  0  0  0  0  0  0  0  0  0
    0.3357    1.3073   -3.7186 O   0  5  0  0  0  0  0  0  0  0  0  0
    0.8060   -0.6930   -4.5590 O   0  0  0  0  0  0  0  0  0  0  0  0
   -0.1382    0.7813    1.4278 C   0  0  0  0  0  0  0  0  0  0  0  0
    0.9376    1.0696    1.9562 O   0  0  0  0  0  0  0  0  0  0  0  0
   -1.2923    1.3375    1.8186 N   0  0  0  0  0  0  0  0  0  0  0  0
   -2.1391    1.0126    1.3762 H   0  0  0  0  0  0  0  0  0  0  0  0
   -1.4117    2.2918    2.9179 C   0  0  0  0  0  0  0  0  0  0  0  0
   -0.6928    3.1016    2.7823 H   0  0  0  0  0  0  0  0  0  0  0  0
   -2.4218    2.7026    2.9505 H   0  0  0  0  0  0  0  0  0  0  0  0
   -1.1960    1.7865    3.8613 H   0  0  0  0  0  0  0  0  0  0  0  0
  5  6  2  0  0  0  0
  5  7  1  0  0  0  0
  2  3  1  0  0  0  0
  2  4  1  0  0  0  0
  2  5  1  0  0  0  0
  1  2  1  0  0  0  0
 20 21  2  0  0  0  0
 20 22  1  0  0  0  0
 17 18  1  0  0  0  0
 17 19  2  0  0  0  0
 14 15  1  0  0  0  0
 14 16  1  0  0  0  0
 14 17  1  0  0  0  0
 11 12  1  0  0  0  0
 11 13  1  0  0  0  0
 11 14  1  0  0  0  0
  9 10  1  0  0  0  0
  9 11  1  0  0  0  0
  9 20  1  0  0  0  0
  7  8  1  0  0  0  0
  7  9  1  0  0  0  0
 24 25  1  0  0  0  0
 24 26  1  0  0  0  0
 24 27  1  0  0  0  0
 22 23  1  0  0  0  0
 22 24  1  0  0  0  0
M  CHG  1  18  -1
M  END
$$$$
default_name
  -OEChem-01062215323D

 27 26  0     1  0  0  0  0  0999 V2000
   -3.2406   -3.5400    1.2326 H   0  0  0  0  0  0  0  0  0  0  0  0
   -3.1436   -2.6190    0.6606 C   0  0  0  0  0  0  0  0  0  0  0  0
   -3.8786   -1.8920    0.9996 H   0  0  0  0  0  0  0  0  0  0  0  0
   -3.2846   -2.8280   -0.3984 H   0  0  0  0  0  0  0  0  0  0  0  0
   -1.7586   -2.0580    0.8686 C   0  0  0  0  0  0  0  0  0  0  0  0
   -0.9666   -2.6340    1.6026 O   0  0  0  0  0  0  0  0  0  0  0  0
   -1.4866   -0.9220    0.2366 N   0  0  0  0  0  0  0  0  0  0  0  0
   -2.2166   -0.4790   -0.2994 H   0  0  0  0  0  0  0  0  0  0  0  0
   -0.1956   -0.2250    0.2596 C   0  0  1  0  0  0  0  0  0  0  0  0
    0.5962   -0.9572    0.4205 H   0  0  0  0  0  0  0  0  0  0  0  0
    0.0494    0.4304   -1.1145 C   0  0  0  0  0  0  0  0  0  0  0  0
   -0.8198    1.0450   -1.3536 H   0  0  0  0  0  0  0  0  0  0  0  0
    0.9241    1.0796   -1.0530 H   0  0  0  0  0  0  0  0  0  0  0  0
    0.2547   -0.5865   -2.2499 C   0  0  0  0  0  0  0  0  0  0  0  0
    1.1198   -1.2122   -2.0171 H   0  0  0  0  0  0  0  0  0  0  0  0
   -0.6260   -1.2326   -2.2952 H   0  0  0  0  0  0  0  0  0  0  0  0
    0.4745    0.0671   -3.6222 C   0  0  0  0  0  0  0  0  0  0  0  0
    0.3357    1.3073   -3.7186 O   0  5  0  0  0  0  0  0  0  0  0  0
    0.8060   -0.6930   -4.5590 O   0  0  0  0  0  0  0  0  0  0  0  0
   -0.1382    0.7813    1.4278 C   0  0  0  0  0  0  0  0  0  0  0  0
    0.9344    1.2795    1.7756 O   0  0  0  0  0  0  0  0  0  0  0  0
   -1.2952    1.1024    2.0213 N   0  0  0  0  0  0  0  0  0  0  0  0
   -2.1249    0.6139    1.7189 H   0  0  0  0  0  0  0  0  0  0  0  0
   -1.4102    2.0224    3.1500 C   0  0  0  0  0  0  0  0  0  0  0  0
   -0.8968    2.9568    2.9171 H   0  0  0  0  0  0  0  0  0  0  0  0
   -2.4605    2.2265    3.3625 H   0  0  0  0  0  0  0  0  0  0  0  0
   -0.9430    1.5762    4.0301 H   0  0  0  0  0  0  0  0  0  0  0  0
  5  6  2  0  0  0  0
  5  7  1  0  0  0  0
  2  3  1  0  0  0  0
  2  4  1  0  0  0  0
  2  5  1  0  0  0  0
  1  2  1  0  0  0  0
 20 21  2  0  0  0  0
 20 22  1  0  0  0  0
 17 18  1  0  0  0  0
 17 19  2  0  0  0  0
 14 15  1  0  0  0  0
 14 16  1  0  0  0  0
 14 17  1  0  0  0  0
 11 12  1  0  0  0  0
 11 13  1  0  0  0  0
 11 14  1  0  0  0  0
  9 10  1  0  0  0  0
  9 11  1  0  0  0  0
  9 20  1  0  0  0  0
  7  8  1  0  0  0  0
  7  9  1  0  0  0  0
 24 25  1  0  0  0  0
 24 26  1  0  0  0  0
 24 27  1  0  0  0  0
 22 23  1  0  0  0  0
 22 24  1  0  0  0  0
M  CHG  1  18  -1
M  END
$$$$
default_name
  -OEChem-01062215323D

 27 26  0     1  0  0  0  0  0999 V2000
   -3.2406   -3.5400    1.2326 H   0  0  0  0  0  0  0  0  0  0  0  0
   -3.1436   -2.6190    0.6606 C   0  0  0  0  0  0  0  0  0  0  0  0
   -3.8786   -1.8920    0.9996 H   0  0  0  0  0  0  0  0  0  0  0  0
   -3.2846   -2.8280   -0.3984 H   0  0  0  0  0  0  0  0  0  0  0  0
   -1.7586   -2.0580    0.8686 C   0  0  0  0  0  0  0  0  0  0  0  0
   -0.9666   -2.6340    1.6026 O   0  0  0  0  0  0  0  0  0  0  0  0
   -1.4866   -0.9220    0.2366 N   0  0  0  0  0  0  0  0  0  0  0  0
   -2.2166   -0.4790   -0.2994 H   0  0  0  0  0  0  0  0  0  0  0  0
   -0.1956   -0.2250    0.2596 C   0  0  1  0  0  0  0  0  0  0  0  0
    0.5962   -0.9572    0.4205 H   0  0  0  0  0  0  0  0  0  0  0  0
    0.0494    0.4304   -1.1145 C   0  0  0  0  0  0  0  0  0  0  0  0
   -0.8198    1.0450   -1.3536 H   0  0  0  0  0  0  0  0  0  0  0  0
    0.9241    1.0796   -1.0530 H   0  0  0  0  0  0  0  0  0  0  0  0
    0.2547   -0.5865   -2.2499 C   0  0  0  0  0  0  0  0  0  0  0  0
    1.1198   -1.2122   -2.0171 H   0  0  0  0  0  0  0  0  0  0  0  0
   -0.6260   -1.2326   -2.2952 H   0  0  0  0  0  0  0  0  0  0  0  0
    0.4745    0.0671   -3.6222 C   0  0  0  0  0  0  0  0  0  0  0  0
    0.3357    1.3073   -3.7186 O   0  5  0  0  0  0  0  0  0  0  0  0
    0.8060   -0.6930   -4.5590 O   0  0  0  0  0  0  0  0  0  0  0  0
   -0.1382    0.7813    1.4278 C   0  0  0  0  0  0  0  0  0  0  0  0
    0.8597    1.4833    1.6036 O   0  0  0  0  0  0  0  0  0  0  0  0
   -1.2178    0.8727    2.2154 N   0  0  0  0  0  0  0  0  0  0  0  0
   -1.9753    0.2284    2.0437 H   0  0  0  0  0  0  0  0  0  0  0  0
   -1.3167    1.7602    3.3712 C   0  0  0  0  0  0  0  0  0  0  0  0
   -1.0427    2.7757    3.0803 H   0  0  0  0  0  0  0  0  0  0  0  0
   -2.3351    1.7552    3.7623 H   0  0  0  0  0  0  0  0  0  0  0  0
   -0.6290    1.4211    4.1483 H   0  0  0  0  0  0  0  0  0  0  0  0
  5  6  2  0  0  0  0
  5  7  1  0  0  0  0
  2  3  1  0  0  0  0
  2  4  1  0  0  0  0
  2  5  1  0  0  0  0
  1  2  1  0  0  0  0
 20 21  2  0  0  0  0
 20 22  1  0  0  0  0
 17 18  1  0  0  0  0
 17 19  2  0  0  0  0
 14 15  1  0  0  0  0
 14 16  1  0  0  0  0
 14 17  1  0  0  0  0
 11 12  1  0  0  0  0
 11 13  1  0  0  0  0
 11 14  1  0  0  0  0
  9 10  1  0  0  0  0
  9 11  1  0  0  0  0
  9 20  1  0  0  0  0
  7  8  1  0  0  0  0
  7  9  1  0  0  0  0
 24 25  1  0  0  0  0
 24 26  1  0  0  0  0
 24 27  1  0  0  0  0
 22 23  1  0  0  0  0
 22 24  1  0  0  0  0
M  CHG  1  18  -1
M  END
$$$$
default_name
  -OEChem-01062215323D

 27 26  0     1  0  0  0  0  0999 V2000
   -3.2406   -3.5400    1.2326 H   0  0  0  0  0  0  0  0  0  0  0  0
   -3.1436   -2.6190    0.6606 C   0  0  0  0  0  0  0  0  0  0  0  0
   -3.8786   -1.8920    0.9996 H   0  0  0  0  0  0  0  0  0  0  0  0
   -3.2846   -2.8280   -0.3984 H   0  0  0  0  0  0  0  0  0  0  0  0
   -1.7586   -2.0580    0.8686 C   0  0  0  0  0  0  0  0  0  0  0  0
   -0.9666   -2.6340    1.6026 O   0  0  0  0  0  0  0  0  0  0  0  0
   -1.4866   -0.9220    0.2366 N   0  0  0  0  0  0  0  0  0  0  0  0
   -2.2166   -0.4790   -0.2994 H   0  0  0  0  0  0  0  0  0  0  0  0
   -0.1956   -0.2250    0.2596 C   0  0  1  0  0  0  0  0  0  0  0  0
    0.5962   -0.9572    0.4205 H   0  0  0  0  0  0  0  0  0  0  0  0
    0.0494    0.4304   -1.1145 C   0  0  0  0  0  0  0  0  0  0  0  0
   -0.8198    1.0450   -1.3536 H   0  0  0  0  0  0  0  0  0  0  0  0
    0.9241    1.0796   -1.0530 H   0  0  0  0  0  0  0  0  0  0  0  0
    0.2547   -0.5865   -2.2499 C   0  0  0  0  0  0  0  0  0  0  0  0
    1.1198   -1.2122   -2.0171 H   0  0  0  0  0  0  0  0  0  0  0  0
   -0.6260   -1.2326   -2.2952 H   0  0  0  0  0  0  0  0  0  0  0  0
    0.4745    0.0671   -3.6222 C   0  0  0  0  0  0  0  0  0  0  0  0
    0.3357    1.3073   -3.7186 O   0  5  0  0  0  0  0  0  0  0  0  0
    0.8060   -0.6930   -4.5590 O   0  0  0  0  0  0  0  0  0  0  0  0
   -0.1382    0.7813    1.4278 C   0  0  0  0  0  0  0  0  0  0  0  0
    0.7186    1.6672    1.4521 O   0  0  0  0  0  0  0  0  0  0  0  0
   -1.0652    0.6642    2.3876 N   0  0  0  0  0  0  0  0  0  0  0  0
   -1.7003   -0.1179    2.3285 H   0  0  0  0  0  0  0  0  0  0  0  0
   -1.1377    1.5232    3.5667 C   0  0  0  0  0  0  0  0  0  0  0  0
   -1.1206    2.5706    3.2608 H   0  0  0  0  0  0  0  0  0  0  0  0
   -2.0541    1.3207    4.1229 H   0  0  0  0  0  0  0  0  0  0  0  0
   -0.2753    1.3316    4.2081 H   0  0  0  0  0  0  0  0  0  0  0  0
  5  6  2  0  0  0  0
  5  7  1  0  0  0  0
  2  3  1  0  0  0  0
  2  4  1  0  0  0  0
  2  5  1  0  0  0  0
  1  2  1  0  0  0  0
 20 21  2  0  0  0  0
 20 22  1  0  0  0  0
 17 18  1  0  0  0  0
 17 19  2  0  0  0  0
 14 15  1  0  0  0  0
 14 16  1  0  0  0  0
 14 17  1  0  0  0  0
 11 12  1  0  0  0  0
 11 13  1  0  0  0  0
 11 14  1  0  0  0  0
  9 10  1  0  0  0  0
  9 11  1  0  0  0  0
  9 20  1  0  0  0  0
  7  8  1  0  0  0  0
  7  9  1  0  0  0  0
 24 25  1  0  0  0  0
 24 26  1  0  0  0  0
 24 27  1  0  0  0  0
 22 23  1  0  0  0  0
 22 24  1  0  0  0  0
M  CHG  1  18  -1
M  END
$$$$
default_name
  -OEChem-01062215323D

 27 26  0     1  0  0  0  0  0999 V2000
   -3.2406   -3.5400    1.2326 H   0  0  0  0  0  0  0  0  0  0  0  0
   -3.1436   -2.6190    0.6606 C   0  0  0  0  0  0  0  0  0  0  0  0
   -3.8786   -1.8920    0.9996 H   0  0  0  0  0  0  0  0  0  0  0  0
   -3.2846   -2.8280   -0.3984 H   0  0  0  0  0  0  0  0  0  0  0  0
   -1.7586   -2.0580    0.8686 C   0  0  0  0  0  0  0  0  0  0  0  0
   -0.9666   -2.6340    1.6026 O   0  0  0  0  0  0  0  0  0  0  0  0
   -1.4866   -0.9220    0.2366 N   0  0  0  0  0  0  0  0  0  0  0  0
   -2.2166   -0.4790   -0.2994 H   0  0  0  0  0  0  0  0  0  0  0  0
   -0.1956   -0.2250    0.2596 C   0  0  1  0  0  0  0  0  0  0  0  0
    0.5962   -0.9572    0.4205 H   0  0  0  0  0  0  0  0  0  0  0  0
    0.0494    0.4304   -1.1145 C   0  0  0  0  0  0  0  0  0  0  0  0
   -0.8198    1.0450   -1.3536 H   0  0  0  0  0  0  0  0  0  0  0  0
    0.9241    1.0796   -1.0530 H   0  0  0  0  0  0  0  0  0  0  0  0
    0.2547   -0.5865   -2.2499 C   0  0  0  0  0  0  0  0  0  0  0  0
    1.1198   -1.2122   -2.0171 H   0  0  0  0  0  0  0  0  0  0  0  0
   -0.6260   -1.2326   -2.2952 H   0  0  0  0  0  0  0  0  0  0  0  0
    0.4745    0.0671   -3.6222 C   0  0  0  0  0  0  0  0  0  0  0  0
    0.3357    1.3073   -3.7186 O   0  5  0  0  0  0  0  0  0  0  0  0
    0.8060   -0.6930   -4.5590 O   0  0  0  0  0  0  0  0  0  0  0  0
   -0.1382    0.7813    1.4278 C   0  0  0  0  0  0  0  0  0  0  0  0
    0.5207    1.8186    1.3314 O   0  0  0  0  0  0  0  0  0  0  0  0
   -0.8478    0.4910    2.5261 N   0  0  0  0  0  0  0  0  0  0  0  0
   -1.3188   -0.4012    2.5538 H   0  0  0  0  0  0  0  0  0  0  0  0
   -0.8854    1.3274    3.7229 C   0  0  0  0  0  0  0  0  0  0  0  0
   -1.1251    2.3555    3.4463 H   0  0  0  0  0  0  0  0  0  0  0  0
   -1.6366    0.9525    4.4195 H   0  0  0  0  0  0  0  0  0  0  0  0
    0.0940    1.3139    4.2052 H   0  0  0  0  0  0  0  0  0  0  0  0
  5  6  2  0  0  0  0
  5  7  1  0  0  0  0
  2  3  1  0  0  0  0
  2  4  1  0  0  0  0
  2  5  1  0  0  0  0
  1  2  1  0  0  0  0
 20 21  2  0  0  0  0
 20 22  1  0  0  0  0
 17 18  1  0  0  0  0
 17 19  2  0  0  0  0
 14 15  1  0  0  0  0
 14 16  1  0  0  0  0
 14 17  1  0  0  0  0
 11 12  1  0  0  0  0
 11 13  1  0  0  0  0
 11 14  1  0  0  0  0
  9 10  1  0  0  0  0
  9 11  1  0  0  0  0
  9 20  1  0  0  0  0
  7  8  1  0  0  0  0
  7  9  1  0  0  0  0
 24 25  1  0  0  0  0
 24 26  1  0  0  0  0
 24 27  1  0  0  0  0
 22 23  1  0  0  0  0
 22 24  1  0  0  0  0
M  CHG  1  18  -1
M  END
$$$$
default_name
  -OEChem-01062215323D

 27 26  0     1  0  0  0  0  0999 V2000
   -3.2406   -3.5400    1.2326 H   0  0  0  0  0  0  0  0  0  0  0  0
   -3.1436   -2.6190    0.6606 C   0  0  0  0  0  0  0  0  0  0  0  0
   -3.8786   -1.8920    0.9996 H   0  0  0  0  0  0  0  0  0  0  0  0
   -3.2846   -2.8280   -0.3984 H   0  0  0  0  0  0  0  0  0  0  0  0
   -1.7586   -2.0580    0.8686 C   0  0  0  0  0  0  0  0  0  0  0  0
   -0.9666   -2.6340    1.6026 O   0  0  0  0  0  0  0  0  0  0  0  0
   -1.4866   -0.9220    0.2366 N   0  0  0  0  0  0  0  0  0  0  0  0
   -2.2166   -0.4790   -0.2994 H   0  0  0  0  0  0  0  0  0  0  0  0
   -0.1956   -0.2250    0.2596 C   0  0  1  0  0  0  0  0  0  0  0  0
    0.5962   -0.9572    0.4205 H   0  0  0  0  0  0  0  0  0  0  0  0
    0.0494    0.4304   -1.1145 C   0  0  0  0  0  0  0  0  0  0  0  0
   -0.8198    1.0450   -1.3536 H   0  0  0  0  0  0  0  0  0  0  0  0
    0.9241    1.0796   -1.0530 H   0  0  0  0  0  0  0  0  0  0  0  0
    0.2547   -0.5865   -2.2499 C   0  0  0  0  0  0  0  0  0  0  0  0
    1.1198   -1.2122   -2.0171 H   0  0  0  0  0  0  0  0  0  0  0  0
   -0.6260   -1.2326   -2.2952 H   0  0  0  0  0  0  0  0  0  0  0  0
    0.4745    0.0671   -3.6222 C   0  0  0  0  0  0  0  0  0  0  0  0
    0.3357    1.3073   -3.7186 O   0  5  0  0  0  0  0  0  0  0  0  0
    0.8060   -0.6930   -4.5590 O   0  0  0  0  0  0  0  0  0  0  0  0
   -0.1382    0.7813    1.4278 C   0  0  0  0  0  0  0  0  0  0  0  0
    0.2795    1.9273    1.2496 O   0  0  0  0  0  0  0  0  0  0  0  0
   -0.5806    0.3649    2.6215 N   0  0  0  0  0  0  0  0  0  0  0  0
   -0.8568   -0.6022    2.7043 H   0  0  0  0  0  0  0  0  0  0  0  0
   -0.5769    1.1862    3.8294 C   0  0  0  0  0  0  0  0  0  0  0  0
   -1.0561    2.1450    3.6242 H   0  0  0  0  0  0  0  0  0  0  0  0
   -1.1112    0.6759    4.6320 H   0  0  0  0  0  0  0  0  0  0  0  0
    0.4536    1.3692    4.1399 H   0  0  0  0  0  0  0  0  0  0  0  0
  5  6  2  0  0  0  0
  5  7  1  0  0  0  0
  2  3  1  0  0  0  0
  2  4  1  0  0  0  0
  2  5  1  0  0  0  0
  1  2  1  0  0  0  0
 20 21  2  0  0  0  0
 20 22  1  0  0  0  0
 17 18  1  0  0  0  0
 17 19  2  0  0  0  0
 14 15  1  0  0  0  0
 14 16  1  0  0  0  0
 14 17  1  0  0  0  0
 11 12  1  0  0  0  0
 11 13  1  0  0  0  0
 11 14  1  0  0  0  0
  9 10  1  0  0  0  0
  9 11  1  0  0  0  0
  9 20  1  0  0  0  0
  7  8  1  0  0  0  0
  7  9  1  0  0  0  0
 24 25  1  0  0  0  0
 24 26  1  0  0  0  0
 24 27  1  0  0  0  0
 22 23  1  0  0  0  0
 22 24  1  0  0  0  0
M  CHG  1  18  -1
M  END
$$$$
default_name
  -OEChem-01062215323D

 27 26  0     1  0  0  0  0  0999 V2000
   -3.2406   -3.5400    1.2326 H   0  0  0  0  0  0  0  0  0  0  0  0
   -3.1436   -2.6190    0.6606 C   0  0  0  0  0  0  0  0  0  0  0  0
   -3.8786   -1.8920    0.9996 H   0  0  0  0  0  0  0  0  0  0  0  0
   -3.2846   -2.8280   -0.3984 H   0  0  0  0  0  0  0  0  0  0  0  0
   -1.7586   -2.0580    0.8686 C   0  0  0  0  0  0  0  0  0  0  0  0
   -0.9666   -2.6340    1.6026 O   0  0  0  0  0  0  0  0  0  0  0  0
   -1.4866   -0.9220    0.2366 N   0  0  0  0  0  0  0  0  0  0  0  0
   -2.2166   -0.4790   -0.2994 H   0  0  0  0  0  0  0  0  0  0  0  0
   -0.1956   -0.2250    0.2596 C   0  0  1  0  0  0  0  0  0  0  0  0
    0.5962   -0.9572    0.4205 H   0  0  0  0  0  0  0  0  0  0  0  0
    0.0494    0.4304   -1.1145 C   0  0  0  0  0  0  0  0  0  0  0  0
   -0.8198    1.0450   -1.3536 H   0  0  0  0  0  0  0  0  0  0  0  0
    0.9241    1.0796   -1.0530 H   0  0  0  0  0  0  0  0  0  0  0  0
    0.2547   -0.5865   -2.2499 C   0  0  0  0  0  0  0  0  0  0  0  0
    1.1198   -1.2122   -2.0171 H   0  0  0  0  0  0  0  0  0  0  0  0
   -0.6260   -1.2326   -2.2952 H   0  0  0  0  0  0  0  0  0  0  0  0
    0.4745    0.0671   -3.6222 C   0  0  0  0  0  0  0  0  0  0  0  0
    0.3357    1.3073   -3.7186 O   0  5  0  0  0  0  0  0  0  0  0  0
    0.8060   -0.6930   -4.5590 O   0  0  0  0  0  0  0  0  0  0  0  0
   -0.1382    0.7813    1.4278 C   0  0  0  0  0  0  0  0  0  0  0  0
    0.0114    1.9858    1.2124 O   0  0  0  0  0  0  0  0  0  0  0  0
   -0.2817    0.2947    2.6674 N   0  0  0  0  0  0  0  0  0  0  0  0
   -0.3457   -0.7073    2.7698 H   0  0  0  0  0  0  0  0  0  0  0  0
   -0.2333    1.1093    3.8788 C   0  0  0  0  0  0  0  0  0  0  0  0
   -0.9181    1.9535    3.7824 H   0  0  0  0  0  0  0  0  0  0  0  0
   -0.5136    0.5096    4.7460 H   0  0  0  0  0  0  0  0  0  0  0  0
    0.7792    1.4937    4.0167 H   0  0  0  0  0  0  0  0  0  0  0  0
  5  6  2  0  0  0  0
  5  7  1  0  0  0  0
  2  3  1  0  0  0  0
  2  4  1  0  0  0  0
  2  5  1  0  0  0  0
  1  2  1  0  0  0  0
 20 21  2  0  0  0  0
 20 22  1  0  0  0  0
 17 18  1  0  0  0  0
 17 19  2  0  0  0  0
 14 15  1  0  0  0  0
 14 16  1  0  0  0  0
 14 17  1  0  0  0  0
 11 12  1  0  0  0  0
 11 13  1  0  0  0  0
 11 14  1  0  0  0  0
  9 10  1  0  0  0  0
  9 11  1  0  0  0  0
  9 20  1  0  0  0  0
  7  8  1  0  0  0  0
  7  9  1  0  0  0  0
 24 25  1  0  0  0  0
 24 26  1  0  0  0  0
 24 27  1  0  0  0  0
 22 23  1  0  0  0  0
 22 24  1  0  0  0  0
M  CHG  1  18  -1
M  END
$$$$
default_name
  -OEChem-01062215323D

 27 26  0     1  0  0  0  0  0999 V2000
   -3.2406   -3.5400    1.2326 H   0  0  0  0  0  0  0  0  0  0  0  0
   -3.1436   -2.6190    0.6606 C   0  0  0  0  0  0  0  0  0  0  0  0
   -3.8786   -1.8920    0.9996 H   0  0  0  0  0  0  0  0  0  0  0  0
   -3.2846   -2.8280   -0.3984 H   0  0  0  0  0  0  0  0  0  0  0  0
   -1.7586   -2.0580    0.8686 C   0  0  0  0  0  0  0  0  0  0  0  0
   -0.9666   -2.6340    1.6026 O   0  0  0  0  0  0  0  0  0  0  0  0
   -1.4866   -0.9220    0.2366 N   0  0  0  0  0  0  0  0  0  0  0  0
   -2.2166   -0.4790   -0.2994 H   0  0  0  0  0  0  0  0  0  0  0  0
   -0.1956   -0.2250    0.2596 C   0  0  1  0  0  0  0  0  0  0  0  0
    0.5962   -0.9572    0.4205 H   0  0  0  0  0  0  0  0  0  0  0  0
    0.0494    0.4304   -1.1145 C   0  0  0  0  0  0  0  0  0  0  0  0
   -0.8198    1.0450   -1.3536 H   0  0  0  0  0  0  0  0  0  0  0  0
    0.9241    1.0796   -1.0530 H   0  0  0  0  0  0  0  0  0  0  0  0
    0.2547   -0.5865   -2.2499 C   0  0  0  0  0  0  0  0  0  0  0  0
    1.1198   -1.2122   -2.0171 H   0  0  0  0  0  0  0  0  0  0  0  0
   -0.6260   -1.2326   -2.2952 H   0  0  0  0  0  0  0  0  0  0  0  0
    0.4745    0.0671   -3.6222 C   0  0  0  0  0  0  0  0  0  0  0  0
    0.3357    1.3073   -3.7186 O   0  5  0  0  0  0  0  0  0  0  0  0
    0.8060   -0.6930   -4.5590 O   0  0  0  0  0  0  0  0  0  0  0  0
   -0.1382    0.7813    1.4278 C   0  0  0  0  0  0  0  0  0  0  0  0
   -0.2653    1.9901    1.2222 O   0  0  0  0  0  0  0  0  0  0  0  0
    0.0286    0.2849    2.6606 N   0  0  0  0  0  0  0  0  0  0  0  0
    0.1797   -0.7093    2.7457 H   0  0  0  0  0  0  0  0  0  0  0  0
    0.1220    1.1018    3.8678 C   0  0  0  0  0  0  0  0  0  0  0  0
   -0.7206    1.7941    3.9100 H   0  0  0  0  0  0  0  0  0  0  0  0
    0.1155    0.4650    4.7535 H   0  0  0  0  0  0  0  0  0  0  0  0
    1.0484    1.6790    3.8439 H   0  0  0  0  0  0  0  0  0  0  0  0
  5  6  2  0  0  0  0
  5  7  1  0  0  0  0
  2  3  1  0  0  0  0
  2  4  1  0  0  0  0
  2  5  1  0  0  0  0
  1  2  1  0  0  0  0
 20 21  2  0  0  0  0
 20 22  1  0  0  0  0
 17 18  1  0  0  0  0
 17 19  2  0  0  0  0
 14 15  1  0  0  0  0
 14 16  1  0  0  0  0
 14 17  1  0  0  0  0
 11 12  1  0  0  0  0
 11 13  1  0  0  0  0
 11 14  1  0  0  0  0
  9 10  1  0  0  0  0
  9 11  1  0  0  0  0
  9 20  1  0  0  0  0
  7  8  1  0  0  0  0
  7  9  1  0  0  0  0
 24 25  1  0  0  0  0
 24 26  1  0  0  0  0
 24 27  1  0  0  0  0
 22 23  1  0  0  0  0
 22 24  1  0  0  0  0
M  CHG  1  18  -1
M  END
$$$$
default_name
  -OEChem-01062215323D

 27 26  0     1  0  0  0  0  0999 V2000
   -3.2406   -3.5400    1.2326 H   0  0  0  0  0  0  0  0  0  0  0  0
   -3.1436   -2.6190    0.6606 C   0  0  0  0  0  0  0  0  0  0  0  0
   -3.8786   -1.8920    0.9996 H   0  0  0  0  0  0  0  0  0  0  0  0
   -3.2846   -2.8280   -0.3984 H   0  0  0  0  0  0  0  0  0  0  0  0
   -1.7586   -2.0580    0.8686 C   0  0  0  0  0  0  0  0  0  0  0  0
   -0.9666   -2.6340    1.6026 O   0  0  0  0  0  0  0  0  0  0  0  0
   -1.4866   -0.9220    0.2366 N   0  0  0  0  0  0  0  0  0  0  0  0
   -2.2166   -0.4790   -0.2994 H   0  0  0  0  0  0  0  0  0  0  0  0
   -0.1956   -0.2250    0.2596 C   0  0  1  0  0  0  0  0  0  0  0  0
    0.5962   -0.9572    0.4205 H   0  0  0  0  0  0  0  0  0  0  0  0
    0.0494    0.4304   -1.1145 C   0  0  0  0  0  0  0  0  0  0  0  0
   -0.8198    1.0450   -1.3536 H   0  0  0  0  0  0  0  0  0  0  0  0
    0.9241    1.0796   -1.0530 H   0  0  0  0  0  0  0  0  0  0  0  0
    0.2547   -0.5865   -2.2499 C   0  0  0  0  0  0  0  0  0  0  0  0
    1.1198   -1.2122   -2.0171 H   0  0  0  0  0  0  0  0  0  0  0  0
   -0.6260   -1.2326   -2.2952 H   0  0  0  0  0  0  0  0  0  0  0  0
    0.4745    0.0671   -3.6222 C   0  0  0  0  0  0  0  0  0  0  0  0
    0.3357    1.3073   -3.7186 O   0  5  0  0  0  0  0  0  0  0  0  0
    0.8060   -0.6930   -4.5590 O   0  0  0  0  0  0  0  0  0  0  0  0
   -0.1382    0.7813    1.4278 C   0  0  0  0  0  0  0  0  0  0  0  0
   -0.5318    1.9399    1.2785 O   0  0  0  0  0  0  0  0  0  0  0  0
    0.3291    0.3364    2.6015 N   0  0  0  0  0  0  0  0  0  0  0  0
    0.6834   -0.6080    2.6338 H   0  0  0  0  0  0  0  0  0  0  0  0
    0.4648    1.1644    3.7971 C   0  0  0  0  0  0  0  0  0  0  0  0
   -0.4770    1.6776    3.9985 H   0  0  0  0  0  0  0  0  0  0  0  0
    0.7332    0.5451    4.6542 H   0  0  0  0  0  0  0  0  0  0  0  0
    1.2430    1.9124    3.6333 H   0  0  0  0  0  0  0  0  0  0  0  0
  5  6  2  0  0  0  0
  5  7  1  0  0  0  0
  2  3  1  0  0  0  0
  2  4  1  0  0  0  0
  2  5  1  0  0  0  0
  1  2  1  0  0  0  0
 20 21  2  0  0  0  0
 20 22  1  0  0  0  0
 17 18  1  0  0  0  0
 17 19  2  0  0  0  0
 14 15  1  0  0  0  0
 14 16  1  0  0  0  0
 14 17  1  0  0  0  0
 11 12  1  0  0  0  0
 11 13  1  0  0  0  0
 11 14  1  0  0  0  0
  9 10  1  0  0  0  0
  9 11  1  0  0  0  0
  9 20  1  0  0  0  0
  7  8  1  0  0  0  0
  7  9  1  0  0  0  0
 24 25  1  0  0  0  0
 24 26  1  0  0  0  0
 24 27  1  0  0  0  0
 22 23  1  0  0  0  0
 22 24  1  0  0  0  0
M  CHG  1  18  -1
M  END
$$$$
default_name
  -OEChem-01062215323D

 27 26  0     1  0  0  0  0  0999 V2000
   -3.2406   -3.5400    1.2326 H   0  0  0  0  0  0  0  0  0  0  0  0
   -3.1436   -2.6190    0.6606 C   0  0  0  0  0  0  0  0  0  0  0  0
   -3.8786   -1.8920    0.9996 H   0  0  0  0  0  0  0  0  0  0  0  0
   -3.2846   -2.8280   -0.3984 H   0  0  0  0  0  0  0  0  0  0  0  0
   -1.7586   -2.0580    0.8686 C   0  0  0  0  0  0  0  0  0  0  0  0
   -0.9666   -2.6340    1.6026 O   0  0  0  0  0  0  0  0  0  0  0  0
   -1.4866   -0.9220    0.2366 N   0  0  0  0  0  0  0  0  0  0  0  0
   -2.2166   -0.4790   -0.2994 H   0  0  0  0  0  0  0  0  0  0  0  0
   -0.1956   -0.2250    0.2596 C   0  0  1  0  0  0  0  0  0  0  0  0
    0.5962   -0.9572    0.4205 H   0  0  0  0  0  0  0  0  0  0  0  0
    0.0494    0.4304   -1.1145 C   0  0  0  0  0  0  0  0  0  0  0  0
   -0.8198    1.0450   -1.3536 H   0  0  0  0  0  0  0  0  0  0  0  0
    0.9241    1.0796   -1.0530 H   0  0  0  0  0  0  0  0  0  0  0  0
    0.2547   -0.5865   -2.2499 C   0  0  0  0  0  0  0  0  0  0  0  0
    1.1198   -1.2122   -2.0171 H   0  0  0  0  0  0  0  0  0  0  0  0
   -0.6260   -1.2326   -2.2952 H   0  0  0  0  0  0  0  0  0  0  0  0
    0.4745    0.0671   -3.6222 C   0  0  0  0  0  0  0  0  0  0  0  0
    0.3357    1.3073   -3.7186 O   0  5  0  0  0  0  0  0  0  0  0  0
    0.8060   -0.6930   -4.5590 O   0  0  0  0  0  0  0  0  0  0  0  0
   -0.1382    0.7813    1.4278 C   0  0  0  0  0  0  0  0  0  0  0  0
   -0.7698    1.8387    1.3774 O   0  0  0  0  0  0  0  0  0  0  0  0
    0.5993    0.4455    2.4943 N   0  0  0  0  0  0  0  0  0  0  0  0
    1.1313   -0.4104    2.4416 H   0  0  0  0  0  0  0  0  0  0  0  0
    0.7718    1.2926    3.6716 C   0  0  0  0  0  0  0  0  0  0  0  0
   -0.2040    1.6119    4.0416 H   0  0  0  0  0  0  0  0  0  0  0  0
    1.2973    0.7445    4.4548 H   0  0  0  0  0  0  0  0  0  0  0  0
    1.3497    2.1779    3.3993 H   0  0  0  0  0  0  0  0  0  0  0  0
  5  6  2  0  0  0  0
  5  7  1  0  0  0  0
  2  3  1  0  0  0  0
  2  4  1  0  0  0  0
  2  5  1  0  0  0  0
  1  2  1  0  0  0  0
 20 21  2  0  0  0  0
 20 22  1  0  0  0  0
 17 18  1  0  0  0  0
 17 19  2  0  0  0  0
 14 15  1  0  0  0  0
 14 16  1  0  0  0  0
 14 17  1  0  0  0  0
 11 12  1  0  0  0  0
 11 13  1  0  0  0  0
 11 14  1  0  0  0  0
  9 10  1  0  0  0  0
  9 11  1  0  0  0  0
  9 20  1  0  0  0  0
  7  8  1  0  0  0  0
  7  9  1  0  0  0  0
 24 25  1  0  0  0  0
 24 26  1  0  0  0  0
 24 27  1  0  0  0  0
 22 23  1  0  0  0  0
 22 24  1  0  0  0  0
M  CHG  1  18  -1
M  END
$$$$
default_name
  -OEChem-01062215323D

 27 26  0     1  0  0  0  0  0999 V2000
   -3.2406   -3.5400    1.2326 H   0  0  0  0  0  0  0  0  0  0  0  0
   -3.1436   -2.6190    0.6606 C   0  0  0  0  0  0  0  0  0  0  0  0
   -3.8786   -1.8920    0.9996 H   0  0  0  0  0  0  0  0  0  0  0  0
   -3.2846   -2.8280   -0.3984 H   0  0  0  0  0  0  0  0  0  0  0  0
   -1.7586   -2.0580    0.8686 C   0  0  0  0  0  0  0  0  0  0  0  0
   -0.9666   -2.6340    1.6026 O   0  0  0  0  0  0  0  0  0  0  0  0
   -1.4866   -0.9220    0.2366 N   0  0  0  0  0  0  0  0  0  0  0  0
   -2.2166   -0.4790   -0.2994 H   0  0  0  0  0  0  0  0  0  0  0  0
   -0.1956   -0.2250    0.2596 C   0  0  1  0  0  0  0  0  0  0  0  0
    0.5962   -0.9572    0.4205 H   0  0  0  0  0  0  0  0  0  0  0  0
    0.0494    0.4304   -1.1145 C   0  0  0  0  0  0  0  0  0  0  0  0
   -0.8198    1.0450   -1.3536 H   0  0  0  0  0  0  0  0  0  0  0  0
    0.9241    1.0796   -1.0530 H   0  0  0  0  0  0  0  0  0  0  0  0
    0.2547   -0.5865   -2.2499 C   0  0  0  0  0  0  0  0  0  0  0  0
    1.1198   -1.2122   -2.0171 H   0  0  0  0  0  0  0  0  0  0  0  0
   -0.6260   -1.2326   -2.2952 H   0  0  0  0  0  0  0  0  0  0  0  0
    0.4745    0.0671   -3.6222 C   0  0  0  0  0  0  0  0  0  0  0  0
    0.3357    1.3073   -3.7186 O   0  5  0  0  0  0  0  0  0  0  0  0
    0.8060   -0.6930   -4.5590 O   0  0  0  0  0  0  0  0  0  0  0  0
   -0.1382    0.7813    1.4278 C   0  0  0  0  0  0  0  0  0  0  0  0
   -0.9632    1.6934    1.5121 O   0  0  0  0  0  0  0  0  0  0  0  0
    0.8207    0.6049    2.3461 N   0  0  0  0  0  0  0  0  0  0  0  0
    1.4928   -0.1300    2.1822 H   0  0  0  0  0  0  0  0  0  0  0  0
    1.0219    1.4779    3.4997 C   0  0  0  0  0  0  0  0  0  0  0  0
    0.0799    1.6016    4.0366 H   0  0  0  0  0  0  0  0  0  0  0  0
    1.7695    1.0496    4.1688 H   0  0  0  0  0  0  0  0  0  0  0  0
    1.3612    2.4576    3.1578 H   0  0  0  0  0  0  0  0  0  0  0  0
  5  6  2  0  0  0  0
  5  7  1  0  0  0  0
  2  3  1  0  0  0  0
  2  4  1  0  0  0  0
  2  5  1  0  0  0  0
  1  2  1  0  0  0  0
 20 21  2  0  0  0  0
 20 22  1  0  0  0  0
 17 18  1  0  0  0  0
 17 19  2  0  0  0  0
 14 15  1  0  0  0  0
 14 16  1  0  0  0  0
 14 17  1  0  0  0  0
 11 12  1  0  0  0  0
 11 13  1  0  0  0  0
 11 14  1  0  0  0  0
  9 10  1  0  0  0  0
  9 11  1  0  0  0  0
  9 20  1  0  0  0  0
  7  8  1  0  0  0  0
  7  9  1  0  0  0  0
 24 25  1  0  0  0  0
 24 26  1  0  0  0  0
 24 27  1  0  0  0  0
 22 23  1  0  0  0  0
 22 24  1  0  0  0  0
M  CHG  1  18  -1
M  END
$$$$
default_name
  -OEChem-01062215323D

 27 26  0     1  0  0  0  0  0999 V2000
   -3.2406   -3.5400    1.2326 H   0  0  0  0  0  0  0  0  0  0  0  0
   -3.1436   -2.6190    0.6606 C   0  0  0  0  0  0  0  0  0  0  0  0
   -3.8786   -1.8920    0.9996 H   0  0  0  0  0  0  0  0  0  0  0  0
   -3.2846   -2.8280   -0.3984 H   0  0  0  0  0  0  0  0  0  0  0  0
   -1.7586   -2.0580    0.8686 C   0  0  0  0  0  0  0  0  0  0  0  0
   -0.9666   -2.6340    1.6026 O   0  0  0  0  0  0  0  0  0  0  0  0
   -1.4866   -0.9220    0.2366 N   0  0  0  0  0  0  0  0  0  0  0  0
   -2.2166   -0.4790   -0.2994 H   0  0  0  0  0  0  0  0  0  0  0  0
   -0.1956   -0.2250    0.2596 C   0  0  1  0  0  0  0  0  0  0  0  0
    0.5962   -0.9572    0.4205 H   0  0  0  0  0  0  0  0  0  0  0  0
    0.0494    0.4304   -1.1145 C   0  0  0  0  0  0  0  0  0  0  0  0
   -0.8198    1.0450   -1.3536 H   0  0  0  0  0  0  0  0  0  0  0  0
    0.9241    1.0796   -1.0530 H   0  0  0  0  0  0  0  0  0  0  0  0
    0.2547   -0.5865   -2.2499 C   0  0  0  0  0  0  0  0  0  0  0  0
    1.1198   -1.2122   -2.0171 H   0  0  0  0  0  0  0  0  0  0  0  0
   -0.6260   -1.2326   -2.2952 H   0  0  0  0  0  0  0  0  0  0  0  0
    0.4745    0.0671   -3.6222 C   0  0  0  0  0  0  0  0  0  0  0  0
    0.3357    1.3073   -3.7186 O   0  5  0  0  0  0  0  0  0  0  0  0
    0.8060   -0.6930   -4.5590 O   0  0  0  0  0  0  0  0  0  0  0  0
   -0.1382    0.7813    1.4278 C   0  0  0  0  0  0  0  0  0  0  0  0
   -1.0988    1.5138    1.6734 O   0  0  0  0  0  0  0  0  0  0  0  0
    0.9784    0.8037    2.1671 N   0  0  0  0  0  0  0  0  0  0  0  0
    1.7431    0.2143    1.8734 H   0  0  0  0  0  0  0  0  0  0  0  0
    1.1982    1.7075    3.2933 C   0  0  0  0  0  0  0  0  0  0  0  0
    0.3553    1.6473    3.9838 H   0  0  0  0  0  0  0  0  0  0  0  0
    2.1176    1.4395    3.8159 H   0  0  0  0  0  0  0  0  0  0  0  0
    1.2768    2.7323    2.9253 H   0  0  0  0  0  0  0  0  0  0  0  0
  5  6  2  0  0  0  0
  5  7  1  0  0  0  0
  2  3  1  0  0  0  0
  2  4  1  0  0  0  0
  2  5  1  0  0  0  0
  1  2  1  0  0  0  0
 20 21  2  0  0  0  0
 20 22  1  0  0  0  0
 17 18  1  0  0  0  0
 17 19  2  0  0  0  0
 14 15  1  0  0  0  0
 14 16  1  0  0  0  0
 14 17  1  0  0  0  0
 11 12  1  0  0  0  0
 11 13  1  0  0  0  0
 11 14  1  0  0  0  0
  9 10  1  0  0  0  0
  9 11  1  0  0  0  0
  9 20  1  0  0  0  0
  7  8  1  0  0  0  0
  7  9  1  0  0  0  0
 24 25  1  0  0  0  0
 24 26  1  0  0  0  0
 24 27  1  0  0  0  0
 22 23  1  0  0  0  0
 22 24  1  0  0  0  0
M  CHG  1  18  -1
M  END
$$$$
default_name
  -OEChem-01062215323D

 27 26  0     1  0  0  0  0  0999 V2000
   -3.2406   -3.5400    1.2326 H   0  0  0  0  0  0  0  0  0  0  0  0
   -3.1436   -2.6190    0.6606 C   0  0  0  0  0  0  0  0  0  0  0  0
   -3.8786   -1.8920    0.9996 H   0  0  0  0  0  0  0  0  0  0  0  0
   -3.2846   -2.8280   -0.3984 H   0  0  0  0  0  0  0  0  0  0  0  0
   -1.7586   -2.0580    0.8686 C   0  0  0  0  0  0  0  0  0  0  0  0
   -0.9666   -2.6340    1.6026 O   0  0  0  0  0  0  0  0  0  0  0  0
   -1.4866   -0.9220    0.2366 N   0  0  0  0  0  0  0  0  0  0  0  0
   -2.2166   -0.4790   -0.2994 H   0  0  0  0  0  0  0  0  0  0  0  0
   -0.1956   -0.2250    0.2596 C   0  0  1  0  0  0  0  0  0  0  0  0
    0.5962   -0.9572    0.4205 H   0  0  0  0  0  0  0  0  0  0  0  0
    0.0494    0.4304   -1.1145 C   0  0  0  0  0  0  0  0  0  0  0  0
   -0.8198    1.0450   -1.3536 H   0  0  0  0  0  0  0  0  0  0  0  0
    0.9241    1.0796   -1.0530 H   0  0  0  0  0  0  0  0  0  0  0  0
    0.2547   -0.5865   -2.2499 C   0  0  0  0  0  0  0  0  0  0  0  0
    1.1198   -1.2122   -2.0171 H   0  0  0  0  0  0  0  0  0  0  0  0
   -0.6260   -1.2326   -2.2952 H   0  0  0  0  0  0  0  0  0  0  0  0
    0.4745    0.0671   -3.6222 C   0  0  0  0  0  0  0  0  0  0  0  0
    0.3357    1.3073   -3.7186 O   0  5  0  0  0  0  0  0  0  0  0  0
    0.8060   -0.6930   -4.5590 O   0  0  0  0  0  0  0  0  0  0  0  0
   -0.1382    0.7813    1.4278 C   0  0  0  0  0  0  0  0  0  0  0  0
   -1.1674    1.3122    1.8505 O   0  0  0  0  0  0  0  0  0  0  0  0
    1.0615    1.0283    1.9695 N   0  0  0  0  0  0  0  0  0  0  0  0
    1.8654    0.5988    1.5362 H   0  0  0  0  0  0  0  0  0  0  0  0
    1.2887    1.9658    3.0663 C   0  0  0  0  0  0  0  0  0  0  0  0
    0.6034    1.7459    3.8866 H   0  0  0  0  0  0  0  0  0  0  0  0
    2.3178    1.8877    3.4199 H   0  0  0  0  0  0  0  0  0  0  0  0
    1.1021    2.9834    2.7176 H   0  0  0  0  0  0  0  0  0  0  0  0
  5  6  2  0  0  0  0
  5  7  1  0  0  0  0
  2  3  1  0  0  0  0
  2  4  1  0  0  0  0
  2  5  1  0  0  0  0
  1  2  1  0  0  0  0
 20 21  2  0  0  0  0
 20 22  1  0  0  0  0
 17 18  1  0  0  0  0
 17 19  2  0  0  0  0
 14 15  1  0  0  0  0
 14 16  1  0  0  0  0
 14 17  1  0  0  0  0
 11 12  1  0  0  0  0
 11 13  1  0  0  0  0
 11 14  1  0  0  0  0
  9 10  1  0  0  0  0
  9 11  1  0  0  0  0
  9 20  1  0  0  0  0
  7  8  1  0  0  0  0
  7  9  1  0  0  0  0
 24 25  1  0  0  0  0
 24 26  1  0  0  0  0
 24 27  1  0  0  0  0
 22 23  1  0  0  0  0
 22 24  1  0  0  0  0
M  CHG  1  18  -1
M  END
$$$$
default_name
  -OEChem-01062215323D

 27 26  0     1  0  0  0  0  0999 V2000
   -3.2406   -3.5400    1.2326 H   0  0  0  0  0  0  0  0  0  0  0  0
   -3.1436   -2.6190    0.6606 C   0  0  0  0  0  0  0  0  0  0  0  0
   -3.8786   -1.8920    0.9996 H   0  0  0  0  0  0  0  0  0  0  0  0
   -3.2846   -2.8280   -0.3984 H   0  0  0  0  0  0  0  0  0  0  0  0
   -1.7586   -2.0580    0.8686 C   0  0  0  0  0  0  0  0  0  0  0  0
   -0.9666   -2.6340    1.6026 O   0  0  0  0  0  0  0  0  0  0  0  0
   -1.4866   -0.9220    0.2366 N   0  0  0  0  0  0  0  0  0  0  0  0
   -2.2166   -0.4790   -0.2994 H   0  0  0  0  0  0  0  0  0  0  0  0
   -0.1956   -0.2250    0.2596 C   0  0  1  0  0  0  0  0  0  0  0  0
    0.5962   -0.9572    0.4205 H   0  0  0  0  0  0  0  0  0  0  0  0
    0.0494    0.4304   -1.1145 C   0  0  0  0  0  0  0  0  0  0  0  0
   -0.8198    1.0450   -1.3536 H   0  0  0  0  0  0  0  0  0  0  0  0
    0.9241    1.0796   -1.0530 H   0  0  0  0  0  0  0  0  0  0  0  0
    0.2547   -0.5865   -2.2499 C   0  0  0  0  0  0  0  0  0  0  0  0
    1.1198   -1.2122   -2.0171 H   0  0  0  0  0  0  0  0  0  0  0  0
   -0.6260   -1.2326   -2.2952 H   0  0  0  0  0  0  0  0  0  0  0  0
    0.4745    0.0671   -3.6222 C   0  0  0  0  0  0  0  0  0  0  0  0
    0.3357    1.3073   -3.7186 O   0  5  0  0  0  0  0  0  0  0  0  0
    0.8060   -0.6930   -4.5590 O   0  0  0  0  0  0  0  0  0  0  0  0
   -0.1382    0.7813    1.4278 C   0  0  0  0  0  0  0  0  0  0  0  0
   -1.1642    1.1023    2.0311 O   0  0  0  0  0  0  0  0  0  0  0  0
    1.0645    1.2635    1.7668 N   0  0  0  0  0  0  0  0  0  0  0  0
    1.8512    0.9975    1.1935 H   0  0  0  0  0  0  0  0  0  0  0  0
    1.2872    2.2352    2.8343 C   0  0  0  0  0  0  0  0  0  0  0  0
    0.8074    1.8907    3.7519 H   0  0  0  0  0  0  0  0  0  0  0  0
    2.3565    2.3638    3.0080 H   0  0  0  0  0  0  0  0  0  0  0  0
    0.8492    3.1937    2.5488 H   0  0  0  0  0  0  0  0  0  0  0  0
  5  6  2  0  0  0  0
  5  7  1  0  0  0  0
  2  3  1  0  0  0  0
  2  4  1  0  0  0  0
  2  5  1  0  0  0  0
  1  2  1  0  0  0  0
 20 21  2  0  0  0  0
 20 22  1  0  0  0  0
 17 18  1  0  0  0  0
 17 19  2  0  0  0  0
 14 15  1  0  0  0  0
 14 16  1  0  0  0  0
 14 17  1  0  0  0  0
 11 12  1  0  0  0  0
 11 13  1  0  0  0  0
 11 14  1  0  0  0  0
  9 10  1  0  0  0  0
  9 11  1  0  0  0  0
  9 20  1  0  0  0  0
  7  8  1  0  0  0  0
  7  9  1  0  0  0  0
 24 25  1  0  0  0  0
 24 26  1  0  0  0  0
 24 27  1  0  0  0  0
 22 23  1  0  0  0  0
 22 24  1  0  0  0  0
M  CHG  1  18  -1
M  END
$$$$
default_name
  -OEChem-01062215323D

 27 26  0     1  0  0  0  0  0999 V2000
   -3.2406   -3.5400    1.2326 H   0  0  0  0  0  0  0  0  0  0  0  0
   -3.1436   -2.6190    0.6606 C   0  0  0  0  0  0  0  0  0  0  0  0
   -3.8786   -1.8920    0.9996 H   0  0  0  0  0  0  0  0  0  0  0  0
   -3.2846   -2.8280   -0.3984 H   0  0  0  0  0  0  0  0  0  0  0  0
   -1.7586   -2.0580    0.8686 C   0  0  0  0  0  0  0  0  0  0  0  0
   -0.9666   -2.6340    1.6026 O   0  0  0  0  0  0  0  0  0  0  0  0
   -1.4866   -0.9220    0.2366 N   0  0  0  0  0  0  0  0  0  0  0  0
   -2.2166   -0.4790   -0.2994 H   0  0  0  0  0  0  0  0  0  0  0  0
   -0.1956   -0.2250    0.2596 C   0  0  1  0  0  0  0  0  0  0  0  0
    0.6025   -0.9600    0.1511 H   0  0  0  0  0  0  0  0  0  0  0  0
   -0.1153    0.7301   -0.9482 C   0  0  0  0  0  0  0  0  0  0  0  0
   -1.0012    1.3670   -0.9326 H   0  0  0  0  0  0  0  0  0  0  0  0
    0.7668    1.3642   -0.8480 H   0  0  0  0  0  0  0  0  0  0  0  0
   -0.0621    0.0021   -2.3019 C   0  0  0  0  0  0  0  0  0  0  0  0
    0.8187   -0.6442   -2.3256 H   0  0  0  0  0  0  0  0  0  0  0  0
   -0.9483   -0.6327   -2.3851 H   0  0  0  0  0  0  0  0  0  0  0  0
   -0.0068    0.9547   -3.5054 C   0  0  0  0  0  0  0  0  0  0  0  0
   -0.1438    2.1815   -3.2988 O   0  5  0  0  0  0  0  0  0  0  0  0
    0.1988    0.4338   -4.6242 O   0  0  0  0  0  0  0  0  0  0  0  0
    0.0157    0.4900    1.6104 C   0  0  0  0  0  0  0  0  0  0  0  0
   -0.8314    0.4104    2.5024 O   0  0  0  0  0  0  0  0  0  0  0  0
    1.1575    1.1708    1.7749 N   0  0  0  0  0  0  0  0  0  0  0  0
    1.7785    1.2368    0.9821 H   0  0  0  0  0  0  0  0  0  0  0  0
    1.5012    1.9157    2.9833 C   0  0  0  0  0  0  0  0  0  0  0  0
    1.3787    1.2750    3.8582 H   0  0  0  0  0  0  0  0  0  0  0  0
    2.5334    2.2646    2.9285 H   0  0  0  0  0  0  0  0  0  0  0  0
    0.8338    2.7741    3.0819 H   0  0  0  0  0  0  0  0  0  0  0  0
  5  6  2  0  0  0  0
  5  7  1  0  0  0  0
  2  3  1  0  0  0  0
  2  4  1  0  0  0  0
  2  5  1  0  0  0  0
  1  2  1  0  0  0  0
 20 21  2  0  0  0  0
 20 22  1  0  0  0  0
 17 18  1  0  0  0  0
 17 19  2  0  0  0  0
 14 15  1  0  0  0  0
 14 16  1  0  0  0  0
 14 17  1  0  0  0  0
 11 12  1  0  0  0  0
 11 13  1  0  0  0  0
 11 14  1  0  0  0  0
  9 10  1  0  0  0  0
  9 11  1  0  0  0  0
  9 20  1  0  0  0  0
  7  8  1  0  0  0  0
  7  9  1  0  0  0  0
 24 25  1  0  0  0  0
 24 26  1  0  0  0  0
 24 27  1  0  0  0  0
 22 23  1  0  0  0  0
 22 24  1  0  0  0  0
M  CHG  1  18  -1
M  END
$$$$
default_name
  -OEChem-01062215323D

 27 26  0     1  0  0  0  0  0999 V2000
   -3.2406   -3.5400    1.2326 H   0  0  0  0  0  0  0  0  0  0  0  0
   -3.1436   -2.6190    0.6606 C   0  0  0  0  0  0  0  0  0  0  0  0
   -3.8786   -1.8920    0.9996 H   0  0  0  0  0  0  0  0  0  0  0  0
   -3.2846   -2.8280   -0.3984 H   0  0  0  0  0  0  0  0  0  0  0  0
   -1.7586   -2.0580    0.8686 C   0  0  0  0  0  0  0  0  0  0  0  0
   -0.9666   -2.6340    1.6026 O   0  0  0  0  0  0  0  0  0  0  0  0
   -1.4866   -0.9220    0.2366 N   0  0  0  0  0  0  0  0  0  0  0  0
   -2.2166   -0.4790   -0.2994 H   0  0  0  0  0  0  0  0  0  0  0  0
   -0.1956   -0.2250    0.2596 C   0  0  1  0  0  0  0  0  0  0  0  0
    0.6025   -0.9600    0.1511 H   0  0  0  0  0  0  0  0  0  0  0  0
   -0.1153    0.7301   -0.9482 C   0  0  0  0  0  0  0  0  0  0  0  0
   -1.0012    1.3670   -0.9326 H   0  0  0  0  0  0  0  0  0  0  0  0
    0.7668    1.3642   -0.8480 H   0  0  0  0  0  0  0  0  0  0  0  0
   -0.0621    0.0021   -2.3019 C   0  0  0  0  0  0  0  0  0  0  0  0
    0.8187   -0.6442   -2.3256 H   0  0  0  0  0  0  0  0  0  0  0  0
   -0.9483   -0.6327   -2.3851 H   0  0  0  0  0  0  0  0  0  0  0  0
   -0.0068    0.9547   -3.5054 C   0  0  0  0  0  0  0  0  0  0  0  0
   -0.1438    2.1815   -3.2988 O   0  5  0  0  0  0  0  0  0  0  0  0
    0.1988    0.4338   -4.6242 O   0  0  0  0  0  0  0  0  0  0  0  0
    0.0157    0.4900    1.6104 C   0  0  0  0  0  0  0  0  0  0  0  0
   -0.6745    0.1995    2.5896 O   0  0  0  0  0  0  0  0  0  0  0  0
    0.9869    1.4102    1.6748 N   0  0  0  0  0  0  0  0  0  0  0  0
    1.4740    1.6336    0.8197 H   0  0  0  0  0  0  0  0  0  0  0  0
    1.3019    2.1877    2.8705 C   0  0  0  0  0  0  0  0  0  0  0  0
    1.4358    1.5171    3.7211 H   0  0  0  0  0  0  0  0  0  0  0  0
    2.2144    2.7645    2.7137 H   0  0  0  0  0  0  0  0  0  0  0  0
    0.4764    2.8683    3.0879 H   0  0  0  0  0  0  0  0  0  0  0  0
  5  6  2  0  0  0  0
  5  7  1  0  0  0  0
  2  3  1  0  0  0  0
  2  4  1  0  0  0  0
  2  5  1  0  0  0  0
  1  2  1  0  0  0  0
 20 21  2  0  0  0  0
 20 22  1  0  0  0  0
 17 18  1  0  0  0  0
 17 19  2  0  0  0  0
 14 15  1  0  0  0  0
 14 16  1  0  0  0  0
 14 17  1  0  0  0  0
 11 12  1  0  0  0  0
 11 13  1  0  0  0  0
 11 14  1  0  0  0  0
  9 10  1  0  0  0  0
  9 11  1  0  0  0  0
  9 20  1  0  0  0  0
  7  8  1  0  0  0  0
  7  9  1  0  0  0  0
 24 25  1  0  0  0  0
 24 26  1  0  0  0  0
 24 27  1  0  0  0  0
 22 23  1  0  0  0  0
 22 24  1  0  0  0  0
M  CHG  1  18  -1
M  END
$$$$
default_name
  -OEChem-01062215323D

 27 26  0     1  0  0  0  0  0999 V2000
   -3.2406   -3.5400    1.2326 H   0  0  0  0  0  0  0  0  0  0  0  0
   -3.1436   -2.6190    0.6606 C   0  0  0  0  0  0  0  0  0  0  0  0
   -3.8786   -1.8920    0.9996 H   0  0  0  0  0  0  0  0  0  0  0  0
   -3.2846   -2.8280   -0.3984 H   0  0  0  0  0  0  0  0  0  0  0  0
   -1.7586   -2.0580    0.8686 C   0  0  0  0  0  0  0  0  0  0  0  0
   -0.9666   -2.6340    1.6026 O   0  0  0  0  0  0  0  0  0  0  0  0
   -1.4866   -0.9220    0.2366 N   0  0  0  0  0  0  0  0  0  0  0  0
   -2.2166   -0.4790   -0.2994 H   0  0  0  0  0  0  0  0  0  0  0  0
   -0.1956   -0.2250    0.2596 C   0  0  1  0  0  0  0  0  0  0  0  0
    0.6025   -0.9600    0.1511 H   0  0  0  0  0  0  0  0  0  0  0  0
   -0.1153    0.7301   -0.9482 C   0  0  0  0  0  0  0  0  0  0  0  0
   -1.0012    1.3670   -0.9326 H   0  0  0  0  0  0  0  0  0  0  0  0
    0.7668    1.3642   -0.8480 H   0  0  0  0  0  0  0  0  0  0  0  0
   -0.0621    0.0021   -2.3019 C   0  0  0  0  0  0  0  0  0  0  0  0
    0.8187   -0.6442   -2.3256 H   0  0  0  0  0  0  0  0  0  0  0  0
   -0.9483   -0.6327   -2.3851 H   0  0  0  0  0  0  0  0  0  0  0  0
   -0.0068    0.9547   -3.5054 C   0  0  0  0  0  0  0  0  0  0  0  0
   -0.1438    2.1815   -3.2988 O   0  5  0  0  0  0  0  0  0  0  0  0
    0.1988    0.4338   -4.6242 O   0  0  0  0  0  0  0  0  0  0  0  0
    0.0157    0.4900    1.6104 C   0  0  0  0  0  0  0  0  0  0  0  0
   -0.4648    0.0282    2.6474 O   0  0  0  0  0  0  0  0  0  0  0  0
    0.7559    1.6063    1.6071 N   0  0  0  0  0  0  0  0  0  0  0  0
    1.0706    1.9537    0.7134 H   0  0  0  0  0  0  0  0  0  0  0  0
    1.0342    2.4092    2.7951 C   0  0  0  0  0  0  0  0  0  0  0  0
    1.4196    1.7689    3.5904 H   0  0  0  0  0  0  0  0  0  0  0  0
    1.7673    3.1827    2.5623 H   0  0  0  0  0  0  0  0  0  0  0  0
    0.1105    2.8781    3.1399 H   0  0  0  0  0  0  0  0  0  0  0  0
  5  6  2  0  0  0  0
  5  7  1  0  0  0  0
  2  3  1  0  0  0  0
  2  4  1  0  0  0  0
  2  5  1  0  0  0  0
  1  2  1  0  0  0  0
 20 21  2  0  0  0  0
 20 22  1  0  0  0  0
 17 18  1  0  0  0  0
 17 19  2  0  0  0  0
 14 15  1  0  0  0  0
 14 16  1  0  0  0  0
 14 17  1  0  0  0  0
 11 12  1  0  0  0  0
 11 13  1  0  0  0  0
 11 14  1  0  0  0  0
  9 10  1  0  0  0  0
  9 11  1  0  0  0  0
  9 20  1  0  0  0  0
  7  8  1  0  0  0  0
  7  9  1  0  0  0  0
 24 25  1  0  0  0  0
 24 26  1  0  0  0  0
 24 27  1  0  0  0  0
 22 23  1  0  0  0  0
 22 24  1  0  0  0  0
M  CHG  1  18  -1
M  END
$$$$
default_name
  -OEChem-01062215323D

 27 26  0     1  0  0  0  0  0999 V2000
   -3.2406   -3.5400    1.2326 H   0  0  0  0  0  0  0  0  0  0  0  0
   -3.1436   -2.6190    0.6606 C   0  0  0  0  0  0  0  0  0  0  0  0
   -3.8786   -1.8920    0.9996 H   0  0  0  0  0  0  0  0  0  0  0  0
   -3.2846   -2.8280   -0.3984 H   0  0  0  0  0  0  0  0  0  0  0  0
   -1.7586   -2.0580    0.8686 C   0  0  0  0  0  0  0  0  0  0  0  0
   -0.9666   -2.6340    1.6026 O   0  0  0  0  0  0  0  0  0  0  0  0
   -1.4866   -0.9220    0.2366 N   0  0  0  0  0  0  0  0  0  0  0  0
   -2.2166   -0.4790   -0.2994 H   0  0  0  0  0  0  0  0  0  0  0  0
   -0.1956   -0.2250    0.2596 C   0  0  1  0  0  0  0  0  0  0  0  0
    0.6025   -0.9600    0.1511 H   0  0  0  0  0  0  0  0  0  0  0  0
   -0.1153    0.7301   -0.9482 C   0  0  0  0  0  0  0  0  0  0  0  0
   -1.0012    1.3670   -0.9326 H   0  0  0  0  0  0  0  0  0  0  0  0
    0.7668    1.3642   -0.8480 H   0  0  0  0  0  0  0  0  0  0  0  0
   -0.0621    0.0021   -2.3019 C   0  0  0  0  0  0  0  0  0  0  0  0
    0.8187   -0.6442   -2.3256 H   0  0  0  0  0  0  0  0  0  0  0  0
   -0.9483   -0.6327   -2.3851 H   0  0  0  0  0  0  0  0  0  0  0  0
   -0.0068    0.9547   -3.5054 C   0  0  0  0  0  0  0  0  0  0  0  0
   -0.1438    2.1815   -3.2988 O   0  5  0  0  0  0  0  0  0  0  0  0
    0.1988    0.4338   -4.6242 O   0  0  0  0  0  0  0  0  0  0  0  0
    0.0157    0.4900    1.6104 C   0  0  0  0  0  0  0  0  0  0  0  0
   -0.2165   -0.0918    2.6721 O   0  0  0  0  0  0  0  0  0  0  0  0
    0.4803    1.7459    1.5764 N   0  0  0  0  0  0  0  0  0  0  0  0
    0.5955    2.1752    0.6704 H   0  0  0  0  0  0  0  0  0  0  0  0
    0.7164    2.5652    2.7623 C   0  0  0  0  0  0  0  0  0  0  0  0
    1.3312    2.0130    3.4749 H   0  0  0  0  0  0  0  0  0  0  0  0
    1.2225    3.4908    2.4844 H   0  0  0  0  0  0  0  0  0  0  0  0
   -0.2389    2.8029    3.2344 H   0  0  0  0  0  0  0  0  0  0  0  0
  5  6  2  0  0  0  0
  5  7  1  0  0  0  0
  2  3  1  0  0  0  0
  2  4  1  0  0  0  0
  2  5  1  0  0  0  0
  1  2  1  0  0  0  0
 20 21  2  0  0  0  0
 20 22  1  0  0  0  0
 17 18  1  0  0  0  0
 17 19  2  0  0  0  0
 14 15  1  0  0  0  0
 14 16  1  0  0  0  0
 14 17  1  0  0  0  0
 11 12  1  0  0  0  0
 11 13  1  0  0  0  0
 11 14  1  0  0  0  0
  9 10  1  0  0  0  0
  9 11  1  0  0  0  0
  9 20  1  0  0  0  0
  7  8  1  0  0  0  0
  7  9  1  0  0  0  0
 24 25  1  0  0  0  0
 24 26  1  0  0  0  0
 24 27  1  0  0  0  0
 22 23  1  0  0  0  0
 22 24  1  0  0  0  0
M  CHG  1  18  -1
M  END
$$$$
default_name
  -OEChem-01062215323D

 27 26  0     1  0  0  0  0  0999 V2000
   -3.2406   -3.5400    1.2326 H   0  0  0  0  0  0  0  0  0  0  0  0
   -3.1436   -2.6190    0.6606 C   0  0  0  0  0  0  0  0  0  0  0  0
   -3.8786   -1.8920    0.9996 H   0  0  0  0  0  0  0  0  0  0  0  0
   -3.2846   -2.8280   -0.3984 H   0  0  0  0  0  0  0  0  0  0  0  0
   -1.7586   -2.0580    0.8686 C   0  0  0  0  0  0  0  0  0  0  0  0
   -0.9666   -2.6340    1.6026 O   0  0  0  0  0  0  0  0  0  0  0  0
   -1.4866   -0.9220    0.2366 N   0  0  0  0  0  0  0  0  0  0  0  0
   -2.2166   -0.4790   -0.2994 H   0  0  0  0  0  0  0  0  0  0  0  0
   -0.1956   -0.2250    0.2596 C   0  0  1  0  0  0  0  0  0  0  0  0
    0.6025   -0.9600    0.1511 H   0  0  0  0  0  0  0  0  0  0  0  0
   -0.1153    0.7301   -0.9482 C   0  0  0  0  0  0  0  0  0  0  0  0
   -1.0012    1.3670   -0.9326 H   0  0  0  0  0  0  0  0  0  0  0  0
    0.7668    1.3642   -0.8480 H   0  0  0  0  0  0  0  0  0  0  0  0
   -0.0621    0.0021   -2.3019 C   0  0  0  0  0  0  0  0  0  0  0  0
    0.8187   -0.6442   -2.3256 H   0  0  0  0  0  0  0  0  0  0  0  0
   -0.9483   -0.6327   -2.3851 H   0  0  0  0  0  0  0  0  0  0  0  0
   -0.0068    0.9547   -3.5054 C   0  0  0  0  0  0  0  0  0  0  0  0
   -0.1438    2.1815   -3.2988 O   0  5  0  0  0  0  0  0  0  0  0  0
    0.1988    0.4338   -4.6242 O   0  0  0  0  0  0  0  0  0  0  0  0
    0.0157    0.4900    1.6104 C   0  0  0  0  0  0  0  0  0  0  0  0
    0.0536   -0.1523    2.6619 O   0  0  0  0  0  0  0  0  0  0  0  0
    0.1787    1.8192    1.5847 N   0  0  0  0  0  0  0  0  0  0  0  0
    0.0814    2.2831    0.6937 H   0  0  0  0  0  0  0  0  0  0  0  0
    0.3701    2.6451    2.7741 C   0  0  0  0  0  0  0  0  0  0  0  0
    1.1767    2.2329    3.3827 H   0  0  0  0  0  0  0  0  0  0  0  0
    0.6171    3.6677    2.4854 H   0  0  0  0  0  0  0  0  0  0  0  0
   -0.5480    2.6476    3.3650 H   0  0  0  0  0  0  0  0  0  0  0  0
  5  6  2  0  0  0  0
  5  7  1  0  0  0  0
  2  3  1  0  0  0  0
  2  4  1  0  0  0  0
  2  5  1  0  0  0  0
  1  2  1  0  0  0  0
 20 21  2  0  0  0  0
 20 22  1  0  0  0  0
 17 18  1  0  0  0  0
 17 19  2  0  0  0  0
 14 15  1  0  0  0  0
 14 16  1  0  0  0  0
 14 17  1  0  0  0  0
 11 12  1  0  0  0  0
 11 13  1  0  0  0  0
 11 14  1  0  0  0  0
  9 10  1  0  0  0  0
  9 11  1  0  0  0  0
  9 20  1  0  0  0  0
  7  8  1  0  0  0  0
  7  9  1  0  0  0  0
 24 25  1  0  0  0  0
 24 26  1  0  0  0  0
 24 27  1  0  0  0  0
 22 23  1  0  0  0  0
 22 24  1  0  0  0  0
M  CHG  1  18  -1
M  END
$$$$
default_name
  -OEChem-01062215323D

 27 26  0     1  0  0  0  0  0999 V2000
   -3.2406   -3.5400    1.2326 H   0  0  0  0  0  0  0  0  0  0  0  0
   -3.1436   -2.6190    0.6606 C   0  0  0  0  0  0  0  0  0  0  0  0
   -3.8786   -1.8920    0.9996 H   0  0  0  0  0  0  0  0  0  0  0  0
   -3.2846   -2.8280   -0.3984 H   0  0  0  0  0  0  0  0  0  0  0  0
   -1.7586   -2.0580    0.8686 C   0  0  0  0  0  0  0  0  0  0  0  0
   -0.9666   -2.6340    1.6026 O   0  0  0  0  0  0  0  0  0  0  0  0
   -1.4866   -0.9220    0.2366 N   0  0  0  0  0  0  0  0  0  0  0  0
   -2.2166   -0.4790   -0.2994 H   0  0  0  0  0  0  0  0  0  0  0  0
   -0.1956   -0.2250    0.2596 C   0  0  1  0  0  0  0  0  0  0  0  0
    0.6025   -0.9600    0.1511 H   0  0  0  0  0  0  0  0  0  0  0  0
   -0.1153    0.7301   -0.9482 C   0  0  0  0  0  0  0  0  0  0  0  0
   -1.0012    1.3670   -0.9326 H   0  0  0  0  0  0  0  0  0  0  0  0
    0.7668    1.3642   -0.8480 H   0  0  0  0  0  0  0  0  0  0  0  0
   -0.0621    0.0021   -2.3019 C   0  0  0  0  0  0  0  0  0  0  0  0
    0.8187   -0.6442   -2.3256 H   0  0  0  0  0  0  0  0  0  0  0  0
   -0.9483   -0.6327   -2.3851 H   0  0  0  0  0  0  0  0  0  0  0  0
   -0.0068    0.9547   -3.5054 C   0  0  0  0  0  0  0  0  0  0  0  0
   -0.1438    2.1815   -3.2988 O   0  5  0  0  0  0  0  0  0  0  0  0
    0.1988    0.4338   -4.6242 O   0  0  0  0  0  0  0  0  0  0  0  0
    0.0157    0.4900    1.6104 C   0  0  0  0  0  0  0  0  0  0  0  0
    0.3269   -0.1492    2.6175 O   0  0  0  0  0  0  0  0  0  0  0  0
   -0.1283    1.8215    1.6315 N   0  0  0  0  0  0  0  0  0  0  0  0
   -0.4370    2.2700    0.7817 H   0  0  0  0  0  0  0  0  0  0  0  0
    0.0189    2.6433    2.8300 C   0  0  0  0  0  0  0  0  0  0  0  0
    0.9666    2.4135    3.3200 H   0  0  0  0  0  0  0  0  0  0  0  0
   -0.0076    3.7013    2.5654 H   0  0  0  0  0  0  0  0  0  0  0  0
   -0.7957    2.4230    3.5226 H   0  0  0  0  0  0  0  0  0  0  0  0
  5  6  2  0  0  0  0
  5  7  1  0  0  0  0
  2  3  1  0  0  0  0
  2  4  1  0  0  0  0
  2  5  1  0  0  0  0
  1  2  1  0  0  0  0
 20 21  2  0  0  0  0
 20 22  1  0  0  0  0
 17 18  1  0  0  0  0
 17 19  2  0  0  0  0
 14 15  1  0  0  0  0
 14 16  1  0  0  0  0
 14 17  1  0  0  0  0
 11 12  1  0  0  0  0
 11 13  1  0  0  0  0
 11 14  1  0  0  0  0
  9 10  1  0  0  0  0
  9 11  1  0  0  0  0
  9 20  1  0  0  0  0
  7  8  1  0  0  0  0
  7  9  1  0  0  0  0
 24 25  1  0  0  0  0
 24 26  1  0  0  0  0
 24 27  1  0  0  0  0
 22 23  1  0  0  0  0
 22 24  1  0  0  0  0
M  CHG  1  18  -1
M  END
$$$$
default_name
  -OEChem-01062215323D

 27 26  0     1  0  0  0  0  0999 V2000
   -3.2406   -3.5400    1.2326 H   0  0  0  0  0  0  0  0  0  0  0  0
   -3.1436   -2.6190    0.6606 C   0  0  0  0  0  0  0  0  0  0  0  0
   -3.8786   -1.8920    0.9996 H   0  0  0  0  0  0  0  0  0  0  0  0
   -3.2846   -2.8280   -0.3984 H   0  0  0  0  0  0  0  0  0  0  0  0
   -1.7586   -2.0580    0.8686 C   0  0  0  0  0  0  0  0  0  0  0  0
   -0.9666   -2.6340    1.6026 O   0  0  0  0  0  0  0  0  0  0  0  0
   -1.4866   -0.9220    0.2366 N   0  0  0  0  0  0  0  0  0  0  0  0
   -2.2166   -0.4790   -0.2994 H   0  0  0  0  0  0  0  0  0  0  0  0
   -0.1956   -0.2250    0.2596 C   0  0  1  0  0  0  0  0  0  0  0  0
    0.6025   -0.9600    0.1511 H   0  0  0  0  0  0  0  0  0  0  0  0
   -0.1153    0.7301   -0.9482 C   0  0  0  0  0  0  0  0  0  0  0  0
   -1.0012    1.3670   -0.9326 H   0  0  0  0  0  0  0  0  0  0  0  0
    0.7668    1.3642   -0.8480 H   0  0  0  0  0  0  0  0  0  0  0  0
   -0.0621    0.0021   -2.3019 C   0  0  0  0  0  0  0  0  0  0  0  0
    0.8187   -0.6442   -2.3256 H   0  0  0  0  0  0  0  0  0  0  0  0
   -0.9483   -0.6327   -2.3851 H   0  0  0  0  0  0  0  0  0  0  0  0
   -0.0068    0.9547   -3.5054 C   0  0  0  0  0  0  0  0  0  0  0  0
   -0.1438    2.1815   -3.2988 O   0  5  0  0  0  0  0  0  0  0  0  0
    0.1988    0.4338   -4.6242 O   0  0  0  0  0  0  0  0  0  0  0  0
    0.0157    0.4900    1.6104 C   0  0  0  0  0  0  0  0  0  0  0  0
    0.5849   -0.0827    2.5420 O   0  0  0  0  0  0  0  0  0  0  0  0
   -0.4197    1.7525    1.7136 N   0  0  0  0  0  0  0  0  0  0  0  0
   -0.9241    2.1367    0.9285 H   0  0  0  0  0  0  0  0  0  0  0  0
   -0.3131    2.5601    2.9260 C   0  0  0  0  0  0  0  0  0  0  0  0
    0.7152    2.5426    3.2909 H   0  0  0  0  0  0  0  0  0  0  0  0
   -0.6091    3.5894    2.7187 H   0  0  0  0  0  0  0  0  0  0  0  0
   -0.9652    2.1444    3.6967 H   0  0  0  0  0  0  0  0  0  0  0  0
  5  6  2  0  0  0  0
  5  7  1  0  0  0  0
  2  3  1  0  0  0  0
  2  4  1  0  0  0  0
  2  5  1  0  0  0  0
  1  2  1  0  0  0  0
 20 21  2  0  0  0  0
 20 22  1  0  0  0  0
 17 18  1  0  0  0  0
 17 19  2  0  0  0  0
 14 15  1  0  0  0  0
 14 16  1  0  0  0  0
 14 17  1  0  0  0  0
 11 12  1  0  0  0  0
 11 13  1  0  0  0  0
 11 14  1  0  0  0  0
  9 10  1  0  0  0  0
  9 11  1  0  0  0  0
  9 20  1  0  0  0  0
  7  8  1  0  0  0  0
  7  9  1  0  0  0  0
 24 25  1  0  0  0  0
 24 26  1  0  0  0  0
 24 27  1  0  0  0  0
 22 23  1  0  0  0  0
 22 24  1  0  0  0  0
M  CHG  1  18  -1
M  END
$$$$
default_name
  -OEChem-01062215323D

 27 26  0     1  0  0  0  0  0999 V2000
   -3.2406   -3.5400    1.2326 H   0  0  0  0  0  0  0  0  0  0  0  0
   -3.1436   -2.6190    0.6606 C   0  0  0  0  0  0  0  0  0  0  0  0
   -3.8786   -1.8920    0.9996 H   0  0  0  0  0  0  0  0  0  0  0  0
   -3.2846   -2.8280   -0.3984 H   0  0  0  0  0  0  0  0  0  0  0  0
   -1.7586   -2.0580    0.8686 C   0  0  0  0  0  0  0  0  0  0  0  0
   -0.9666   -2.6340    1.6026 O   0  0  0  0  0  0  0  0  0  0  0  0
   -1.4866   -0.9220    0.2366 N   0  0  0  0  0  0  0  0  0  0  0  0
   -2.2166   -0.4790   -0.2994 H   0  0  0  0  0  0  0  0  0  0  0  0
   -0.1956   -0.2250    0.2596 C   0  0  1  0  0  0  0  0  0  0  0  0
    0.6025   -0.9600    0.1511 H   0  0  0  0  0  0  0  0  0  0  0  0
   -0.1153    0.7301   -0.9482 C   0  0  0  0  0  0  0  0  0  0  0  0
   -1.0012    1.3670   -0.9326 H   0  0  0  0  0  0  0  0  0  0  0  0
    0.7668    1.3642   -0.8480 H   0  0  0  0  0  0  0  0  0  0  0  0
   -0.0621    0.0021   -2.3019 C   0  0  0  0  0  0  0  0  0  0  0  0
    0.8187   -0.6442   -2.3256 H   0  0  0  0  0  0  0  0  0  0  0  0
   -0.9483   -0.6327   -2.3851 H   0  0  0  0  0  0  0  0  0  0  0  0
   -0.0068    0.9547   -3.5054 C   0  0  0  0  0  0  0  0  0  0  0  0
   -0.1438    2.1815   -3.2988 O   0  5  0  0  0  0  0  0  0  0  0  0
    0.1988    0.4338   -4.6242 O   0  0  0  0  0  0  0  0  0  0  0  0
    0.0157    0.4900    1.6104 C   0  0  0  0  0  0  0  0  0  0  0  0
    0.8099    0.0427    2.4404 O   0  0  0  0  0  0  0  0  0  0  0  0
   -0.6756    1.6169    1.8254 N   0  0  0  0  0  0  0  0  0  0  0  0
   -1.3468    1.8924    1.1239 H   0  0  0  0  0  0  0  0  0  0  0  0
   -0.6035    2.4010    3.0556 C   0  0  0  0  0  0  0  0  0  0  0  0
    0.4396    2.6114    3.2976 H   0  0  0  0  0  0  0  0  0  0  0  0
   -1.1463    3.3396    2.9349 H   0  0  0  0  0  0  0  0  0  0  0  0
   -1.0449    1.8306    3.8752 H   0  0  0  0  0  0  0  0  0  0  0  0
  5  6  2  0  0  0  0
  5  7  1  0  0  0  0
  2  3  1  0  0  0  0
  2  4  1  0  0  0  0
  2  5  1  0  0  0  0
  1  2  1  0  0  0  0
 20 21  2  0  0  0  0
 20 22  1  0  0  0  0
 17 18  1  0  0  0  0
 17 19  2  0  0  0  0
 14 15  1  0  0  0  0
 14 16  1  0  0  0  0
 14 17  1  0  0  0  0
 11 12  1  0  0  0  0
 11 13  1  0  0  0  0
 11 14  1  0  0  0  0
  9 10  1  0  0  0  0
  9 11  1  0  0  0  0
  9 20  1  0  0  0  0
  7  8  1  0  0  0  0
  7  9  1  0  0  0  0
 24 25  1  0  0  0  0
 24 26  1  0  0  0  0
 24 27  1  0  0  0  0
 22 23  1  0  0  0  0
 22 24  1  0  0  0  0
M  CHG  1  18  -1
M  END
$$$$
default_name
  -OEChem-01062215323D

 27 26  0     1  0  0  0  0  0999 V2000
   -3.2406   -3.5400    1.2326 H   0  0  0  0  0  0  0  0  0  0  0  0
   -3.1436   -2.6190    0.6606 C   0  0  0  0  0  0  0  0  0  0  0  0
   -3.8786   -1.8920    0.9996 H   0  0  0  0  0  0  0  0  0  0  0  0
   -3.2846   -2.8280   -0.3984 H   0  0  0  0  0  0  0  0  0  0  0  0
   -1.7586   -2.0580    0.8686 C   0  0  0  0  0  0  0  0  0  0  0  0
   -0.9666   -2.6340    1.6026 O   0  0  0  0  0  0  0  0  0  0  0  0
   -1.4866   -0.9220    0.2366 N   0  0  0  0  0  0  0  0  0  0  0  0
   -2.2166   -0.4790   -0.2994 H   0  0  0  0  0  0  0  0  0  0  0  0
   -0.1956   -0.2250    0.2596 C   0  0  1  0  0  0  0  0  0  0  0  0
    0.6025   -0.9600    0.1511 H   0  0  0  0  0  0  0  0  0  0  0  0
   -0.1153    0.7301   -0.9482 C   0  0  0  0  0  0  0  0  0  0  0  0
   -1.0012    1.3670   -0.9326 H   0  0  0  0  0  0  0  0  0  0  0  0
    0.7668    1.3642   -0.8480 H   0  0  0  0  0  0  0  0  0  0  0  0
   -0.0621    0.0021   -2.3019 C   0  0  0  0  0  0  0  0  0  0  0  0
    0.8187   -0.6442   -2.3256 H   0  0  0  0  0  0  0  0  0  0  0  0
   -0.9483   -0.6327   -2.3851 H   0  0  0  0  0  0  0  0  0  0  0  0
   -0.0068    0.9547   -3.5054 C   0  0  0  0  0  0  0  0  0  0  0  0
   -0.1438    2.1815   -3.2988 O   0  5  0  0  0  0  0  0  0  0  0  0
    0.1988    0.4338   -4.6242 O   0  0  0  0  0  0  0  0  0  0  0  0
    0.0157    0.4900    1.6104 C   0  0  0  0  0  0  0  0  0  0  0  0
    0.9867    0.2184    2.3197 O   0  0  0  0  0  0  0  0  0  0  0  0
   -0.8787    1.4239    1.9594 N   0  0  0  0  0  0  0  0  0  0  0  0
   -1.6763    1.5537    1.3548 H   0  0  0  0  0  0  0  0  0  0  0  0
   -0.8324    2.1770    3.2100 C   0  0  0  0  0  0  0  0  0  0  0  0
    0.1586    2.6151    3.3396 H   0  0  0  0  0  0  0  0  0  0  0  0
   -1.5827    2.9689    3.1994 H   0  0  0  0  0  0  0  0  0  0  0  0
   -1.0294    1.5032    4.0461 H   0  0  0  0  0  0  0  0  0  0  0  0
  5  6  2  0  0  0  0
  5  7  1  0  0  0  0
  2  3  1  0  0  0  0
  2  4  1  0  0  0  0
  2  5  1  0  0  0  0
  1  2  1  0  0  0  0
 20 21  2  0  0  0  0
 20 22  1  0  0  0  0
 17 18  1  0  0  0  0
 17 19  2  0  0  0  0
 14 15  1  0  0  0  0
 14 16  1  0  0  0  0
 14 17  1  0  0  0  0
 11 12  1  0  0  0  0
 11 13  1  0  0  0  0
 11 14  1  0  0  0  0
  9 10  1  0  0  0  0
  9 11  1  0  0  0  0
  9 20  1  0  0  0  0
  7  8  1  0  0  0  0
  7  9  1  0  0  0  0
 24 25  1  0  0  0  0
 24 26  1  0  0  0  0
 24 27  1  0  0  0  0
 22 23  1  0  0  0  0
 22 24  1  0  0  0  0
M  CHG  1  18  -1
M  END
$$$$
default_name
  -OEChem-01062215323D

 27 26  0     1  0  0  0  0  0999 V2000
   -3.2406   -3.5400    1.2326 H   0  0  0  0  0  0  0  0  0  0  0  0
   -3.1436   -2.6190    0.6606 C   0  0  0  0  0  0  0  0  0  0  0  0
   -3.8786   -1.8920    0.9996 H   0  0  0  0  0  0  0  0  0  0  0  0
   -3.2846   -2.8280   -0.3984 H   0  0  0  0  0  0  0  0  0  0  0  0
   -1.7586   -2.0580    0.8686 C   0  0  0  0  0  0  0  0  0  0  0  0
   -0.9666   -2.6340    1.6026 O   0  0  0  0  0  0  0  0  0  0  0  0
   -1.4866   -0.9220    0.2366 N   0  0  0  0  0  0  0  0  0  0  0  0
   -2.2166   -0.4790   -0.2994 H   0  0  0  0  0  0  0  0  0  0  0  0
   -0.1956   -0.2250    0.2596 C   0  0  1  0  0  0  0  0  0  0  0  0
    0.6025   -0.9600    0.1511 H   0  0  0  0  0  0  0  0  0  0  0  0
   -0.1153    0.7301   -0.9482 C   0  0  0  0  0  0  0  0  0  0  0  0
   -1.0012    1.3670   -0.9326 H   0  0  0  0  0  0  0  0  0  0  0  0
    0.7668    1.3642   -0.8480 H   0  0  0  0  0  0  0  0  0  0  0  0
   -0.0621    0.0021   -2.3019 C   0  0  0  0  0  0  0  0  0  0  0  0
    0.8187   -0.6442   -2.3256 H   0  0  0  0  0  0  0  0  0  0  0  0
   -0.9483   -0.6327   -2.3851 H   0  0  0  0  0  0  0  0  0  0  0  0
   -0.0068    0.9547   -3.5054 C   0  0  0  0  0  0  0  0  0  0  0  0
   -0.1438    2.1815   -3.2988 O   0  5  0  0  0  0  0  0  0  0  0  0
    0.1988    0.4338   -4.6242 O   0  0  0  0  0  0  0  0  0  0  0  0
    0.0157    0.4900    1.6104 C   0  0  0  0  0  0  0  0  0  0  0  0
    1.1032    0.4325    2.1882 O   0  0  0  0  0  0  0  0  0  0  0  0
   -1.0151    1.1868    2.1062 N   0  0  0  0  0  0  0  0  0  0  0  0
   -1.8901    1.1437    1.6052 H   0  0  0  0  0  0  0  0  0  0  0  0
   -0.9843    1.9033    3.3787 C   0  0  0  0  0  0  0  0  0  0  0  0
   -0.1086    2.5536    3.4140 H   0  0  0  0  0  0  0  0  0  0  0  0
   -1.8884    2.5026    3.4941 H   0  0  0  0  0  0  0  0  0  0  0  0
   -0.9197    1.1843    4.1978 H   0  0  0  0  0  0  0  0  0  0  0  0
  5  6  2  0  0  0  0
  5  7  1  0  0  0  0
  2  3  1  0  0  0  0
  2  4  1  0  0  0  0
  2  5  1  0  0  0  0
  1  2  1  0  0  0  0
 20 21  2  0  0  0  0
 20 22  1  0  0  0  0
 17 18  1  0  0  0  0
 17 19  2  0  0  0  0
 14 15  1  0  0  0  0
 14 16  1  0  0  0  0
 14 17  1  0  0  0  0
 11 12  1  0  0  0  0
 11 13  1  0  0  0  0
 11 14  1  0  0  0  0
  9 10  1  0  0  0  0
  9 11  1  0  0  0  0
  9 20  1  0  0  0  0
  7  8  1  0  0  0  0
  7  9  1  0  0  0  0
 24 25  1  0  0  0  0
 24 26  1  0  0  0  0
 24 27  1  0  0  0  0
 22 23  1  0  0  0  0
 22 24  1  0  0  0  0
M  CHG  1  18  -1
M  END
$$$$
default_name
  -OEChem-01062215323D

 27 26  0     1  0  0  0  0  0999 V2000
   -3.2406   -3.5400    1.2326 H   0  0  0  0  0  0  0  0  0  0  0  0
   -3.1436   -2.6190    0.6606 C   0  0  0  0  0  0  0  0  0  0  0  0
   -3.8786   -1.8920    0.9996 H   0  0  0  0  0  0  0  0  0  0  0  0
   -3.2846   -2.8280   -0.3984 H   0  0  0  0  0  0  0  0  0  0  0  0
   -1.7586   -2.0580    0.8686 C   0  0  0  0  0  0  0  0  0  0  0  0
   -0.9666   -2.6340    1.6026 O   0  0  0  0  0  0  0  0  0  0  0  0
   -1.4866   -0.9220    0.2366 N   0  0  0  0  0  0  0  0  0  0  0  0
   -2.2166   -0.4790   -0.2994 H   0  0  0  0  0  0  0  0  0  0  0  0
   -0.1956   -0.2250    0.2596 C   0  0  1  0  0  0  0  0  0  0  0  0
    0.6025   -0.9600    0.1511 H   0  0  0  0  0  0  0  0  0  0  0  0
   -0.1153    0.7301   -0.9482 C   0  0  0  0  0  0  0  0  0  0  0  0
   -1.0012    1.3670   -0.9326 H   0  0  0  0  0  0  0  0  0  0  0  0
    0.7668    1.3642   -0.8480 H   0  0  0  0  0  0  0  0  0  0  0  0
   -0.0621    0.0021   -2.3019 C   0  0  0  0  0  0  0  0  0  0  0  0
    0.8187   -0.6442   -2.3256 H   0  0  0  0  0  0  0  0  0  0  0  0
   -0.9483   -0.6327   -2.3851 H   0  0  0  0  0  0  0  0  0  0  0  0
   -0.0068    0.9547   -3.5054 C   0  0  0  0  0  0  0  0  0  0  0  0
   -0.1438    2.1815   -3.2988 O   0  5  0  0  0  0  0  0  0  0  0  0
    0.1988    0.4338   -4.6242 O   0  0  0  0  0  0  0  0  0  0  0  0
    0.0157    0.4900    1.6104 C   0  0  0  0  0  0  0  0  0  0  0  0
    1.1514    0.6703    2.0548 O   0  0  0  0  0  0  0  0  0  0  0  0
   -1.0755    0.9216    2.2561 N   0  0  0  0  0  0  0  0  0  0  0  0
   -1.9738    0.6904    1.8583 H   0  0  0  0  0  0  0  0  0  0  0  0
   -1.0487    1.5985    3.5501 C   0  0  0  0  0  0  0  0  0  0  0  0
   -0.3438    2.4309    3.5157 H   0  0  0  0  0  0  0  0  0  0  0  0
   -2.0428    1.9725    3.7989 H   0  0  0  0  0  0  0  0  0  0  0  0
   -0.7233    0.8959    4.3198 H   0  0  0  0  0  0  0  0  0  0  0  0
  5  6  2  0  0  0  0
  5  7  1  0  0  0  0
  2  3  1  0  0  0  0
  2  4  1  0  0  0  0
  2  5  1  0  0  0  0
  1  2  1  0  0  0  0
 20 21  2  0  0  0  0
 20 22  1  0  0  0  0
 17 18  1  0  0  0  0
 17 19  2  0  0  0  0
 14 15  1  0  0  0  0
 14 16  1  0  0  0  0
 14 17  1  0  0  0  0
 11 12  1  0  0  0  0
 11 13  1  0  0  0  0
 11 14  1  0  0  0  0
  9 10  1  0  0  0  0
  9 11  1  0  0  0  0
  9 20  1  0  0  0  0
  7  8  1  0  0  0  0
  7  9  1  0  0  0  0
 24 25  1  0  0  0  0
 24 26  1  0  0  0  0
 24 27  1  0  0  0  0
 22 23  1  0  0  0  0
 22 24  1  0  0  0  0
M  CHG  1  18  -1
M  END
$$$$
default_name
  -OEChem-01062215323D

 27 26  0     1  0  0  0  0  0999 V2000
   -3.2406   -3.5400    1.2326 H   0  0  0  0  0  0  0  0  0  0  0  0
   -3.1436   -2.6190    0.6606 C   0  0  0  0  0  0  0  0  0  0  0  0
   -3.8786   -1.8920    0.9996 H   0  0  0  0  0  0  0  0  0  0  0  0
   -3.2846   -2.8280   -0.3984 H   0  0  0  0  0  0  0  0  0  0  0  0
   -1.7586   -2.0580    0.8686 C   0  0  0  0  0  0  0  0  0  0  0  0
   -0.9666   -2.6340    1.6026 O   0  0  0  0  0  0  0  0  0  0  0  0
   -1.4866   -0.9220    0.2366 N   0  0  0  0  0  0  0  0  0  0  0  0
   -2.2166   -0.4790   -0.2994 H   0  0  0  0  0  0  0  0  0  0  0  0
   -0.1956   -0.2250    0.2596 C   0  0  1  0  0  0  0  0  0  0  0  0
    0.6025   -0.9600    0.1511 H   0  0  0  0  0  0  0  0  0  0  0  0
   -0.1153    0.7301   -0.9482 C   0  0  0  0  0  0  0  0  0  0  0  0
   -1.0012    1.3670   -0.9326 H   0  0  0  0  0  0  0  0  0  0  0  0
    0.7668    1.3642   -0.8480 H   0  0  0  0  0  0  0  0  0  0  0  0
   -0.0621    0.0021   -2.3019 C   0  0  0  0  0  0  0  0  0  0  0  0
    0.8187   -0.6442   -2.3256 H   0  0  0  0  0  0  0  0  0  0  0  0
   -0.9483   -0.6327   -2.3851 H   0  0  0  0  0  0  0  0  0  0  0  0
   -0.0068    0.9547   -3.5054 C   0  0  0  0  0  0  0  0  0  0  0  0
   -0.1438    2.1815   -3.2988 O   0  5  0  0  0  0  0  0  0  0  0  0
    0.1988    0.4338   -4.6242 O   0  0  0  0  0  0  0  0  0  0  0  0
    0.0157    0.4900    1.6104 C   0  0  0  0  0  0  0  0  0  0  0  0
    1.1281    0.9156    1.9285 O   0  0  0  0  0  0  0  0  0  0  0  0
   -1.0558    0.6465    2.3986 N   0  0  0  0  0  0  0  0  0  0  0  0
   -1.9215    0.2246    2.0967 H   0  0  0  0  0  0  0  0  0  0  0  0
   -1.0212    1.2834    3.7126 C   0  0  0  0  0  0  0  0  0  0  0  0
   -0.5310    2.2556    3.6378 H   0  0  0  0  0  0  0  0  0  0  0  0
   -2.0352    1.4146    4.0931 H   0  0  0  0  0  0  0  0  0  0  0  0
   -0.4536    0.6574    4.4038 H   0  0  0  0  0  0  0  0  0  0  0  0
  5  6  2  0  0  0  0
  5  7  1  0  0  0  0
  2  3  1  0  0  0  0
  2  4  1  0  0  0  0
  2  5  1  0  0  0  0
  1  2  1  0  0  0  0
 20 21  2  0  0  0  0
 20 22  1  0  0  0  0
 17 18  1  0  0  0  0
 17 19  2  0  0  0  0
 14 15  1  0  0  0  0
 14 16  1  0  0  0  0
 14 17  1  0  0  0  0
 11 12  1  0  0  0  0
 11 13  1  0  0  0  0
 11 14  1  0  0  0  0
  9 10  1  0  0  0  0
  9 11  1  0  0  0  0
  9 20  1  0  0  0  0
  7  8  1  0  0  0  0
  7  9  1  0  0  0  0
 24 25  1  0  0  0  0
 24 26  1  0  0  0  0
 24 27  1  0  0  0  0
 22 23  1  0  0  0  0
 22 24  1  0  0  0  0
M  CHG  1  18  -1
M  END
$$$$
default_name
  -OEChem-01062215323D

 27 26  0     1  0  0  0  0  0999 V2000
   -3.2406   -3.5400    1.2326 H   0  0  0  0  0  0  0  0  0  0  0  0
   -3.1436   -2.6190    0.6606 C   0  0  0  0  0  0  0  0  0  0  0  0
   -3.8786   -1.8920    0.9996 H   0  0  0  0  0  0  0  0  0  0  0  0
   -3.2846   -2.8280   -0.3984 H   0  0  0  0  0  0  0  0  0  0  0  0
   -1.7586   -2.0580    0.8686 C   0  0  0  0  0  0  0  0  0  0  0  0
   -0.9666   -2.6340    1.6026 O   0  0  0  0  0  0  0  0  0  0  0  0
   -1.4866   -0.9220    0.2366 N   0  0  0  0  0  0  0  0  0  0  0  0
   -2.2166   -0.4790   -0.2994 H   0  0  0  0  0  0  0  0  0  0  0  0
   -0.1956   -0.2250    0.2596 C   0  0  1  0  0  0  0  0  0  0  0  0
    0.6025   -0.9600    0.1511 H   0  0  0  0  0  0  0  0  0  0  0  0
   -0.1153    0.7301   -0.9482 C   0  0  0  0  0  0  0  0  0  0  0  0
   -1.0012    1.3670   -0.9326 H   0  0  0  0  0  0  0  0  0  0  0  0
    0.7668    1.3642   -0.8480 H   0  0  0  0  0  0  0  0  0  0  0  0
   -0.0621    0.0021   -2.3019 C   0  0  0  0  0  0  0  0  0  0  0  0
    0.8187   -0.6442   -2.3256 H   0  0  0  0  0  0  0  0  0  0  0  0
   -0.9483   -0.6327   -2.3851 H   0  0  0  0  0  0  0  0  0  0  0  0
   -0.0068    0.9547   -3.5054 C   0  0  0  0  0  0  0  0  0  0  0  0
   -0.1438    2.1815   -3.2988 O   0  5  0  0  0  0  0  0  0  0  0  0
    0.1988    0.4338   -4.6242 O   0  0  0  0  0  0  0  0  0  0  0  0
    0.0157    0.4900    1.6104 C   0  0  0  0  0  0  0  0  0  0  0  0
    1.0349    1.1518    1.8181 O   0  0  0  0  0  0  0  0  0  0  0  0
   -0.9573    0.3802    2.5242 N   0  0  0  0  0  0  0  0  0  0  0  0
   -1.7368   -0.2220    2.3042 H   0  0  0  0  0  0  0  0  0  0  0  0
   -0.9039    0.9795    3.8551 C   0  0  0  0  0  0  0  0  0  0  0  0
   -0.6575    2.0394    3.7720 H   0  0  0  0  0  0  0  0  0  0  0  0
   -1.8662    0.8671    4.3565 H   0  0  0  0  0  0  0  0  0  0  0  0
   -0.1290    0.4852    4.4442 H   0  0  0  0  0  0  0  0  0  0  0  0
  5  6  2  0  0  0  0
  5  7  1  0  0  0  0
  2  3  1  0  0  0  0
  2  4  1  0  0  0  0
  2  5  1  0  0  0  0
  1  2  1  0  0  0  0
 20 21  2  0  0  0  0
 20 22  1  0  0  0  0
 17 18  1  0  0  0  0
 17 19  2  0  0  0  0
 14 15  1  0  0  0  0
 14 16  1  0  0  0  0
 14 17  1  0  0  0  0
 11 12  1  0  0  0  0
 11 13  1  0  0  0  0
 11 14  1  0  0  0  0
  9 10  1  0  0  0  0
  9 11  1  0  0  0  0
  9 20  1  0  0  0  0
  7  8  1  0  0  0  0
  7  9  1  0  0  0  0
 24 25  1  0  0  0  0
 24 26  1  0  0  0  0
 24 27  1  0  0  0  0
 22 23  1  0  0  0  0
 22 24  1  0  0  0  0
M  CHG  1  18  -1
M  END
$$$$
default_name
  -OEChem-01062215323D

 27 26  0     1  0  0  0  0  0999 V2000
   -3.2406   -3.5400    1.2326 H   0  0  0  0  0  0  0  0  0  0  0  0
   -3.1436   -2.6190    0.6606 C   0  0  0  0  0  0  0  0  0  0  0  0
   -3.8786   -1.8920    0.9996 H   0  0  0  0  0  0  0  0  0  0  0  0
   -3.2846   -2.8280   -0.3984 H   0  0  0  0  0  0  0  0  0  0  0  0
   -1.7586   -2.0580    0.8686 C   0  0  0  0  0  0  0  0  0  0  0  0
   -0.9666   -2.6340    1.6026 O   0  0  0  0  0  0  0  0  0  0  0  0
   -1.4866   -0.9220    0.2366 N   0  0  0  0  0  0  0  0  0  0  0  0
   -2.2166   -0.4790   -0.2994 H   0  0  0  0  0  0  0  0  0  0  0  0
   -0.1956   -0.2250    0.2596 C   0  0  1  0  0  0  0  0  0  0  0  0
    0.6025   -0.9600    0.1511 H   0  0  0  0  0  0  0  0  0  0  0  0
   -0.1153    0.7301   -0.9482 C   0  0  0  0  0  0  0  0  0  0  0  0
   -1.0012    1.3670   -0.9326 H   0  0  0  0  0  0  0  0  0  0  0  0
    0.7668    1.3642   -0.8480 H   0  0  0  0  0  0  0  0  0  0  0  0
   -0.0621    0.0021   -2.3019 C   0  0  0  0  0  0  0  0  0  0  0  0
    0.8187   -0.6442   -2.3256 H   0  0  0  0  0  0  0  0  0  0  0  0
   -0.9483   -0.6327   -2.3851 H   0  0  0  0  0  0  0  0  0  0  0  0
   -0.0068    0.9547   -3.5054 C   0  0  0  0  0  0  0  0  0  0  0  0
   -0.1438    2.1815   -3.2988 O   0  5  0  0  0  0  0  0  0  0  0  0
    0.1988    0.4338   -4.6242 O   0  0  0  0  0  0  0  0  0  0  0  0
    0.0157    0.4900    1.6104 C   0  0  0  0  0  0  0  0  0  0  0  0
    0.8780    1.3627    1.7309 O   0  0  0  0  0  0  0  0  0  0  0  0
   -0.7868    0.1408    2.6243 N   0  0  0  0  0  0  0  0  0  0  0  0
   -1.4323   -0.6188    2.4667 H   0  0  0  0  0  0  0  0  0  0  0  0
   -0.7045    0.7076    3.9679 C   0  0  0  0  0  0  0  0  0  0  0  0
   -0.7146    1.7972    3.9092 H   0  0  0  0  0  0  0  0  0  0  0  0
   -1.5473    0.3671    4.5713 H   0  0  0  0  0  0  0  0  0  0  0  0
    0.2285    0.3909    4.4382 H   0  0  0  0  0  0  0  0  0  0  0  0
  5  6  2  0  0  0  0
  5  7  1  0  0  0  0
  2  3  1  0  0  0  0
  2  4  1  0  0  0  0
  2  5  1  0  0  0  0
  1  2  1  0  0  0  0
 20 21  2  0  0  0  0
 20 22  1  0  0  0  0
 17 18  1  0  0  0  0
 17 19  2  0  0  0  0
 14 15  1  0  0  0  0
 14 16  1  0  0  0  0
 14 17  1  0  0  0  0
 11 12  1  0  0  0  0
 11 13  1  0  0  0  0
 11 14  1  0  0  0  0
  9 10  1  0  0  0  0
  9 11  1  0  0  0  0
  9 20  1  0  0  0  0
  7  8  1  0  0  0  0
  7  9  1  0  0  0  0
 24 25  1  0  0  0  0
 24 26  1  0  0  0  0
 24 27  1  0  0  0  0
 22 23  1  0  0  0  0
 22 24  1  0  0  0  0
M  CHG  1  18  -1
M  END
$$$$
default_name
  -OEChem-01062215323D

 27 26  0     1  0  0  0  0  0999 V2000
   -3.2406   -3.5400    1.2326 H   0  0  0  0  0  0  0  0  0  0  0  0
   -3.1436   -2.6190    0.6606 C   0  0  0  0  0  0  0  0  0  0  0  0
   -3.8786   -1.8920    0.9996 H   0  0  0  0  0  0  0  0  0  0  0  0
   -3.2846   -2.8280   -0.3984 H   0  0  0  0  0  0  0  0  0  0  0  0
   -1.7586   -2.0580    0.8686 C   0  0  0  0  0  0  0  0  0  0  0  0
   -0.9666   -2.6340    1.6026 O   0  0  0  0  0  0  0  0  0  0  0  0
   -1.4866   -0.9220    0.2366 N   0  0  0  0  0  0  0  0  0  0  0  0
   -2.2166   -0.4790   -0.2994 H   0  0  0  0  0  0  0  0  0  0  0  0
   -0.1956   -0.2250    0.2596 C   0  0  1  0  0  0  0  0  0  0  0  0
    0.6025   -0.9600    0.1511 H   0  0  0  0  0  0  0  0  0  0  0  0
   -0.1153    0.7301   -0.9482 C   0  0  0  0  0  0  0  0  0  0  0  0
   -1.0012    1.3670   -0.9326 H   0  0  0  0  0  0  0  0  0  0  0  0
    0.7668    1.3642   -0.8480 H   0  0  0  0  0  0  0  0  0  0  0  0
   -0.0621    0.0021   -2.3019 C   0  0  0  0  0  0  0  0  0  0  0  0
    0.8187   -0.6442   -2.3256 H   0  0  0  0  0  0  0  0  0  0  0  0
   -0.9483   -0.6327   -2.3851 H   0  0  0  0  0  0  0  0  0  0  0  0
   -0.0068    0.9547   -3.5054 C   0  0  0  0  0  0  0  0  0  0  0  0
   -0.1438    2.1815   -3.2988 O   0  5  0  0  0  0  0  0  0  0  0  0
    0.1988    0.4338   -4.6242 O   0  0  0  0  0  0  0  0  0  0  0  0
    0.0157    0.4900    1.6104 C   0  0  0  0  0  0  0  0  0  0  0  0
    0.6683    1.5340    1.6730 O   0  0  0  0  0  0  0  0  0  0  0  0
   -0.5558   -0.0554    2.6920 N   0  0  0  0  0  0  0  0  0  0  0  0
   -1.0288   -0.9389    2.5730 H   0  0  0  0  0  0  0  0  0  0  0  0
   -0.4369    0.4860    4.0433 C   0  0  0  0  0  0  0  0  0  0  0  0
   -0.6984    1.5455    4.0399 H   0  0  0  0  0  0  0  0  0  0  0  0
   -1.1002   -0.0511    4.7227 H   0  0  0  0  0  0  0  0  0  0  0  0
    0.5943    0.3811    4.3861 H   0  0  0  0  0  0  0  0  0  0  0  0
  5  6  2  0  0  0  0
  5  7  1  0  0  0  0
  2  3  1  0  0  0  0
  2  4  1  0  0  0  0
  2  5  1  0  0  0  0
  1  2  1  0  0  0  0
 20 21  2  0  0  0  0
 20 22  1  0  0  0  0
 17 18  1  0  0  0  0
 17 19  2  0  0  0  0
 14 15  1  0  0  0  0
 14 16  1  0  0  0  0
 14 17  1  0  0  0  0
 11 12  1  0  0  0  0
 11 13  1  0  0  0  0
 11 14  1  0  0  0  0
  9 10  1  0  0  0  0
  9 11  1  0  0  0  0
  9 20  1  0  0  0  0
  7  8  1  0  0  0  0
  7  9  1  0  0  0  0
 24 25  1  0  0  0  0
 24 26  1  0  0  0  0
 24 27  1  0  0  0  0
 22 23  1  0  0  0  0
 22 24  1  0  0  0  0
M  CHG  1  18  -1
M  END
$$$$
default_name
  -OEChem-01062215323D

 27 26  0     1  0  0  0  0  0999 V2000
   -3.2406   -3.5400    1.2326 H   0  0  0  0  0  0  0  0  0  0  0  0
   -3.1436   -2.6190    0.6606 C   0  0  0  0  0  0  0  0  0  0  0  0
   -3.8786   -1.8920    0.9996 H   0  0  0  0  0  0  0  0  0  0  0  0
   -3.2846   -2.8280   -0.3984 H   0  0  0  0  0  0  0  0  0  0  0  0
   -1.7586   -2.0580    0.8686 C   0  0  0  0  0  0  0  0  0  0  0  0
   -0.9666   -2.6340    1.6026 O   0  0  0  0  0  0  0  0  0  0  0  0
   -1.4866   -0.9220    0.2366 N   0  0  0  0  0  0  0  0  0  0  0  0
   -2.2166   -0.4790   -0.2994 H   0  0  0  0  0  0  0  0  0  0  0  0
   -0.1956   -0.2250    0.2596 C   0  0  1  0  0  0  0  0  0  0  0  0
    0.6025   -0.9600    0.1511 H   0  0  0  0  0  0  0  0  0  0  0  0
   -0.1153    0.7301   -0.9482 C   0  0  0  0  0  0  0  0  0  0  0  0
   -1.0012    1.3670   -0.9326 H   0  0  0  0  0  0  0  0  0  0  0  0
    0.7668    1.3642   -0.8480 H   0  0  0  0  0  0  0  0  0  0  0  0
   -0.0621    0.0021   -2.3019 C   0  0  0  0  0  0  0  0  0  0  0  0
    0.8187   -0.6442   -2.3256 H   0  0  0  0  0  0  0  0  0  0  0  0
   -0.9483   -0.6327   -2.3851 H   0  0  0  0  0  0  0  0  0  0  0  0
   -0.0068    0.9547   -3.5054 C   0  0  0  0  0  0  0  0  0  0  0  0
   -0.1438    2.1815   -3.2988 O   0  5  0  0  0  0  0  0  0  0  0  0
    0.1988    0.4338   -4.6242 O   0  0  0  0  0  0  0  0  0  0  0  0
    0.0157    0.4900    1.6104 C   0  0  0  0  0  0  0  0  0  0  0  0
    0.4199    1.6540    1.6484 O   0  0  0  0  0  0  0  0  0  0  0  0
   -0.2801   -0.1949    2.7227 N   0  0  0  0  0  0  0  0  0  0  0  0
   -0.5538   -1.1604    2.6160 H   0  0  0  0  0  0  0  0  0  0  0  0
   -0.1190    0.3300    4.0762 C   0  0  0  0  0  0  0  0  0  0  0  0
   -0.6101    1.3014    4.1553 H   0  0  0  0  0  0  0  0  0  0  0  0
   -0.5554   -0.3592    4.8006 H   0  0  0  0  0  0  0  0  0  0  0  0
    0.9437    0.4564    4.2916 H   0  0  0  0  0  0  0  0  0  0  0  0
  5  6  2  0  0  0  0
  5  7  1  0  0  0  0
  2  3  1  0  0  0  0
  2  4  1  0  0  0  0
  2  5  1  0  0  0  0
  1  2  1  0  0  0  0
 20 21  2  0  0  0  0
 20 22  1  0  0  0  0
 17 18  1  0  0  0  0
 17 19  2  0  0  0  0
 14 15  1  0  0  0  0
 14 16  1  0  0  0  0
 14 17  1  0  0  0  0
 11 12  1  0  0  0  0
 11 13  1  0  0  0  0
 11 14  1  0  0  0  0
  9 10  1  0  0  0  0
  9 11  1  0  0  0  0
  9 20  1  0  0  0  0
  7  8  1  0  0  0  0
  7  9  1  0  0  0  0
 24 25  1  0  0  0  0
 24 26  1  0  0  0  0
 24 27  1  0  0  0  0
 22 23  1  0  0  0  0
 22 24  1  0  0  0  0
M  CHG  1  18  -1
M  END
$$$$
default_name
  -OEChem-01062215323D

 27 26  0     1  0  0  0  0  0999 V2000
   -3.2406   -3.5400    1.2326 H   0  0  0  0  0  0  0  0  0  0  0  0
   -3.1436   -2.6190    0.6606 C   0  0  0  0  0  0  0  0  0  0  0  0
   -3.8786   -1.8920    0.9996 H   0  0  0  0  0  0  0  0  0  0  0  0
   -3.2846   -2.8280   -0.3984 H   0  0  0  0  0  0  0  0  0  0  0  0
   -1.7586   -2.0580    0.8686 C   0  0  0  0  0  0  0  0  0  0  0  0
   -0.9666   -2.6340    1.6026 O   0  0  0  0  0  0  0  0  0  0  0  0
   -1.4866   -0.9220    0.2366 N   0  0  0  0  0  0  0  0  0  0  0  0
   -2.2166   -0.4790   -0.2994 H   0  0  0  0  0  0  0  0  0  0  0  0
   -0.1956   -0.2250    0.2596 C   0  0  1  0  0  0  0  0  0  0  0  0
    0.6025   -0.9600    0.1511 H   0  0  0  0  0  0  0  0  0  0  0  0
   -0.1153    0.7301   -0.9482 C   0  0  0  0  0  0  0  0  0  0  0  0
   -1.0012    1.3670   -0.9326 H   0  0  0  0  0  0  0  0  0  0  0  0
    0.7668    1.3642   -0.8480 H   0  0  0  0  0  0  0  0  0  0  0  0
   -0.0621    0.0021   -2.3019 C   0  0  0  0  0  0  0  0  0  0  0  0
    0.8187   -0.6442   -2.3256 H   0  0  0  0  0  0  0  0  0  0  0  0
   -0.9483   -0.6327   -2.3851 H   0  0  0  0  0  0  0  0  0  0  0  0
   -0.0068    0.9547   -3.5054 C   0  0  0  0  0  0  0  0  0  0  0  0
   -0.1438    2.1815   -3.2988 O   0  5  0  0  0  0  0  0  0  0  0  0
    0.1988    0.4338   -4.6242 O   0  0  0  0  0  0  0  0  0  0  0  0
    0.0157    0.4900    1.6104 C   0  0  0  0  0  0  0  0  0  0  0  0
    0.1499    1.7145    1.6586 O   0  0  0  0  0  0  0  0  0  0  0  0
    0.0215   -0.2683    2.7144 N   0  0  0  0  0  0  0  0  0  0  0  0
   -0.0396   -1.2683    2.5927 H   0  0  0  0  0  0  0  0  0  0  0  0
    0.2272    0.2502    4.0643 C   0  0  0  0  0  0  0  0  0  0  0  0
   -0.4556    1.0815    4.2475 H   0  0  0  0  0  0  0  0  0  0  0  0
    0.0500   -0.5361    4.7996 H   0  0  0  0  0  0  0  0  0  0  0  0
    1.2528    0.6116    4.1611 H   0  0  0  0  0  0  0  0  0  0  0  0
  5  6  2  0  0  0  0
  5  7  1  0  0  0  0
  2  3  1  0  0  0  0
  2  4  1  0  0  0  0
  2  5  1  0  0  0  0
  1  2  1  0  0  0  0
 20 21  2  0  0  0  0
 20 22  1  0  0  0  0
 17 18  1  0  0  0  0
 17 19  2  0  0  0  0
 14 15  1  0  0  0  0
 14 16  1  0  0  0  0
 14 17  1  0  0  0  0
 11 12  1  0  0  0  0
 11 13  1  0  0  0  0
 11 14  1  0  0  0  0
  9 10  1  0  0  0  0
  9 11  1  0  0  0  0
  9 20  1  0  0  0  0
  7  8  1  0  0  0  0
  7  9  1  0  0  0  0
 24 25  1  0  0  0  0
 24 26  1  0  0  0  0
 24 27  1  0  0  0  0
 22 23  1  0  0  0  0
 22 24  1  0  0  0  0
M  CHG  1  18  -1
M  END
$$$$
default_name
  -OEChem-01062215323D

 27 26  0     1  0  0  0  0  0999 V2000
   -3.2406   -3.5400    1.2326 H   0  0  0  0  0  0  0  0  0  0  0  0
   -3.1436   -2.6190    0.6606 C   0  0  0  0  0  0  0  0  0  0  0  0
   -3.8786   -1.8920    0.9996 H   0  0  0  0  0  0  0  0  0  0  0  0
   -3.2846   -2.8280   -0.3984 H   0  0  0  0  0  0  0  0  0  0  0  0
   -1.7586   -2.0580    0.8686 C   0  0  0  0  0  0  0  0  0  0  0  0
   -0.9666   -2.6340    1.6026 O   0  0  0  0  0  0  0  0  0  0  0  0
   -1.4866   -0.9220    0.2366 N   0  0  0  0  0  0  0  0  0  0  0  0
   -2.2166   -0.4790   -0.2994 H   0  0  0  0  0  0  0  0  0  0  0  0
   -0.1956   -0.2250    0.2596 C   0  0  1  0  0  0  0  0  0  0  0  0
    0.6025   -0.9600    0.1511 H   0  0  0  0  0  0  0  0  0  0  0  0
   -0.1153    0.7301   -0.9482 C   0  0  0  0  0  0  0  0  0  0  0  0
   -1.0012    1.3670   -0.9326 H   0  0  0  0  0  0  0  0  0  0  0  0
    0.7668    1.3642   -0.8480 H   0  0  0  0  0  0  0  0  0  0  0  0
   -0.0621    0.0021   -2.3019 C   0  0  0  0  0  0  0  0  0  0  0  0
    0.8187   -0.6442   -2.3256 H   0  0  0  0  0  0  0  0  0  0  0  0
   -0.9483   -0.6327   -2.3851 H   0  0  0  0  0  0  0  0  0  0  0  0
   -0.0068    0.9547   -3.5054 C   0  0  0  0  0  0  0  0  0  0  0  0
   -0.1438    2.1815   -3.2988 O   0  5  0  0  0  0  0  0  0  0  0  0
    0.1988    0.4338   -4.6242 O   0  0  0  0  0  0  0  0  0  0  0  0
    0.0157    0.4900    1.6104 C   0  0  0  0  0  0  0  0  0  0  0  0
   -0.1234    1.7114    1.7030 O   0  0  0  0  0  0  0  0  0  0  0  0
    0.3284   -0.2706    2.6676 N   0  0  0  0  0  0  0  0  0  0  0  0
    0.4787   -1.2551    2.5047 H   0  0  0  0  0  0  0  0  0  0  0  0
    0.5784    0.2519    4.0085 C   0  0  0  0  0  0  0  0  0  0  0  0
   -0.2454    0.9009    4.3103 H   0  0  0  0  0  0  0  0  0  0  0  0
    0.6748   -0.5697    4.7196 H   0  0  0  0  0  0  0  0  0  0  0  0
    1.5006    0.8362    4.0035 H   0  0  0  0  0  0  0  0  0  0  0  0
  5  6  2  0  0  0  0
  5  7  1  0  0  0  0
  2  3  1  0  0  0  0
  2  4  1  0  0  0  0
  2  5  1  0  0  0  0
  1  2  1  0  0  0  0
 20 21  2  0  0  0  0
 20 22  1  0  0  0  0
 17 18  1  0  0  0  0
 17 19  2  0  0  0  0
 14 15  1  0  0  0  0
 14 16  1  0  0  0  0
 14 17  1  0  0  0  0
 11 12  1  0  0  0  0
 11 13  1  0  0  0  0
 11 14  1  0  0  0  0
  9 10  1  0  0  0  0
  9 11  1  0  0  0  0
  9 20  1  0  0  0  0
  7  8  1  0  0  0  0
  7  9  1  0  0  0  0
 24 25  1  0  0  0  0
 24 26  1  0  0  0  0
 24 27  1  0  0  0  0
 22 23  1  0  0  0  0
 22 24  1  0  0  0  0
M  CHG  1  18  -1
M  END
$$$$
default_name
  -OEChem-01062215323D

 27 26  0     1  0  0  0  0  0999 V2000
   -3.2406   -3.5400    1.2326 H   0  0  0  0  0  0  0  0  0  0  0  0
   -3.1436   -2.6190    0.6606 C   0  0  0  0  0  0  0  0  0  0  0  0
   -3.8786   -1.8920    0.9996 H   0  0  0  0  0  0  0  0  0  0  0  0
   -3.2846   -2.8280   -0.3984 H   0  0  0  0  0  0  0  0  0  0  0  0
   -1.7586   -2.0580    0.8686 C   0  0  0  0  0  0  0  0  0  0  0  0
   -0.9666   -2.6340    1.6026 O   0  0  0  0  0  0  0  0  0  0  0  0
   -1.4866   -0.9220    0.2366 N   0  0  0  0  0  0  0  0  0  0  0  0
   -2.2166   -0.4790   -0.2994 H   0  0  0  0  0  0  0  0  0  0  0  0
   -0.1956   -0.2250    0.2596 C   0  0  1  0  0  0  0  0  0  0  0  0
    0.6025   -0.9600    0.1511 H   0  0  0  0  0  0  0  0  0  0  0  0
   -0.1153    0.7301   -0.9482 C   0  0  0  0  0  0  0  0  0  0  0  0
   -1.0012    1.3670   -0.9326 H   0  0  0  0  0  0  0  0  0  0  0  0
    0.7668    1.3642   -0.8480 H   0  0  0  0  0  0  0  0  0  0  0  0
   -0.0621    0.0021   -2.3019 C   0  0  0  0  0  0  0  0  0  0  0  0
    0.8187   -0.6442   -2.3256 H   0  0  0  0  0  0  0  0  0  0  0  0
   -0.9483   -0.6327   -2.3851 H   0  0  0  0  0  0  0  0  0  0  0  0
   -0.0068    0.9547   -3.5054 C   0  0  0  0  0  0  0  0  0  0  0  0
   -0.1438    2.1815   -3.2988 O   0  5  0  0  0  0  0  0  0  0  0  0
    0.1988    0.4338   -4.6242 O   0  0  0  0  0  0  0  0  0  0  0  0
    0.0157    0.4900    1.6104 C   0  0  0  0  0  0  0  0  0  0  0  0
   -0.3814    1.6449    1.7785 O   0  0  0  0  0  0  0  0  0  0  0  0
    0.6198   -0.2016    2.5855 N   0  0  0  0  0  0  0  0  0  0  0  0
    0.9658   -1.1219    2.3579 H   0  0  0  0  0  0  0  0  0  0  0  0
    0.9105    0.3352    3.9125 C   0  0  0  0  0  0  0  0  0  0  0  0
    0.0060    0.7718    4.3393 H   0  0  0  0  0  0  0  0  0  0  0  0
    1.2762   -0.4578    4.5663 H   0  0  0  0  0  0  0  0  0  0  0  0
    1.6701    1.1149    3.8294 H   0  0  0  0  0  0  0  0  0  0  0  0
  5  6  2  0  0  0  0
  5  7  1  0  0  0  0
  2  3  1  0  0  0  0
  2  4  1  0  0  0  0
  2  5  1  0  0  0  0
  1  2  1  0  0  0  0
 20 21  2  0  0  0  0
 20 22  1  0  0  0  0
 17 18  1  0  0  0  0
 17 19  2  0  0  0  0
 14 15  1  0  0  0  0
 14 16  1  0  0  0  0
 14 17  1  0  0  0  0
 11 12  1  0  0  0  0
 11 13  1  0  0  0  0
 11 14  1  0  0  0  0
  9 10  1  0  0  0  0
  9 11  1  0  0  0  0
  9 20  1  0  0  0  0
  7  8  1  0  0  0  0
  7  9  1  0  0  0  0
 24 25  1  0  0  0  0
 24 26  1  0  0  0  0
 24 27  1  0  0  0  0
 22 23  1  0  0  0  0
 22 24  1  0  0  0  0
M  CHG  1  18  -1
M  END
$$$$
default_name
  -OEChem-01062215323D

 27 26  0     1  0  0  0  0  0999 V2000
   -3.2406   -3.5400    1.2326 H   0  0  0  0  0  0  0  0  0  0  0  0
   -3.1436   -2.6190    0.6606 C   0  0  0  0  0  0  0  0  0  0  0  0
   -3.8786   -1.8920    0.9996 H   0  0  0  0  0  0  0  0  0  0  0  0
   -3.2846   -2.8280   -0.3984 H   0  0  0  0  0  0  0  0  0  0  0  0
   -1.7586   -2.0580    0.8686 C   0  0  0  0  0  0  0  0  0  0  0  0
   -0.9666   -2.6340    1.6026 O   0  0  0  0  0  0  0  0  0  0  0  0
   -1.4866   -0.9220    0.2366 N   0  0  0  0  0  0  0  0  0  0  0  0
   -2.2166   -0.4790   -0.2994 H   0  0  0  0  0  0  0  0  0  0  0  0
   -0.1956   -0.2250    0.2596 C   0  0  1  0  0  0  0  0  0  0  0  0
    0.6025   -0.9600    0.1511 H   0  0  0  0  0  0  0  0  0  0  0  0
   -0.1153    0.7301   -0.9482 C   0  0  0  0  0  0  0  0  0  0  0  0
   -1.0012    1.3670   -0.9326 H   0  0  0  0  0  0  0  0  0  0  0  0
    0.7668    1.3642   -0.8480 H   0  0  0  0  0  0  0  0  0  0  0  0
   -0.0621    0.0021   -2.3019 C   0  0  0  0  0  0  0  0  0  0  0  0
    0.8187   -0.6442   -2.3256 H   0  0  0  0  0  0  0  0  0  0  0  0
   -0.9483   -0.6327   -2.3851 H   0  0  0  0  0  0  0  0  0  0  0  0
   -0.0068    0.9547   -3.5054 C   0  0  0  0  0  0  0  0  0  0  0  0
   -0.1438    2.1815   -3.2988 O   0  5  0  0  0  0  0  0  0  0  0  0
    0.1988    0.4338   -4.6242 O   0  0  0  0  0  0  0  0  0  0  0  0
    0.0157    0.4900    1.6104 C   0  0  0  0  0  0  0  0  0  0  0  0
   -0.6064    1.5195    1.8801 O   0  0  0  0  0  0  0  0  0  0  0  0
    0.8757   -0.0660    2.4737 N   0  0  0  0  0  0  0  0  0  0  0  0
    1.3885   -0.8776    2.1625 H   0  0  0  0  0  0  0  0  0  0  0  0
    1.2009    0.4942    3.7828 C   0  0  0  0  0  0  0  0  0  0  0  0
    0.2816    0.7030    4.3326 H   0  0  0  0  0  0  0  0  0  0  0  0
    1.8134   -0.2080    4.3501 H   0  0  0  0  0  0  0  0  0  0  0  0
    1.7498    1.4286    3.6509 H   0  0  0  0  0  0  0  0  0  0  0  0
  5  6  2  0  0  0  0
  5  7  1  0  0  0  0
  2  3  1  0  0  0  0
  2  4  1  0  0  0  0
  2  5  1  0  0  0  0
  1  2  1  0  0  0  0
 20 21  2  0  0  0  0
 20 22  1  0  0  0  0
 17 18  1  0  0  0  0
 17 19  2  0  0  0  0
 14 15  1  0  0  0  0
 14 16  1  0  0  0  0
 14 17  1  0  0  0  0
 11 12  1  0  0  0  0
 11 13  1  0  0  0  0
 11 14  1  0  0  0  0
  9 10  1  0  0  0  0
  9 11  1  0  0  0  0
  9 20  1  0  0  0  0
  7  8  1  0  0  0  0
  7  9  1  0  0  0  0
 24 25  1  0  0  0  0
 24 26  1  0  0  0  0
 24 27  1  0  0  0  0
 22 23  1  0  0  0  0
 22 24  1  0  0  0  0
M  CHG  1  18  -1
M  END
$$$$
default_name
  -OEChem-01062215323D

 27 26  0     1  0  0  0  0  0999 V2000
   -3.2406   -3.5400    1.2326 H   0  0  0  0  0  0  0  0  0  0  0  0
   -3.1436   -2.6190    0.6606 C   0  0  0  0  0  0  0  0  0  0  0  0
   -3.8786   -1.8920    0.9996 H   0  0  0  0  0  0  0  0  0  0  0  0
   -3.2846   -2.8280   -0.3984 H   0  0  0  0  0  0  0  0  0  0  0  0
   -1.7586   -2.0580    0.8686 C   0  0  0  0  0  0  0  0  0  0  0  0
   -0.9666   -2.6340    1.6026 O   0  0  0  0  0  0  0  0  0  0  0  0
   -1.4866   -0.9220    0.2366 N   0  0  0  0  0  0  0  0  0  0  0  0
   -2.2166   -0.4790   -0.2994 H   0  0  0  0  0  0  0  0  0  0  0  0
   -0.1956   -0.2250    0.2596 C   0  0  1  0  0  0  0  0  0  0  0  0
    0.6025   -0.9600    0.1511 H   0  0  0  0  0  0  0  0  0  0  0  0
   -0.1153    0.7301   -0.9482 C   0  0  0  0  0  0  0  0  0  0  0  0
   -1.0012    1.3670   -0.9326 H   0  0  0  0  0  0  0  0  0  0  0  0
    0.7668    1.3642   -0.8480 H   0  0  0  0  0  0  0  0  0  0  0  0
   -0.0621    0.0021   -2.3019 C   0  0  0  0  0  0  0  0  0  0  0  0
    0.8187   -0.6442   -2.3256 H   0  0  0  0  0  0  0  0  0  0  0  0
   -0.9483   -0.6327   -2.3851 H   0  0  0  0  0  0  0  0  0  0  0  0
   -0.0068    0.9547   -3.5054 C   0  0  0  0  0  0  0  0  0  0  0  0
   -0.1438    2.1815   -3.2988 O   0  5  0  0  0  0  0  0  0  0  0  0
    0.1988    0.4338   -4.6242 O   0  0  0  0  0  0  0  0  0  0  0  0
    0.0157    0.4900    1.6104 C   0  0  0  0  0  0  0  0  0  0  0  0
   -0.7832    1.3438    2.0008 O   0  0  0  0  0  0  0  0  0  0  0  0
    1.0789    0.1270    2.3398 N   0  0  0  0  0  0  0  0  0  0  0  0
    1.7180   -0.5389    1.9316 H   0  0  0  0  0  0  0  0  0  0  0  0
    1.4298    0.7182    3.6284 C   0  0  0  0  0  0  0  0  0  0  0  0
    0.5625    0.6993    4.2906 H   0  0  0  0  0  0  0  0  0  0  0  0
    2.2498    0.1627    4.0856 H   0  0  0  0  0  0  0  0  0  0  0  0
    1.7343    1.7561    3.4800 H   0  0  0  0  0  0  0  0  0  0  0  0
  5  6  2  0  0  0  0
  5  7  1  0  0  0  0
  2  3  1  0  0  0  0
  2  4  1  0  0  0  0
  2  5  1  0  0  0  0
  1  2  1  0  0  0  0
 20 21  2  0  0  0  0
 20 22  1  0  0  0  0
 17 18  1  0  0  0  0
 17 19  2  0  0  0  0
 14 15  1  0  0  0  0
 14 16  1  0  0  0  0
 14 17  1  0  0  0  0
 11 12  1  0  0  0  0
 11 13  1  0  0  0  0
 11 14  1  0  0  0  0
  9 10  1  0  0  0  0
  9 11  1  0  0  0  0
  9 20  1  0  0  0  0
  7  8  1  0  0  0  0
  7  9  1  0  0  0  0
 24 25  1  0  0  0  0
 24 26  1  0  0  0  0
 24 27  1  0  0  0  0
 22 23  1  0  0  0  0
 22 24  1  0  0  0  0
M  CHG  1  18  -1
M  END
$$$$
default_name
  -OEChem-01062215323D

 27 26  0     1  0  0  0  0  0999 V2000
   -3.2406   -3.5400    1.2326 H   0  0  0  0  0  0  0  0  0  0  0  0
   -3.1436   -2.6190    0.6606 C   0  0  0  0  0  0  0  0  0  0  0  0
   -3.8786   -1.8920    0.9996 H   0  0  0  0  0  0  0  0  0  0  0  0
   -3.2846   -2.8280   -0.3984 H   0  0  0  0  0  0  0  0  0  0  0  0
   -1.7586   -2.0580    0.8686 C   0  0  0  0  0  0  0  0  0  0  0  0
   -0.9666   -2.6340    1.6026 O   0  0  0  0  0  0  0  0  0  0  0  0
   -1.4866   -0.9220    0.2366 N   0  0  0  0  0  0  0  0  0  0  0  0
   -2.2166   -0.4790   -0.2994 H   0  0  0  0  0  0  0  0  0  0  0  0
   -0.1956   -0.2250    0.2596 C   0  0  1  0  0  0  0  0  0  0  0  0
    0.6025   -0.9600    0.1511 H   0  0  0  0  0  0  0  0  0  0  0  0
   -0.1153    0.7301   -0.9482 C   0  0  0  0  0  0  0  0  0  0  0  0
   -1.0012    1.3670   -0.9326 H   0  0  0  0  0  0  0  0  0  0  0  0
    0.7668    1.3642   -0.8480 H   0  0  0  0  0  0  0  0  0  0  0  0
   -0.0621    0.0021   -2.3019 C   0  0  0  0  0  0  0  0  0  0  0  0
    0.8187   -0.6442   -2.3256 H   0  0  0  0  0  0  0  0  0  0  0  0
   -0.9483   -0.6327   -2.3851 H   0  0  0  0  0  0  0  0  0  0  0  0
   -0.0068    0.9547   -3.5054 C   0  0  0  0  0  0  0  0  0  0  0  0
   -0.1438    2.1815   -3.2988 O   0  5  0  0  0  0  0  0  0  0  0  0
    0.1988    0.4338   -4.6242 O   0  0  0  0  0  0  0  0  0  0  0  0
    0.0157    0.4900    1.6104 C   0  0  0  0  0  0  0  0  0  0  0  0
   -0.8997    1.1298    2.1323 O   0  0  0  0  0  0  0  0  0  0  0  0
    1.2153    0.3641    2.1929 N   0  0  0  0  0  0  0  0  0  0  0  0
    1.9319   -0.1289    1.6812 H   0  0  0  0  0  0  0  0  0  0  0  0
    1.5816    0.9920    3.4598 C   0  0  0  0  0  0  0  0  0  0  0  0
    0.8297    0.7608    4.2163 H   0  0  0  0  0  0  0  0  0  0  0  0
    2.5556    0.6290    3.7909 H   0  0  0  0  0  0  0  0  0  0  0  0
    1.6246    2.0749    3.3283 H   0  0  0  0  0  0  0  0  0  0  0  0
  5  6  2  0  0  0  0
  5  7  1  0  0  0  0
  2  3  1  0  0  0  0
  2  4  1  0  0  0  0
  2  5  1  0  0  0  0
  1  2  1  0  0  0  0
 20 21  2  0  0  0  0
 20 22  1  0  0  0  0
 17 18  1  0  0  0  0
 17 19  2  0  0  0  0
 14 15  1  0  0  0  0
 14 16  1  0  0  0  0
 14 17  1  0  0  0  0
 11 12  1  0  0  0  0
 11 13  1  0  0  0  0
 11 14  1  0  0  0  0
  9 10  1  0  0  0  0
  9 11  1  0  0  0  0
  9 20  1  0  0  0  0
  7  8  1  0  0  0  0
  7  9  1  0  0  0  0
 24 25  1  0  0  0  0
 24 26  1  0  0  0  0
 24 27  1  0  0  0  0
 22 23  1  0  0  0  0
 22 24  1  0  0  0  0
M  CHG  1  18  -1
M  END
$$$$
default_name
  -OEChem-01062215323D

 27 26  0     1  0  0  0  0  0999 V2000
   -3.2406   -3.5400    1.2326 H   0  0  0  0  0  0  0  0  0  0  0  0
   -3.1436   -2.6190    0.6606 C   0  0  0  0  0  0  0  0  0  0  0  0
   -3.8786   -1.8920    0.9996 H   0  0  0  0  0  0  0  0  0  0  0  0
   -3.2846   -2.8280   -0.3984 H   0  0  0  0  0  0  0  0  0  0  0  0
   -1.7586   -2.0580    0.8686 C   0  0  0  0  0  0  0  0  0  0  0  0
   -0.9666   -2.6340    1.6026 O   0  0  0  0  0  0  0  0  0  0  0  0
   -1.4866   -0.9220    0.2366 N   0  0  0  0  0  0  0  0  0  0  0  0
   -2.2166   -0.4790   -0.2994 H   0  0  0  0  0  0  0  0  0  0  0  0
   -0.1956   -0.2250    0.2596 C   0  0  1  0  0  0  0  0  0  0  0  0
    0.6025   -0.9600    0.1511 H   0  0  0  0  0  0  0  0  0  0  0  0
   -0.1153    0.7301   -0.9482 C   0  0  0  0  0  0  0  0  0  0  0  0
   -1.0012    1.3670   -0.9326 H   0  0  0  0  0  0  0  0  0  0  0  0
    0.7668    1.3642   -0.8480 H   0  0  0  0  0  0  0  0  0  0  0  0
   -0.0621    0.0021   -2.3019 C   0  0  0  0  0  0  0  0  0  0  0  0
    0.8187   -0.6442   -2.3256 H   0  0  0  0  0  0  0  0  0  0  0  0
   -0.9483   -0.6327   -2.3851 H   0  0  0  0  0  0  0  0  0  0  0  0
   -0.0068    0.9547   -3.5054 C   0  0  0  0  0  0  0  0  0  0  0  0
   -0.1438    2.1815   -3.2988 O   0  5  0  0  0  0  0  0  0  0  0  0
    0.1988    0.4338   -4.6242 O   0  0  0  0  0  0  0  0  0  0  0  0
    0.0157    0.4900    1.6104 C   0  0  0  0  0  0  0  0  0  0  0  0
   -0.9479    0.8920    2.2657 O   0  0  0  0  0  0  0  0  0  0  0  0
    1.2757    0.6293    2.0431 N   0  0  0  0  0  0  0  0  0  0  0  0
    2.0155    0.3244    1.4281 H   0  0  0  0  0  0  0  0  0  0  0  0
    1.6460    1.2968    3.2884 C   0  0  0  0  0  0  0  0  0  0  0  0
    1.0650    0.8835    4.1145 H   0  0  0  0  0  0  0  0  0  0  0  0
    2.7100    1.1591    3.4861 H   0  0  0  0  0  0  0  0  0  0  0  0
    1.4282    2.3634    3.2063 H   0  0  0  0  0  0  0  0  0  0  0  0
  5  6  2  0  0  0  0
  5  7  1  0  0  0  0
  2  3  1  0  0  0  0
  2  4  1  0  0  0  0
  2  5  1  0  0  0  0
  1  2  1  0  0  0  0
 20 21  2  0  0  0  0
 20 22  1  0  0  0  0
 17 18  1  0  0  0  0
 17 19  2  0  0  0  0
 14 15  1  0  0  0  0
 14 16  1  0  0  0  0
 14 17  1  0  0  0  0
 11 12  1  0  0  0  0
 11 13  1  0  0  0  0
 11 14  1  0  0  0  0
  9 10  1  0  0  0  0
  9 11  1  0  0  0  0
  9 20  1  0  0  0  0
  7  8  1  0  0  0  0
  7  9  1  0  0  0  0
 24 25  1  0  0  0  0
 24 26  1  0  0  0  0
 24 27  1  0  0  0  0
 22 23  1  0  0  0  0
 22 24  1  0  0  0  0
M  CHG  1  18  -1
M  END
$$$$
default_name
  -OEChem-01062215323D

 27 26  0     1  0  0  0  0  0999 V2000
   -3.2406   -3.5400    1.2326 H   0  0  0  0  0  0  0  0  0  0  0  0
   -3.1436   -2.6190    0.6606 C   0  0  0  0  0  0  0  0  0  0  0  0
   -3.8786   -1.8920    0.9996 H   0  0  0  0  0  0  0  0  0  0  0  0
   -3.2846   -2.8280   -0.3984 H   0  0  0  0  0  0  0  0  0  0  0  0
   -1.7586   -2.0580    0.8686 C   0  0  0  0  0  0  0  0  0  0  0  0
   -0.9666   -2.6340    1.6026 O   0  0  0  0  0  0  0  0  0  0  0  0
   -1.4866   -0.9220    0.2366 N   0  0  0  0  0  0  0  0  0  0  0  0
   -2.2166   -0.4790   -0.2994 H   0  0  0  0  0  0  0  0  0  0  0  0
   -0.1956   -0.2250    0.2596 C   0  0  1  0  0  0  0  0  0  0  0  0
    0.6025   -0.9600    0.1511 H   0  0  0  0  0  0  0  0  0  0  0  0
   -0.1153    0.7301   -0.9482 C   0  0  0  0  0  0  0  0  0  0  0  0
   -1.0012    1.3670   -0.9326 H   0  0  0  0  0  0  0  0  0  0  0  0
    0.7668    1.3642   -0.8480 H   0  0  0  0  0  0  0  0  0  0  0  0
   -0.0621    0.0021   -2.3019 C   0  0  0  0  0  0  0  0  0  0  0  0
    0.8187   -0.6442   -2.3256 H   0  0  0  0  0  0  0  0  0  0  0  0
   -0.9483   -0.6327   -2.3851 H   0  0  0  0  0  0  0  0  0  0  0  0
   -0.0068    0.9547   -3.5054 C   0  0  0  0  0  0  0  0  0  0  0  0
   -0.1438    2.1815   -3.2988 O   0  5  0  0  0  0  0  0  0  0  0  0
    0.1988    0.4338   -4.6242 O   0  0  0  0  0  0  0  0  0  0  0  0
    0.0157    0.4900    1.6104 C   0  0  0  0  0  0  0  0  0  0  0  0
   -0.9246    0.6466    2.3920 O   0  0  0  0  0  0  0  0  0  0  0  0
    1.2559    0.9044    1.9005 N   0  0  0  0  0  0  0  0  0  0  0  0
    1.9632    0.7902    1.1897 H   0  0  0  0  0  0  0  0  0  0  0  0
    1.6186    1.6118    3.1259 C   0  0  0  0  0  0  0  0  0  0  0  0
    1.2522    1.0588    3.9924 H   0  0  0  0  0  0  0  0  0  0  0  0
    2.7024    1.7170    3.1919 H   0  0  0  0  0  0  0  0  0  0  0  0
    1.1585    2.6019    3.1223 H   0  0  0  0  0  0  0  0  0  0  0  0
  5  6  2  0  0  0  0
  5  7  1  0  0  0  0
  2  3  1  0  0  0  0
  2  4  1  0  0  0  0
  2  5  1  0  0  0  0
  1  2  1  0  0  0  0
 20 21  2  0  0  0  0
 20 22  1  0  0  0  0
 17 18  1  0  0  0  0
 17 19  2  0  0  0  0
 14 15  1  0  0  0  0
 14 16  1  0  0  0  0
 14 17  1  0  0  0  0
 11 12  1  0  0  0  0
 11 13  1  0  0  0  0
 11 14  1  0  0  0  0
  9 10  1  0  0  0  0
  9 11  1  0  0  0  0
  9 20  1  0  0  0  0
  7  8  1  0  0  0  0
  7  9  1  0  0  0  0
 24 25  1  0  0  0  0
 24 26  1  0  0  0  0
 24 27  1  0  0  0  0
 22 23  1  0  0  0  0
 22 24  1  0  0  0  0
M  CHG  1  18  -1
M  END
$$$$
default_name
  -OEChem-01062215323D

 27 26  0     1  0  0  0  0  0999 V2000
   -3.2406   -3.5400    1.2326 H   0  0  0  0  0  0  0  0  0  0  0  0
   -3.1436   -2.6190    0.6606 C   0  0  0  0  0  0  0  0  0  0  0  0
   -3.8786   -1.8920    0.9996 H   0  0  0  0  0  0  0  0  0  0  0  0
   -3.2846   -2.8280   -0.3984 H   0  0  0  0  0  0  0  0  0  0  0  0
   -1.7586   -2.0580    0.8686 C   0  0  0  0  0  0  0  0  0  0  0  0
   -0.9666   -2.6340    1.6026 O   0  0  0  0  0  0  0  0  0  0  0  0
   -1.4866   -0.9220    0.2366 N   0  0  0  0  0  0  0  0  0  0  0  0
   -2.2166   -0.4790   -0.2994 H   0  0  0  0  0  0  0  0  0  0  0  0
   -0.1956   -0.2250    0.2596 C   0  0  1  0  0  0  0  0  0  0  0  0
    0.5755   -0.9013   -0.1105 H   0  0  0  0  0  0  0  0  0  0  0  0
   -0.2553    0.9811   -0.6992 C   0  0  0  0  0  0  0  0  0  0  0  0
   -1.1259    1.5814   -0.4304 H   0  0  0  0  0  0  0  0  0  0  0  0
    0.6388    1.5918   -0.5658 H   0  0  0  0  0  0  0  0  0  0  0  0
   -0.3770    0.5812   -2.1793 C   0  0  0  0  0  0  0  0  0  0  0  0
    0.4875   -0.0265   -2.4573 H   0  0  0  0  0  0  0  0  0  0  0  0
   -1.2730   -0.0341   -2.2958 H   0  0  0  0  0  0  0  0  0  0  0  0
   -0.4609    1.7834   -3.1314 C   0  0  0  0  0  0  0  0  0  0  0  0
   -0.5588    2.9283   -2.6353 O   0  5  0  0  0  0  0  0  0  0  0  0
   -0.4002    1.5345   -4.3560 O   0  0  0  0  0  0  0  0  0  0  0  0
    0.1881    0.1678    1.7015 C   0  0  0  0  0  0  0  0  0  0  0  0
   -0.5432   -0.1281    2.6488 O   0  0  0  0  0  0  0  0  0  0  0  0
    1.3483    0.8140    1.8758 N   0  0  0  0  0  0  0  0  0  0  0  0
    1.8674    1.0700    1.0490 H   0  0  0  0  0  0  0  0  0  0  0  0
    1.8461    1.2707    3.1708 C   0  0  0  0  0  0  0  0  0  0  0  0
    1.8260    0.4456    3.8848 H   0  0  0  0  0  0  0  0  0  0  0  0
    2.8671    1.6417    3.0709 H   0  0  0  0  0  0  0  0  0  0  0  0
    1.2048    2.0718    3.5434 H   0  0  0  0  0  0  0  0  0  0  0  0
  5  6  2  0  0  0  0
  5  7  1  0  0  0  0
  2  3  1  0  0  0  0
  2  4  1  0  0  0  0
  2  5  1  0  0  0  0
  1  2  1  0  0  0  0
 20 21  2  0  0  0  0
 20 22  1  0  0  0  0
 17 18  1  0  0  0  0
 17 19  2  0  0  0  0
 14 15  1  0  0  0  0
 14 16  1  0  0  0  0
 14 17  1  0  0  0  0
 11 12  1  0  0  0  0
 11 13  1  0  0  0  0
 11 14  1  0  0  0  0
  9 10  1  0  0  0  0
  9 11  1  0  0  0  0
  9 20  1  0  0  0  0
  7  8  1  0  0  0  0
  7  9  1  0  0  0  0
 24 25  1  0  0  0  0
 24 26  1  0  0  0  0
 24 27  1  0  0  0  0
 22 23  1  0  0  0  0
 22 24  1  0  0  0  0
M  CHG  1  18  -1
M  END
$$$$
default_name
  -OEChem-01062215323D

 27 26  0     1  0  0  0  0  0999 V2000
   -3.2406   -3.5400    1.2326 H   0  0  0  0  0  0  0  0  0  0  0  0
   -3.1436   -2.6190    0.6606 C   0  0  0  0  0  0  0  0  0  0  0  0
   -3.8786   -1.8920    0.9996 H   0  0  0  0  0  0  0  0  0  0  0  0
   -3.2846   -2.8280   -0.3984 H   0  0  0  0  0  0  0  0  0  0  0  0
   -1.7586   -2.0580    0.8686 C   0  0  0  0  0  0  0  0  0  0  0  0
   -0.9666   -2.6340    1.6026 O   0  0  0  0  0  0  0  0  0  0  0  0
   -1.4866   -0.9220    0.2366 N   0  0  0  0  0  0  0  0  0  0  0  0
   -2.2166   -0.4790   -0.2994 H   0  0  0  0  0  0  0  0  0  0  0  0
   -0.1956   -0.2250    0.2596 C   0  0  1  0  0  0  0  0  0  0  0  0
    0.5755   -0.9013   -0.1105 H   0  0  0  0  0  0  0  0  0  0  0  0
   -0.2553    0.9811   -0.6992 C   0  0  0  0  0  0  0  0  0  0  0  0
   -1.1259    1.5814   -0.4304 H   0  0  0  0  0  0  0  0  0  0  0  0
    0.6388    1.5918   -0.5658 H   0  0  0  0  0  0  0  0  0  0  0  0
   -0.3770    0.5812   -2.1793 C   0  0  0  0  0  0  0  0  0  0  0  0
    0.4875   -0.0265   -2.4573 H   0  0  0  0  0  0  0  0  0  0  0  0
   -1.2730   -0.0341   -2.2958 H   0  0  0  0  0  0  0  0  0  0  0  0
   -0.4609    1.7834   -3.1314 C   0  0  0  0  0  0  0  0  0  0  0  0
   -0.5588    2.9283   -2.6353 O   0  5  0  0  0  0  0  0  0  0  0  0
   -0.4002    1.5345   -4.3560 O   0  0  0  0  0  0  0  0  0  0  0  0
    0.1881    0.1678    1.7015 C   0  0  0  0  0  0  0  0  0  0  0  0
   -0.3790   -0.3504    2.6656 O   0  0  0  0  0  0  0  0  0  0  0  0
    1.1691    1.0668    1.8546 N   0  0  0  0  0  0  0  0  0  0  0  0
    1.5492    1.4877    1.0199 H   0  0  0  0  0  0  0  0  0  0  0  0
    1.6371    1.5575    3.1482 C   0  0  0  0  0  0  0  0  0  0  0  0
    1.8681    0.7137    3.8005 H   0  0  0  0  0  0  0  0  0  0  0  0
    2.5292    2.1715    3.0165 H   0  0  0  0  0  0  0  0  0  0  0  0
    0.8518    2.1557    3.6145 H   0  0  0  0  0  0  0  0  0  0  0  0
  5  6  2  0  0  0  0
  5  7  1  0  0  0  0
  2  3  1  0  0  0  0
  2  4  1  0  0  0  0
  2  5  1  0  0  0  0
  1  2  1  0  0  0  0
 20 21  2  0  0  0  0
 20 22  1  0  0  0  0
 17 18  1  0  0  0  0
 17 19  2  0  0  0  0
 14 15  1  0  0  0  0
 14 16  1  0  0  0  0
 14 17  1  0  0  0  0
 11 12  1  0  0  0  0
 11 13  1  0  0  0  0
 11 14  1  0  0  0  0
  9 10  1  0  0  0  0
  9 11  1  0  0  0  0
  9 20  1  0  0  0  0
  7  8  1  0  0  0  0
  7  9  1  0  0  0  0
 24 25  1  0  0  0  0
 24 26  1  0  0  0  0
 24 27  1  0  0  0  0
 22 23  1  0  0  0  0
 22 24  1  0  0  0  0
M  CHG  1  18  -1
M  END
$$$$
default_name
  -OEChem-01062215323D

 27 26  0     1  0  0  0  0  0999 V2000
   -3.2406   -3.5400    1.2326 H   0  0  0  0  0  0  0  0  0  0  0  0
   -3.1436   -2.6190    0.6606 C   0  0  0  0  0  0  0  0  0  0  0  0
   -3.8786   -1.8920    0.9996 H   0  0  0  0  0  0  0  0  0  0  0  0
   -3.2846   -2.8280   -0.3984 H   0  0  0  0  0  0  0  0  0  0  0  0
   -1.7586   -2.0580    0.8686 C   0  0  0  0  0  0  0  0  0  0  0  0
   -0.9666   -2.6340    1.6026 O   0  0  0  0  0  0  0  0  0  0  0  0
   -1.4866   -0.9220    0.2366 N   0  0  0  0  0  0  0  0  0  0  0  0
   -2.2166   -0.4790   -0.2994 H   0  0  0  0  0  0  0  0  0  0  0  0
   -0.1956   -0.2250    0.2596 C   0  0  1  0  0  0  0  0  0  0  0  0
    0.5755   -0.9013   -0.1105 H   0  0  0  0  0  0  0  0  0  0  0  0
   -0.2553    0.9811   -0.6992 C   0  0  0  0  0  0  0  0  0  0  0  0
   -1.1259    1.5814   -0.4304 H   0  0  0  0  0  0  0  0  0  0  0  0
    0.6388    1.5918   -0.5658 H   0  0  0  0  0  0  0  0  0  0  0  0
   -0.3770    0.5812   -2.1793 C   0  0  0  0  0  0  0  0  0  0  0  0
    0.4875   -0.0265   -2.4573 H   0  0  0  0  0  0  0  0  0  0  0  0
   -1.2730   -0.0341   -2.2958 H   0  0  0  0  0  0  0  0  0  0  0  0
   -0.4609    1.7834   -3.1314 C   0  0  0  0  0  0  0  0  0  0  0  0
   -0.5588    2.9283   -2.6353 O   0  5  0  0  0  0  0  0  0  0  0  0
   -0.4002    1.5345   -4.3560 O   0  0  0  0  0  0  0  0  0  0  0  0
    0.1881    0.1678    1.7015 C   0  0  0  0  0  0  0  0  0  0  0  0
   -0.1655   -0.5265    2.6568 O   0  0  0  0  0  0  0  0  0  0  0  0
    0.9336    1.2689    1.8622 N   0  0  0  0  0  0  0  0  0  0  0  0
    1.1390    1.8162    1.0395 H   0  0  0  0  0  0  0  0  0  0  0  0
    1.3645    1.7855    3.1587 C   0  0  0  0  0  0  0  0  0  0  0  0
    1.8385    0.9882    3.7336 H   0  0  0  0  0  0  0  0  0  0  0  0
    2.0711    2.6050    3.0203 H   0  0  0  0  0  0  0  0  0  0  0  0
    0.4952    2.1467    3.7118 H   0  0  0  0  0  0  0  0  0  0  0  0
  5  6  2  0  0  0  0
  5  7  1  0  0  0  0
  2  3  1  0  0  0  0
  2  4  1  0  0  0  0
  2  5  1  0  0  0  0
  1  2  1  0  0  0  0
 20 21  2  0  0  0  0
 20 22  1  0  0  0  0
 17 18  1  0  0  0  0
 17 19  2  0  0  0  0
 14 15  1  0  0  0  0
 14 16  1  0  0  0  0
 14 17  1  0  0  0  0
 11 12  1  0  0  0  0
 11 13  1  0  0  0  0
 11 14  1  0  0  0  0
  9 10  1  0  0  0  0
  9 11  1  0  0  0  0
  9 20  1  0  0  0  0
  7  8  1  0  0  0  0
  7  9  1  0  0  0  0
 24 25  1  0  0  0  0
 24 26  1  0  0  0  0
 24 27  1  0  0  0  0
 22 23  1  0  0  0  0
 22 24  1  0  0  0  0
M  CHG  1  18  -1
M  END
$$$$
default_name
  -OEChem-01062215323D

 27 26  0     1  0  0  0  0  0999 V2000
   -3.2406   -3.5400    1.2326 H   0  0  0  0  0  0  0  0  0  0  0  0
   -3.1436   -2.6190    0.6606 C   0  0  0  0  0  0  0  0  0  0  0  0
   -3.8786   -1.8920    0.9996 H   0  0  0  0  0  0  0  0  0  0  0  0
   -3.2846   -2.8280   -0.3984 H   0  0  0  0  0  0  0  0  0  0  0  0
   -1.7586   -2.0580    0.8686 C   0  0  0  0  0  0  0  0  0  0  0  0
   -0.9666   -2.6340    1.6026 O   0  0  0  0  0  0  0  0  0  0  0  0
   -1.4866   -0.9220    0.2366 N   0  0  0  0  0  0  0  0  0  0  0  0
   -2.2166   -0.4790   -0.2994 H   0  0  0  0  0  0  0  0  0  0  0  0
   -0.1956   -0.2250    0.2596 C   0  0  1  0  0  0  0  0  0  0  0  0
    0.5755   -0.9013   -0.1105 H   0  0  0  0  0  0  0  0  0  0  0  0
   -0.2553    0.9811   -0.6992 C   0  0  0  0  0  0  0  0  0  0  0  0
   -1.1259    1.5814   -0.4304 H   0  0  0  0  0  0  0  0  0  0  0  0
    0.6388    1.5918   -0.5658 H   0  0  0  0  0  0  0  0  0  0  0  0
   -0.3770    0.5812   -2.1793 C   0  0  0  0  0  0  0  0  0  0  0  0
    0.4875   -0.0265   -2.4573 H   0  0  0  0  0  0  0  0  0  0  0  0
   -1.2730   -0.0341   -2.2958 H   0  0  0  0  0  0  0  0  0  0  0  0
   -0.4609    1.7834   -3.1314 C   0  0  0  0  0  0  0  0  0  0  0  0
   -0.5588    2.9283   -2.6353 O   0  5  0  0  0  0  0  0  0  0  0  0
   -0.4002    1.5345   -4.3560 O   0  0  0  0  0  0  0  0  0  0  0  0
    0.1881    0.1678    1.7015 C   0  0  0  0  0  0  0  0  0  0  0  0
    0.0828   -0.6444    2.6229 O   0  0  0  0  0  0  0  0  0  0  0  0
    0.6576    1.4067    1.8981 N   0  0  0  0  0  0  0  0  0  0  0  0
    0.6646    2.0329    1.1067 H   0  0  0  0  0  0  0  0  0  0  0  0
    1.0466    1.9390    3.2014 C   0  0  0  0  0  0  0  0  0  0  0  0
    1.7391    1.2505    3.6886 H   0  0  0  0  0  0  0  0  0  0  0  0
    1.5240    2.9127    3.0820 H   0  0  0  0  0  0  0  0  0  0  0  0
    0.1594    2.0455    3.8287 H   0  0  0  0  0  0  0  0  0  0  0  0
  5  6  2  0  0  0  0
  5  7  1  0  0  0  0
  2  3  1  0  0  0  0
  2  4  1  0  0  0  0
  2  5  1  0  0  0  0
  1  2  1  0  0  0  0
 20 21  2  0  0  0  0
 20 22  1  0  0  0  0
 17 18  1  0  0  0  0
 17 19  2  0  0  0  0
 14 15  1  0  0  0  0
 14 16  1  0  0  0  0
 14 17  1  0  0  0  0
 11 12  1  0  0  0  0
 11 13  1  0  0  0  0
 11 14  1  0  0  0  0
  9 10  1  0  0  0  0
  9 11  1  0  0  0  0
  9 20  1  0  0  0  0
  7  8  1  0  0  0  0
  7  9  1  0  0  0  0
 24 25  1  0  0  0  0
 24 26  1  0  0  0  0
 24 27  1  0  0  0  0
 22 23  1  0  0  0  0
 22 24  1  0  0  0  0
M  CHG  1  18  -1
M  END
$$$$
default_name
  -OEChem-01062215323D

 27 26  0     1  0  0  0  0  0999 V2000
   -3.2406   -3.5400    1.2326 H   0  0  0  0  0  0  0  0  0  0  0  0
   -3.1436   -2.6190    0.6606 C   0  0  0  0  0  0  0  0  0  0  0  0
   -3.8786   -1.8920    0.9996 H   0  0  0  0  0  0  0  0  0  0  0  0
   -3.2846   -2.8280   -0.3984 H   0  0  0  0  0  0  0  0  0  0  0  0
   -1.7586   -2.0580    0.8686 C   0  0  0  0  0  0  0  0  0  0  0  0
   -0.9666   -2.6340    1.6026 O   0  0  0  0  0  0  0  0  0  0  0  0
   -1.4866   -0.9220    0.2366 N   0  0  0  0  0  0  0  0  0  0  0  0
   -2.2166   -0.4790   -0.2994 H   0  0  0  0  0  0  0  0  0  0  0  0
   -0.1956   -0.2250    0.2596 C   0  0  1  0  0  0  0  0  0  0  0  0
    0.5755   -0.9013   -0.1105 H   0  0  0  0  0  0  0  0  0  0  0  0
   -0.2553    0.9811   -0.6992 C   0  0  0  0  0  0  0  0  0  0  0  0
   -1.1259    1.5814   -0.4304 H   0  0  0  0  0  0  0  0  0  0  0  0
    0.6388    1.5918   -0.5658 H   0  0  0  0  0  0  0  0  0  0  0  0
   -0.3770    0.5812   -2.1793 C   0  0  0  0  0  0  0  0  0  0  0  0
    0.4875   -0.0265   -2.4573 H   0  0  0  0  0  0  0  0  0  0  0  0
   -1.2730   -0.0341   -2.2958 H   0  0  0  0  0  0  0  0  0  0  0  0
   -0.4609    1.7834   -3.1314 C   0  0  0  0  0  0  0  0  0  0  0  0
   -0.5588    2.9283   -2.6353 O   0  5  0  0  0  0  0  0  0  0  0  0
   -0.4002    1.5345   -4.3560 O   0  0  0  0  0  0  0  0  0  0  0  0
    0.1881    0.1678    1.7015 C   0  0  0  0  0  0  0  0  0  0  0  0
    0.3489   -0.6961    2.5662 O   0  0  0  0  0  0  0  0  0  0  0  0
    0.3601    1.4708    1.9598 N   0  0  0  0  0  0  0  0  0  0  0  0
    0.1583    2.1233    1.2168 H   0  0  0  0  0  0  0  0  0  0  0  0
    0.7053    2.0077    3.2735 C   0  0  0  0  0  0  0  0  0  0  0  0
    1.5766    1.4827    3.6686 H   0  0  0  0  0  0  0  0  0  0  0  0
    0.9252    3.0736    3.1975 H   0  0  0  0  0  0  0  0  0  0  0  0
   -0.1328    1.8590    3.9572 H   0  0  0  0  0  0  0  0  0  0  0  0
  5  6  2  0  0  0  0
  5  7  1  0  0  0  0
  2  3  1  0  0  0  0
  2  4  1  0  0  0  0
  2  5  1  0  0  0  0
  1  2  1  0  0  0  0
 20 21  2  0  0  0  0
 20 22  1  0  0  0  0
 17 18  1  0  0  0  0
 17 19  2  0  0  0  0
 14 15  1  0  0  0  0
 14 16  1  0  0  0  0
 14 17  1  0  0  0  0
 11 12  1  0  0  0  0
 11 13  1  0  0  0  0
 11 14  1  0  0  0  0
  9 10  1  0  0  0  0
  9 11  1  0  0  0  0
  9 20  1  0  0  0  0
  7  8  1  0  0  0  0
  7  9  1  0  0  0  0
 24 25  1  0  0  0  0
 24 26  1  0  0  0  0
 24 27  1  0  0  0  0
 22 23  1  0  0  0  0
 22 24  1  0  0  0  0
M  CHG  1  18  -1
M  END
$$$$
default_name
  -OEChem-01062215323D

 27 26  0     1  0  0  0  0  0999 V2000
   -3.2406   -3.5400    1.2326 H   0  0  0  0  0  0  0  0  0  0  0  0
   -3.1436   -2.6190    0.6606 C   0  0  0  0  0  0  0  0  0  0  0  0
   -3.8786   -1.8920    0.9996 H   0  0  0  0  0  0  0  0  0  0  0  0
   -3.2846   -2.8280   -0.3984 H   0  0  0  0  0  0  0  0  0  0  0  0
   -1.7586   -2.0580    0.8686 C   0  0  0  0  0  0  0  0  0  0  0  0
   -0.9666   -2.6340    1.6026 O   0  0  0  0  0  0  0  0  0  0  0  0
   -1.4866   -0.9220    0.2366 N   0  0  0  0  0  0  0  0  0  0  0  0
   -2.2166   -0.4790   -0.2994 H   0  0  0  0  0  0  0  0  0  0  0  0
   -0.1956   -0.2250    0.2596 C   0  0  1  0  0  0  0  0  0  0  0  0
    0.5755   -0.9013   -0.1105 H   0  0  0  0  0  0  0  0  0  0  0  0
   -0.2553    0.9811   -0.6992 C   0  0  0  0  0  0  0  0  0  0  0  0
   -1.1259    1.5814   -0.4304 H   0  0  0  0  0  0  0  0  0  0  0  0
    0.6388    1.5918   -0.5658 H   0  0  0  0  0  0  0  0  0  0  0  0
   -0.3770    0.5812   -2.1793 C   0  0  0  0  0  0  0  0  0  0  0  0
    0.4875   -0.0265   -2.4573 H   0  0  0  0  0  0  0  0  0  0  0  0
   -1.2730   -0.0341   -2.2958 H   0  0  0  0  0  0  0  0  0  0  0  0
   -0.4609    1.7834   -3.1314 C   0  0  0  0  0  0  0  0  0  0  0  0
   -0.5588    2.9283   -2.6353 O   0  5  0  0  0  0  0  0  0  0  0  0
   -0.4002    1.5345   -4.3560 O   0  0  0  0  0  0  0  0  0  0  0  0
    0.1881    0.1678    1.7015 C   0  0  0  0  0  0  0  0  0  0  0  0
    0.6146   -0.6779    2.4905 O   0  0  0  0  0  0  0  0  0  0  0  0
    0.0614    1.4567    2.0431 N   0  0  0  0  0  0  0  0  0  0  0  0
   -0.3453    2.0809    1.3623 H   0  0  0  0  0  0  0  0  0  0  0  0
    0.3637    1.9869    3.3701 C   0  0  0  0  0  0  0  0  0  0  0  0
    1.3622    1.6690    3.6749 H   0  0  0  0  0  0  0  0  0  0  0  0
    0.3155    3.0767    3.3589 H   0  0  0  0  0  0  0  0  0  0  0  0
   -0.3614    1.6000    4.0886 H   0  0  0  0  0  0  0  0  0  0  0  0
  5  6  2  0  0  0  0
  5  7  1  0  0  0  0
  2  3  1  0  0  0  0
  2  4  1  0  0  0  0
  2  5  1  0  0  0  0
  1  2  1  0  0  0  0
 20 21  2  0  0  0  0
 20 22  1  0  0  0  0
 17 18  1  0  0  0  0
 17 19  2  0  0  0  0
 14 15  1  0  0  0  0
 14 16  1  0  0  0  0
 14 17  1  0  0  0  0
 11 12  1  0  0  0  0
 11 13  1  0  0  0  0
 11 14  1  0  0  0  0
  9 10  1  0  0  0  0
  9 11  1  0  0  0  0
  9 20  1  0  0  0  0
  7  8  1  0  0  0  0
  7  9  1  0  0  0  0
 24 25  1  0  0  0  0
 24 26  1  0  0  0  0
 24 27  1  0  0  0  0
 22 23  1  0  0  0  0
 22 24  1  0  0  0  0
M  CHG  1  18  -1
M  END
$$$$
default_name
  -OEChem-01062215323D

 27 26  0     1  0  0  0  0  0999 V2000
   -3.2406   -3.5400    1.2326 H   0  0  0  0  0  0  0  0  0  0  0  0
   -3.1436   -2.6190    0.6606 C   0  0  0  0  0  0  0  0  0  0  0  0
   -3.8786   -1.8920    0.9996 H   0  0  0  0  0  0  0  0  0  0  0  0
   -3.2846   -2.8280   -0.3984 H   0  0  0  0  0  0  0  0  0  0  0  0
   -1.7586   -2.0580    0.8686 C   0  0  0  0  0  0  0  0  0  0  0  0
   -0.9666   -2.6340    1.6026 O   0  0  0  0  0  0  0  0  0  0  0  0
   -1.4866   -0.9220    0.2366 N   0  0  0  0  0  0  0  0  0  0  0  0
   -2.2166   -0.4790   -0.2994 H   0  0  0  0  0  0  0  0  0  0  0  0
   -0.1956   -0.2250    0.2596 C   0  0  1  0  0  0  0  0  0  0  0  0
    0.5755   -0.9013   -0.1105 H   0  0  0  0  0  0  0  0  0  0  0  0
   -0.2553    0.9811   -0.6992 C   0  0  0  0  0  0  0  0  0  0  0  0
   -1.1259    1.5814   -0.4304 H   0  0  0  0  0  0  0  0  0  0  0  0
    0.6388    1.5918   -0.5658 H   0  0  0  0  0  0  0  0  0  0  0  0
   -0.3770    0.5812   -2.1793 C   0  0  0  0  0  0  0  0  0  0  0  0
    0.4875   -0.0265   -2.4573 H   0  0  0  0  0  0  0  0  0  0  0  0
   -1.2730   -0.0341   -2.2958 H   0  0  0  0  0  0  0  0  0  0  0  0
   -0.4609    1.7834   -3.1314 C   0  0  0  0  0  0  0  0  0  0  0  0
   -0.5588    2.9283   -2.6353 O   0  5  0  0  0  0  0  0  0  0  0  0
   -0.4002    1.5345   -4.3560 O   0  0  0  0  0  0  0  0  0  0  0  0
    0.1881    0.1678    1.7015 C   0  0  0  0  0  0  0  0  0  0  0  0
    0.8620   -0.5913    2.4011 O   0  0  0  0  0  0  0  0  0  0  0  0
   -0.2184    1.3655    2.1424 N   0  0  0  0  0  0  0  0  0  0  0  0
   -0.8119    1.9089    1.5333 H   0  0  0  0  0  0  0  0  0  0  0  0
    0.0452    1.8779    3.4845 C   0  0  0  0  0  0  0  0  0  0  0  0
    1.1105    1.7967    3.7071 H   0  0  0  0  0  0  0  0  0  0  0  0
   -0.2635    2.9219    3.5551 H   0  0  0  0  0  0  0  0  0  0  0  0
   -0.5110    1.2860    4.2140 H   0  0  0  0  0  0  0  0  0  0  0  0
  5  6  2  0  0  0  0
  5  7  1  0  0  0  0
  2  3  1  0  0  0  0
  2  4  1  0  0  0  0
  2  5  1  0  0  0  0
  1  2  1  0  0  0  0
 20 21  2  0  0  0  0
 20 22  1  0  0  0  0
 17 18  1  0  0  0  0
 17 19  2  0  0  0  0
 14 15  1  0  0  0  0
 14 16  1  0  0  0  0
 14 17  1  0  0  0  0
 11 12  1  0  0  0  0
 11 13  1  0  0  0  0
 11 14  1  0  0  0  0
  9 10  1  0  0  0  0
  9 11  1  0  0  0  0
  9 20  1  0  0  0  0
  7  8  1  0  0  0  0
  7  9  1  0  0  0  0
 24 25  1  0  0  0  0
 24 26  1  0  0  0  0
 24 27  1  0  0  0  0
 22 23  1  0  0  0  0
 22 24  1  0  0  0  0
M  CHG  1  18  -1
M  END
$$$$
default_name
  -OEChem-01062215323D

 27 26  0     1  0  0  0  0  0999 V2000
   -3.2406   -3.5400    1.2326 H   0  0  0  0  0  0  0  0  0  0  0  0
   -3.1436   -2.6190    0.6606 C   0  0  0  0  0  0  0  0  0  0  0  0
   -3.8786   -1.8920    0.9996 H   0  0  0  0  0  0  0  0  0  0  0  0
   -3.2846   -2.8280   -0.3984 H   0  0  0  0  0  0  0  0  0  0  0  0
   -1.7586   -2.0580    0.8686 C   0  0  0  0  0  0  0  0  0  0  0  0
   -0.9666   -2.6340    1.6026 O   0  0  0  0  0  0  0  0  0  0  0  0
   -1.4866   -0.9220    0.2366 N   0  0  0  0  0  0  0  0  0  0  0  0
   -2.2166   -0.4790   -0.2994 H   0  0  0  0  0  0  0  0  0  0  0  0
   -0.1956   -0.2250    0.2596 C   0  0  1  0  0  0  0  0  0  0  0  0
    0.5755   -0.9013   -0.1105 H   0  0  0  0  0  0  0  0  0  0  0  0
   -0.2553    0.9811   -0.6992 C   0  0  0  0  0  0  0  0  0  0  0  0
   -1.1259    1.5814   -0.4304 H   0  0  0  0  0  0  0  0  0  0  0  0
    0.6388    1.5918   -0.5658 H   0  0  0  0  0  0  0  0  0  0  0  0
   -0.3770    0.5812   -2.1793 C   0  0  0  0  0  0  0  0  0  0  0  0
    0.4875   -0.0265   -2.4573 H   0  0  0  0  0  0  0  0  0  0  0  0
   -1.2730   -0.0341   -2.2958 H   0  0  0  0  0  0  0  0  0  0  0  0
   -0.4609    1.7834   -3.1314 C   0  0  0  0  0  0  0  0  0  0  0  0
   -0.5588    2.9283   -2.6353 O   0  5  0  0  0  0  0  0  0  0  0  0
   -0.4002    1.5345   -4.3560 O   0  0  0  0  0  0  0  0  0  0  0  0
    0.1881    0.1678    1.7015 C   0  0  0  0  0  0  0  0  0  0  0  0
    1.0740   -0.4420    2.3040 O   0  0  0  0  0  0  0  0  0  0  0  0
   -0.4599    1.2033    2.2508 N   0  0  0  0  0  0  0  0  0  0  0  0
   -1.2097    1.6189    1.7182 H   0  0  0  0  0  0  0  0  0  0  0  0
   -0.2286    1.6883    3.6090 C   0  0  0  0  0  0  0  0  0  0  0  0
    0.8385    1.8571    3.7630 H   0  0  0  0  0  0  0  0  0  0  0  0
   -0.7725    2.6196    3.7729 H   0  0  0  0  0  0  0  0  0  0  0  0
   -0.5712    0.9384    4.3247 H   0  0  0  0  0  0  0  0  0  0  0  0
  5  6  2  0  0  0  0
  5  7  1  0  0  0  0
  2  3  1  0  0  0  0
  2  4  1  0  0  0  0
  2  5  1  0  0  0  0
  1  2  1  0  0  0  0
 20 21  2  0  0  0  0
 20 22  1  0  0  0  0
 17 18  1  0  0  0  0
 17 19  2  0  0  0  0
 14 15  1  0  0  0  0
 14 16  1  0  0  0  0
 14 17  1  0  0  0  0
 11 12  1  0  0  0  0
 11 13  1  0  0  0  0
 11 14  1  0  0  0  0
  9 10  1  0  0  0  0
  9 11  1  0  0  0  0
  9 20  1  0  0  0  0
  7  8  1  0  0  0  0
  7  9  1  0  0  0  0
 24 25  1  0  0  0  0
 24 26  1  0  0  0  0
 24 27  1  0  0  0  0
 22 23  1  0  0  0  0
 22 24  1  0  0  0  0
M  CHG  1  18  -1
M  END
$$$$
default_name
  -OEChem-01062215323D

 27 26  0     1  0  0  0  0  0999 V2000
   -3.2406   -3.5400    1.2326 H   0  0  0  0  0  0  0  0  0  0  0  0
   -3.1436   -2.6190    0.6606 C   0  0  0  0  0  0  0  0  0  0  0  0
   -3.8786   -1.8920    0.9996 H   0  0  0  0  0  0  0  0  0  0  0  0
   -3.2846   -2.8280   -0.3984 H   0  0  0  0  0  0  0  0  0  0  0  0
   -1.7586   -2.0580    0.8686 C   0  0  0  0  0  0  0  0  0  0  0  0
   -0.9666   -2.6340    1.6026 O   0  0  0  0  0  0  0  0  0  0  0  0
   -1.4866   -0.9220    0.2366 N   0  0  0  0  0  0  0  0  0  0  0  0
   -2.2166   -0.4790   -0.2994 H   0  0  0  0  0  0  0  0  0  0  0  0
   -0.1956   -0.2250    0.2596 C   0  0  1  0  0  0  0  0  0  0  0  0
    0.5755   -0.9013   -0.1105 H   0  0  0  0  0  0  0  0  0  0  0  0
   -0.2553    0.9811   -0.6992 C   0  0  0  0  0  0  0  0  0  0  0  0
   -1.1259    1.5814   -0.4304 H   0  0  0  0  0  0  0  0  0  0  0  0
    0.6388    1.5918   -0.5658 H   0  0  0  0  0  0  0  0  0  0  0  0
   -0.3770    0.5812   -2.1793 C   0  0  0  0  0  0  0  0  0  0  0  0
    0.4875   -0.0265   -2.4573 H   0  0  0  0  0  0  0  0  0  0  0  0
   -1.2730   -0.0341   -2.2958 H   0  0  0  0  0  0  0  0  0  0  0  0
   -0.4609    1.7834   -3.1314 C   0  0  0  0  0  0  0  0  0  0  0  0
   -0.5588    2.9283   -2.6353 O   0  5  0  0  0  0  0  0  0  0  0  0
   -0.4002    1.5345   -4.3560 O   0  0  0  0  0  0  0  0  0  0  0  0
    0.1881    0.1678    1.7015 C   0  0  0  0  0  0  0  0  0  0  0  0
    1.2363   -0.2402    2.2058 O   0  0  0  0  0  0  0  0  0  0  0  0
   -0.6469    0.9813    2.3610 N   0  0  0  0  0  0  0  0  0  0  0  0
   -1.5116    1.2306    1.9043 H   0  0  0  0  0  0  0  0  0  0  0  0
   -0.4390    1.4309    3.7351 C   0  0  0  0  0  0  0  0  0  0  0  0
    0.5649    1.8461    3.8388 H   0  0  0  0  0  0  0  0  0  0  0  0
   -1.1766    2.1906    3.9973 H   0  0  0  0  0  0  0  0  0  0  0  0
   -0.5381    0.5810    4.4132 H   0  0  0  0  0  0  0  0  0  0  0  0
  5  6  2  0  0  0  0
  5  7  1  0  0  0  0
  2  3  1  0  0  0  0
  2  4  1  0  0  0  0
  2  5  1  0  0  0  0
  1  2  1  0  0  0  0
 20 21  2  0  0  0  0
 20 22  1  0  0  0  0
 17 18  1  0  0  0  0
 17 19  2  0  0  0  0
 14 15  1  0  0  0  0
 14 16  1  0  0  0  0
 14 17  1  0  0  0  0
 11 12  1  0  0  0  0
 11 13  1  0  0  0  0
 11 14  1  0  0  0  0
  9 10  1  0  0  0  0
  9 11  1  0  0  0  0
  9 20  1  0  0  0  0
  7  8  1  0  0  0  0
  7  9  1  0  0  0  0
 24 25  1  0  0  0  0
 24 26  1  0  0  0  0
 24 27  1  0  0  0  0
 22 23  1  0  0  0  0
 22 24  1  0  0  0  0
M  CHG  1  18  -1
M  END
$$$$
default_name
  -OEChem-01062215323D

 27 26  0     1  0  0  0  0  0999 V2000
   -3.2406   -3.5400    1.2326 H   0  0  0  0  0  0  0  0  0  0  0  0
   -3.1436   -2.6190    0.6606 C   0  0  0  0  0  0  0  0  0  0  0  0
   -3.8786   -1.8920    0.9996 H   0  0  0  0  0  0  0  0  0  0  0  0
   -3.2846   -2.8280   -0.3984 H   0  0  0  0  0  0  0  0  0  0  0  0
   -1.7586   -2.0580    0.8686 C   0  0  0  0  0  0  0  0  0  0  0  0
   -0.9666   -2.6340    1.6026 O   0  0  0  0  0  0  0  0  0  0  0  0
   -1.4866   -0.9220    0.2366 N   0  0  0  0  0  0  0  0  0  0  0  0
   -2.2166   -0.4790   -0.2994 H   0  0  0  0  0  0  0  0  0  0  0  0
   -0.1956   -0.2250    0.2596 C   0  0  1  0  0  0  0  0  0  0  0  0
    0.5755   -0.9013   -0.1105 H   0  0  0  0  0  0  0  0  0  0  0  0
   -0.2553    0.9811   -0.6992 C   0  0  0  0  0  0  0  0  0  0  0  0
   -1.1259    1.5814   -0.4304 H   0  0  0  0  0  0  0  0  0  0  0  0
    0.6388    1.5918   -0.5658 H   0  0  0  0  0  0  0  0  0  0  0  0
   -0.3770    0.5812   -2.1793 C   0  0  0  0  0  0  0  0  0  0  0  0
    0.4875   -0.0265   -2.4573 H   0  0  0  0  0  0  0  0  0  0  0  0
   -1.2730   -0.0341   -2.2958 H   0  0  0  0  0  0  0  0  0  0  0  0
   -0.4609    1.7834   -3.1314 C   0  0  0  0  0  0  0  0  0  0  0  0
   -0.5588    2.9283   -2.6353 O   0  5  0  0  0  0  0  0  0  0  0  0
   -0.4002    1.5345   -4.3560 O   0  0  0  0  0  0  0  0  0  0  0  0
    0.1881    0.1678    1.7015 C   0  0  0  0  0  0  0  0  0  0  0  0
    1.3379    0.0002    2.1133 O   0  0  0  0  0  0  0  0  0  0  0  0
   -0.7665    0.7145    2.4656 N   0  0  0  0  0  0  0  0  0  0  0  0
   -1.6971    0.7705    2.0790 H   0  0  0  0  0  0  0  0  0  0  0  0
   -0.5716    1.1232    3.8542 C   0  0  0  0  0  0  0  0  0  0  0  0
    0.3083    1.7643    3.9293 H   0  0  0  0  0  0  0  0  0  0  0  0
   -1.4485    1.6640    4.2131 H   0  0  0  0  0  0  0  0  0  0  0  0
   -0.4137    0.2381    4.4736 H   0  0  0  0  0  0  0  0  0  0  0  0
  5  6  2  0  0  0  0
  5  7  1  0  0  0  0
  2  3  1  0  0  0  0
  2  4  1  0  0  0  0
  2  5  1  0  0  0  0
  1  2  1  0  0  0  0
 20 21  2  0  0  0  0
 20 22  1  0  0  0  0
 17 18  1  0  0  0  0
 17 19  2  0  0  0  0
 14 15  1  0  0  0  0
 14 16  1  0  0  0  0
 14 17  1  0  0  0  0
 11 12  1  0  0  0  0
 11 13  1  0  0  0  0
 11 14  1  0  0  0  0
  9 10  1  0  0  0  0
  9 11  1  0  0  0  0
  9 20  1  0  0  0  0
  7  8  1  0  0  0  0
  7  9  1  0  0  0  0
 24 25  1  0  0  0  0
 24 26  1  0  0  0  0
 24 27  1  0  0  0  0
 22 23  1  0  0  0  0
 22 24  1  0  0  0  0
M  CHG  1  18  -1
M  END
$$$$
default_name
  -OEChem-01062215323D

 27 26  0     1  0  0  0  0  0999 V2000
   -3.2406   -3.5400    1.2326 H   0  0  0  0  0  0  0  0  0  0  0  0
   -3.1436   -2.6190    0.6606 C   0  0  0  0  0  0  0  0  0  0  0  0
   -3.8786   -1.8920    0.9996 H   0  0  0  0  0  0  0  0  0  0  0  0
   -3.2846   -2.8280   -0.3984 H   0  0  0  0  0  0  0  0  0  0  0  0
   -1.7586   -2.0580    0.8686 C   0  0  0  0  0  0  0  0  0  0  0  0
   -0.9666   -2.6340    1.6026 O   0  0  0  0  0  0  0  0  0  0  0  0
   -1.4866   -0.9220    0.2366 N   0  0  0  0  0  0  0  0  0  0  0  0
   -2.2166   -0.4790   -0.2994 H   0  0  0  0  0  0  0  0  0  0  0  0
   -0.1956   -0.2250    0.2596 C   0  0  1  0  0  0  0  0  0  0  0  0
    0.5755   -0.9013   -0.1105 H   0  0  0  0  0  0  0  0  0  0  0  0
   -0.2553    0.9811   -0.6992 C   0  0  0  0  0  0  0  0  0  0  0  0
   -1.1259    1.5814   -0.4304 H   0  0  0  0  0  0  0  0  0  0  0  0
    0.6388    1.5918   -0.5658 H   0  0  0  0  0  0  0  0  0  0  0  0
   -0.3770    0.5812   -2.1793 C   0  0  0  0  0  0  0  0  0  0  0  0
    0.4875   -0.0265   -2.4573 H   0  0  0  0  0  0  0  0  0  0  0  0
   -1.2730   -0.0341   -2.2958 H   0  0  0  0  0  0  0  0  0  0  0  0
   -0.4609    1.7834   -3.1314 C   0  0  0  0  0  0  0  0  0  0  0  0
   -0.5588    2.9283   -2.6353 O   0  5  0  0  0  0  0  0  0  0  0  0
   -0.4002    1.5345   -4.3560 O   0  0  0  0  0  0  0  0  0  0  0  0
    0.1881    0.1678    1.7015 C   0  0  0  0  0  0  0  0  0  0  0  0
    1.3717    0.2630    2.0327 O   0  0  0  0  0  0  0  0  0  0  0  0
   -0.8107    0.4212    2.5572 N   0  0  0  0  0  0  0  0  0  0  0  0
   -1.7535    0.2701    2.2303 H   0  0  0  0  0  0  0  0  0  0  0  0
   -0.6174    0.7863    3.9582 C   0  0  0  0  0  0  0  0  0  0  0  0
    0.0862    1.6175    4.0284 H   0  0  0  0  0  0  0  0  0  0  0  0
   -1.5694    1.0756    4.4056 H   0  0  0  0  0  0  0  0  0  0  0  0
   -0.2067   -0.0669    4.5016 H   0  0  0  0  0  0  0  0  0  0  0  0
  5  6  2  0  0  0  0
  5  7  1  0  0  0  0
  2  3  1  0  0  0  0
  2  4  1  0  0  0  0
  2  5  1  0  0  0  0
  1  2  1  0  0  0  0
 20 21  2  0  0  0  0
 20 22  1  0  0  0  0
 17 18  1  0  0  0  0
 17 19  2  0  0  0  0
 14 15  1  0  0  0  0
 14 16  1  0  0  0  0
 14 17  1  0  0  0  0
 11 12  1  0  0  0  0
 11 13  1  0  0  0  0
 11 14  1  0  0  0  0
  9 10  1  0  0  0  0
  9 11  1  0  0  0  0
  9 20  1  0  0  0  0
  7  8  1  0  0  0  0
  7  9  1  0  0  0  0
 24 25  1  0  0  0  0
 24 26  1  0  0  0  0
 24 27  1  0  0  0  0
 22 23  1  0  0  0  0
 22 24  1  0  0  0  0
M  CHG  1  18  -1
M  END
$$$$
default_name
  -OEChem-01062215323D

 27 26  0     1  0  0  0  0  0999 V2000
   -3.2406   -3.5400    1.2326 H   0  0  0  0  0  0  0  0  0  0  0  0
   -3.1436   -2.6190    0.6606 C   0  0  0  0  0  0  0  0  0  0  0  0
   -3.8786   -1.8920    0.9996 H   0  0  0  0  0  0  0  0  0  0  0  0
   -3.2846   -2.8280   -0.3984 H   0  0  0  0  0  0  0  0  0  0  0  0
   -1.7586   -2.0580    0.8686 C   0  0  0  0  0  0  0  0  0  0  0  0
   -0.9666   -2.6340    1.6026 O   0  0  0  0  0  0  0  0  0  0  0  0
   -1.4866   -0.9220    0.2366 N   0  0  0  0  0  0  0  0  0  0  0  0
   -2.2166   -0.4790   -0.2994 H   0  0  0  0  0  0  0  0  0  0  0  0
   -0.1956   -0.2250    0.2596 C   0  0  1  0  0  0  0  0  0  0  0  0
    0.5755   -0.9013   -0.1105 H   0  0  0  0  0  0  0  0  0  0  0  0
   -0.2553    0.9811   -0.6992 C   0  0  0  0  0  0  0  0  0  0  0  0
   -1.1259    1.5814   -0.4304 H   0  0  0  0  0  0  0  0  0  0  0  0
    0.6388    1.5918   -0.5658 H   0  0  0  0  0  0  0  0  0  0  0  0
   -0.3770    0.5812   -2.1793 C   0  0  0  0  0  0  0  0  0  0  0  0
    0.4875   -0.0265   -2.4573 H   0  0  0  0  0  0  0  0  0  0  0  0
   -1.2730   -0.0341   -2.2958 H   0  0  0  0  0  0  0  0  0  0  0  0
   -0.4609    1.7834   -3.1314 C   0  0  0  0  0  0  0  0  0  0  0  0
   -0.5588    2.9283   -2.6353 O   0  5  0  0  0  0  0  0  0  0  0  0
   -0.4002    1.5345   -4.3560 O   0  0  0  0  0  0  0  0  0  0  0  0
    0.1881    0.1678    1.7015 C   0  0  0  0  0  0  0  0  0  0  0  0
    1.3355    0.5301    1.9696 O   0  0  0  0  0  0  0  0  0  0  0  0
   -0.7763    0.1212    2.6298 N   0  0  0  0  0  0  0  0  0  0  0  0
   -1.6769   -0.2367    2.3480 H   0  0  0  0  0  0  0  0  0  0  0  0
   -0.5734    0.4431    4.0400 C   0  0  0  0  0  0  0  0  0  0  0  0
   -0.0863    1.4156    4.1293 H   0  0  0  0  0  0  0  0  0  0  0  0
   -1.5313    0.4657    4.5616 H   0  0  0  0  0  0  0  0  0  0  0  0
    0.0688   -0.3133    4.4954 H   0  0  0  0  0  0  0  0  0  0  0  0
  5  6  2  0  0  0  0
  5  7  1  0  0  0  0
  2  3  1  0  0  0  0
  2  4  1  0  0  0  0
  2  5  1  0  0  0  0
  1  2  1  0  0  0  0
 20 21  2  0  0  0  0
 20 22  1  0  0  0  0
 17 18  1  0  0  0  0
 17 19  2  0  0  0  0
 14 15  1  0  0  0  0
 14 16  1  0  0  0  0
 14 17  1  0  0  0  0
 11 12  1  0  0  0  0
 11 13  1  0  0  0  0
 11 14  1  0  0  0  0
  9 10  1  0  0  0  0
  9 11  1  0  0  0  0
  9 20  1  0  0  0  0
  7  8  1  0  0  0  0
  7  9  1  0  0  0  0
 24 25  1  0  0  0  0
 24 26  1  0  0  0  0
 24 27  1  0  0  0  0
 22 23  1  0  0  0  0
 22 24  1  0  0  0  0
M  CHG  1  18  -1
M  END
$$$$
default_name
  -OEChem-01062215323D

 27 26  0     1  0  0  0  0  0999 V2000
   -3.2406   -3.5400    1.2326 H   0  0  0  0  0  0  0  0  0  0  0  0
   -3.1436   -2.6190    0.6606 C   0  0  0  0  0  0  0  0  0  0  0  0
   -3.8786   -1.8920    0.9996 H   0  0  0  0  0  0  0  0  0  0  0  0
   -3.2846   -2.8280   -0.3984 H   0  0  0  0  0  0  0  0  0  0  0  0
   -1.7586   -2.0580    0.8686 C   0  0  0  0  0  0  0  0  0  0  0  0
   -0.9666   -2.6340    1.6026 O   0  0  0  0  0  0  0  0  0  0  0  0
   -1.4866   -0.9220    0.2366 N   0  0  0  0  0  0  0  0  0  0  0  0
   -2.2166   -0.4790   -0.2994 H   0  0  0  0  0  0  0  0  0  0  0  0
   -0.1956   -0.2250    0.2596 C   0  0  1  0  0  0  0  0  0  0  0  0
    0.5755   -0.9013   -0.1105 H   0  0  0  0  0  0  0  0  0  0  0  0
   -0.2553    0.9811   -0.6992 C   0  0  0  0  0  0  0  0  0  0  0  0
   -1.1259    1.5814   -0.4304 H   0  0  0  0  0  0  0  0  0  0  0  0
    0.6388    1.5918   -0.5658 H   0  0  0  0  0  0  0  0  0  0  0  0
   -0.3770    0.5812   -2.1793 C   0  0  0  0  0  0  0  0  0  0  0  0
    0.4875   -0.0265   -2.4573 H   0  0  0  0  0  0  0  0  0  0  0  0
   -1.2730   -0.0341   -2.2958 H   0  0  0  0  0  0  0  0  0  0  0  0
   -0.4609    1.7834   -3.1314 C   0  0  0  0  0  0  0  0  0  0  0  0
   -0.5588    2.9283   -2.6353 O   0  5  0  0  0  0  0  0  0  0  0  0
   -0.4002    1.5345   -4.3560 O   0  0  0  0  0  0  0  0  0  0  0  0
    0.1881    0.1678    1.7015 C   0  0  0  0  0  0  0  0  0  0  0  0
    1.2317    0.7835    1.9282 O   0  0  0  0  0  0  0  0  0  0  0  0
   -0.6658   -0.1649    2.6783 N   0  0  0  0  0  0  0  0  0  0  0  0
   -1.4726   -0.7153    2.4241 H   0  0  0  0  0  0  0  0  0  0  0  0
   -0.4424    0.1170    4.0940 C   0  0  0  0  0  0  0  0  0  0  0  0
   -0.1974    1.1723    4.2252 H   0  0  0  0  0  0  0  0  0  0  0  0
   -1.3366   -0.1242    4.6705 H   0  0  0  0  0  0  0  0  0  0  0  0
    0.3942   -0.4842    4.4554 H   0  0  0  0  0  0  0  0  0  0  0  0
  5  6  2  0  0  0  0
  5  7  1  0  0  0  0
  2  3  1  0  0  0  0
  2  4  1  0  0  0  0
  2  5  1  0  0  0  0
  1  2  1  0  0  0  0
 20 21  2  0  0  0  0
 20 22  1  0  0  0  0
 17 18  1  0  0  0  0
 17 19  2  0  0  0  0
 14 15  1  0  0  0  0
 14 16  1  0  0  0  0
 14 17  1  0  0  0  0
 11 12  1  0  0  0  0
 11 13  1  0  0  0  0
 11 14  1  0  0  0  0
  9 10  1  0  0  0  0
  9 11  1  0  0  0  0
  9 20  1  0  0  0  0
  7  8  1  0  0  0  0
  7  9  1  0  0  0  0
 24 25  1  0  0  0  0
 24 26  1  0  0  0  0
 24 27  1  0  0  0  0
 22 23  1  0  0  0  0
 22 24  1  0  0  0  0
M  CHG  1  18  -1
M  END
$$$$
default_name
  -OEChem-01062215323D

 27 26  0     1  0  0  0  0  0999 V2000
   -3.2406   -3.5400    1.2326 H   0  0  0  0  0  0  0  0  0  0  0  0
   -3.1436   -2.6190    0.6606 C   0  0  0  0  0  0  0  0  0  0  0  0
   -3.8786   -1.8920    0.9996 H   0  0  0  0  0  0  0  0  0  0  0  0
   -3.2846   -2.8280   -0.3984 H   0  0  0  0  0  0  0  0  0  0  0  0
   -1.7586   -2.0580    0.8686 C   0  0  0  0  0  0  0  0  0  0  0  0
   -0.9666   -2.6340    1.6026 O   0  0  0  0  0  0  0  0  0  0  0  0
   -1.4866   -0.9220    0.2366 N   0  0  0  0  0  0  0  0  0  0  0  0
   -2.2166   -0.4790   -0.2994 H   0  0  0  0  0  0  0  0  0  0  0  0
   -0.1956   -0.2250    0.2596 C   0  0  1  0  0  0  0  0  0  0  0  0
    0.5755   -0.9013   -0.1105 H   0  0  0  0  0  0  0  0  0  0  0  0
   -0.2553    0.9811   -0.6992 C   0  0  0  0  0  0  0  0  0  0  0  0
   -1.1259    1.5814   -0.4304 H   0  0  0  0  0  0  0  0  0  0  0  0
    0.6388    1.5918   -0.5658 H   0  0  0  0  0  0  0  0  0  0  0  0
   -0.3770    0.5812   -2.1793 C   0  0  0  0  0  0  0  0  0  0  0  0
    0.4875   -0.0265   -2.4573 H   0  0  0  0  0  0  0  0  0  0  0  0
   -1.2730   -0.0341   -2.2958 H   0  0  0  0  0  0  0  0  0  0  0  0
   -0.4609    1.7834   -3.1314 C   0  0  0  0  0  0  0  0  0  0  0  0
   -0.5588    2.9283   -2.6353 O   0  5  0  0  0  0  0  0  0  0  0  0
   -0.4002    1.5345   -4.3560 O   0  0  0  0  0  0  0  0  0  0  0  0
    0.1881    0.1678    1.7015 C   0  0  0  0  0  0  0  0  0  0  0  0
    1.0675    1.0058    1.9113 O   0  0  0  0  0  0  0  0  0  0  0  0
   -0.4867   -0.4176    2.6995 N   0  0  0  0  0  0  0  0  0  0  0  0
   -1.1544   -1.1331    2.4532 H   0  0  0  0  0  0  0  0  0  0  0  0
   -0.2335   -0.1699    4.1165 C   0  0  0  0  0  0  0  0  0  0  0  0
   -0.2396    0.9043    4.3094 H   0  0  0  0  0  0  0  0  0  0  0  0
   -0.9987   -0.6540    4.7249 H   0  0  0  0  0  0  0  0  0  0  0  0
    0.7472   -0.5680    4.3843 H   0  0  0  0  0  0  0  0  0  0  0  0
  5  6  2  0  0  0  0
  5  7  1  0  0  0  0
  2  3  1  0  0  0  0
  2  4  1  0  0  0  0
  2  5  1  0  0  0  0
  1  2  1  0  0  0  0
 20 21  2  0  0  0  0
 20 22  1  0  0  0  0
 17 18  1  0  0  0  0
 17 19  2  0  0  0  0
 14 15  1  0  0  0  0
 14 16  1  0  0  0  0
 14 17  1  0  0  0  0
 11 12  1  0  0  0  0
 11 13  1  0  0  0  0
 11 14  1  0  0  0  0
  9 10  1  0  0  0  0
  9 11  1  0  0  0  0
  9 20  1  0  0  0  0
  7  8  1  0  0  0  0
  7  9  1  0  0  0  0
 24 25  1  0  0  0  0
 24 26  1  0  0  0  0
 24 27  1  0  0  0  0
 22 23  1  0  0  0  0
 22 24  1  0  0  0  0
M  CHG  1  18  -1
M  END
$$$$
default_name
  -OEChem-01062215323D

 27 26  0     1  0  0  0  0  0999 V2000
   -3.2406   -3.5400    1.2326 H   0  0  0  0  0  0  0  0  0  0  0  0
   -3.1436   -2.6190    0.6606 C   0  0  0  0  0  0  0  0  0  0  0  0
   -3.8786   -1.8920    0.9996 H   0  0  0  0  0  0  0  0  0  0  0  0
   -3.2846   -2.8280   -0.3984 H   0  0  0  0  0  0  0  0  0  0  0  0
   -1.7586   -2.0580    0.8686 C   0  0  0  0  0  0  0  0  0  0  0  0
   -0.9666   -2.6340    1.6026 O   0  0  0  0  0  0  0  0  0  0  0  0
   -1.4866   -0.9220    0.2366 N   0  0  0  0  0  0  0  0  0  0  0  0
   -2.2166   -0.4790   -0.2994 H   0  0  0  0  0  0  0  0  0  0  0  0
   -0.1956   -0.2250    0.2596 C   0  0  1  0  0  0  0  0  0  0  0  0
    0.5755   -0.9013   -0.1105 H   0  0  0  0  0  0  0  0  0  0  0  0
   -0.2553    0.9811   -0.6992 C   0  0  0  0  0  0  0  0  0  0  0  0
   -1.1259    1.5814   -0.4304 H   0  0  0  0  0  0  0  0  0  0  0  0
    0.6388    1.5918   -0.5658 H   0  0  0  0  0  0  0  0  0  0  0  0
   -0.3770    0.5812   -2.1793 C   0  0  0  0  0  0  0  0  0  0  0  0
    0.4875   -0.0265   -2.4573 H   0  0  0  0  0  0  0  0  0  0  0  0
   -1.2730   -0.0341   -2.2958 H   0  0  0  0  0  0  0  0  0  0  0  0
   -0.4609    1.7834   -3.1314 C   0  0  0  0  0  0  0  0  0  0  0  0
   -0.5588    2.9283   -2.6353 O   0  5  0  0  0  0  0  0  0  0  0  0
   -0.4002    1.5345   -4.3560 O   0  0  0  0  0  0  0  0  0  0  0  0
    0.1881    0.1678    1.7015 C   0  0  0  0  0  0  0  0  0  0  0  0
    0.8540    1.1819    1.9201 O   0  0  0  0  0  0  0  0  0  0  0  0
   -0.2511   -0.6197    2.6919 N   0  0  0  0  0  0  0  0  0  0  0  0
   -0.7442   -1.4615    2.4336 H   0  0  0  0  0  0  0  0  0  0  0  0
    0.0392   -0.3978    4.1061 C   0  0  0  0  0  0  0  0  0  0  0  0
   -0.2100    0.6297    4.3763 H   0  0  0  0  0  0  0  0  0  0  0  0
   -0.5406   -1.0875    4.7211 H   0  0  0  0  0  0  0  0  0  0  0  0
    1.1037   -0.5591    4.2870 H   0  0  0  0  0  0  0  0  0  0  0  0
  5  6  2  0  0  0  0
  5  7  1  0  0  0  0
  2  3  1  0  0  0  0
  2  4  1  0  0  0  0
  2  5  1  0  0  0  0
  1  2  1  0  0  0  0
 20 21  2  0  0  0  0
 20 22  1  0  0  0  0
 17 18  1  0  0  0  0
 17 19  2  0  0  0  0
 14 15  1  0  0  0  0
 14 16  1  0  0  0  0
 14 17  1  0  0  0  0
 11 12  1  0  0  0  0
 11 13  1  0  0  0  0
 11 14  1  0  0  0  0
  9 10  1  0  0  0  0
  9 11  1  0  0  0  0
  9 20  1  0  0  0  0
  7  8  1  0  0  0  0
  7  9  1  0  0  0  0
 24 25  1  0  0  0  0
 24 26  1  0  0  0  0
 24 27  1  0  0  0  0
 22 23  1  0  0  0  0
 22 24  1  0  0  0  0
M  CHG  1  18  -1
M  END
$$$$
default_name
  -OEChem-01062215323D

 27 26  0     1  0  0  0  0  0999 V2000
   -3.2406   -3.5400    1.2326 H   0  0  0  0  0  0  0  0  0  0  0  0
   -3.1436   -2.6190    0.6606 C   0  0  0  0  0  0  0  0  0  0  0  0
   -3.8786   -1.8920    0.9996 H   0  0  0  0  0  0  0  0  0  0  0  0
   -3.2846   -2.8280   -0.3984 H   0  0  0  0  0  0  0  0  0  0  0  0
   -1.7586   -2.0580    0.8686 C   0  0  0  0  0  0  0  0  0  0  0  0
   -0.9666   -2.6340    1.6026 O   0  0  0  0  0  0  0  0  0  0  0  0
   -1.4866   -0.9220    0.2366 N   0  0  0  0  0  0  0  0  0  0  0  0
   -2.2166   -0.4790   -0.2994 H   0  0  0  0  0  0  0  0  0  0  0  0
   -0.1956   -0.2250    0.2596 C   0  0  1  0  0  0  0  0  0  0  0  0
    0.5755   -0.9013   -0.1105 H   0  0  0  0  0  0  0  0  0  0  0  0
   -0.2553    0.9811   -0.6992 C   0  0  0  0  0  0  0  0  0  0  0  0
   -1.1259    1.5814   -0.4304 H   0  0  0  0  0  0  0  0  0  0  0  0
    0.6388    1.5918   -0.5658 H   0  0  0  0  0  0  0  0  0  0  0  0
   -0.3770    0.5812   -2.1793 C   0  0  0  0  0  0  0  0  0  0  0  0
    0.4875   -0.0265   -2.4573 H   0  0  0  0  0  0  0  0  0  0  0  0
   -1.2730   -0.0341   -2.2958 H   0  0  0  0  0  0  0  0  0  0  0  0
   -0.4609    1.7834   -3.1314 C   0  0  0  0  0  0  0  0  0  0  0  0
   -0.5588    2.9283   -2.6353 O   0  5  0  0  0  0  0  0  0  0  0  0
   -0.4002    1.5345   -4.3560 O   0  0  0  0  0  0  0  0  0  0  0  0
    0.1881    0.1678    1.7015 C   0  0  0  0  0  0  0  0  0  0  0  0
    0.6057    1.2998    1.9541 O   0  0  0  0  0  0  0  0  0  0  0  0
    0.0248   -0.7575    2.6561 N   0  0  0  0  0  0  0  0  0  0  0  0
   -0.2698   -1.6783    2.3664 H   0  0  0  0  0  0  0  0  0  0  0  0
    0.3570   -0.5514    4.0634 C   0  0  0  0  0  0  0  0  0  0  0  0
   -0.1106    0.3674    4.4213 H   0  0  0  0  0  0  0  0  0  0  0  0
    0.0065   -1.3951    4.6594 H   0  0  0  0  0  0  0  0  0  0  0  0
    1.4395   -0.4579    4.1701 H   0  0  0  0  0  0  0  0  0  0  0  0
  5  6  2  0  0  0  0
  5  7  1  0  0  0  0
  2  3  1  0  0  0  0
  2  4  1  0  0  0  0
  2  5  1  0  0  0  0
  1  2  1  0  0  0  0
 20 21  2  0  0  0  0
 20 22  1  0  0  0  0
 17 18  1  0  0  0  0
 17 19  2  0  0  0  0
 14 15  1  0  0  0  0
 14 16  1  0  0  0  0
 14 17  1  0  0  0  0
 11 12  1  0  0  0  0
 11 13  1  0  0  0  0
 11 14  1  0  0  0  0
  9 10  1  0  0  0  0
  9 11  1  0  0  0  0
  9 20  1  0  0  0  0
  7  8  1  0  0  0  0
  7  9  1  0  0  0  0
 24 25  1  0  0  0  0
 24 26  1  0  0  0  0
 24 27  1  0  0  0  0
 22 23  1  0  0  0  0
 22 24  1  0  0  0  0
M  CHG  1  18  -1
M  END
$$$$
default_name
  -OEChem-01062215323D

 27 26  0     1  0  0  0  0  0999 V2000
   -3.2406   -3.5400    1.2326 H   0  0  0  0  0  0  0  0  0  0  0  0
   -3.1436   -2.6190    0.6606 C   0  0  0  0  0  0  0  0  0  0  0  0
   -3.8786   -1.8920    0.9996 H   0  0  0  0  0  0  0  0  0  0  0  0
   -3.2846   -2.8280   -0.3984 H   0  0  0  0  0  0  0  0  0  0  0  0
   -1.7586   -2.0580    0.8686 C   0  0  0  0  0  0  0  0  0  0  0  0
   -0.9666   -2.6340    1.6026 O   0  0  0  0  0  0  0  0  0  0  0  0
   -1.4866   -0.9220    0.2366 N   0  0  0  0  0  0  0  0  0  0  0  0
   -2.2166   -0.4790   -0.2994 H   0  0  0  0  0  0  0  0  0  0  0  0
   -0.1956   -0.2250    0.2596 C   0  0  1  0  0  0  0  0  0  0  0  0
    0.5755   -0.9013   -0.1105 H   0  0  0  0  0  0  0  0  0  0  0  0
   -0.2553    0.9811   -0.6992 C   0  0  0  0  0  0  0  0  0  0  0  0
   -1.1259    1.5814   -0.4304 H   0  0  0  0  0  0  0  0  0  0  0  0
    0.6388    1.5918   -0.5658 H   0  0  0  0  0  0  0  0  0  0  0  0
   -0.3770    0.5812   -2.1793 C   0  0  0  0  0  0  0  0  0  0  0  0
    0.4875   -0.0265   -2.4573 H   0  0  0  0  0  0  0  0  0  0  0  0
   -1.2730   -0.0341   -2.2958 H   0  0  0  0  0  0  0  0  0  0  0  0
   -0.4609    1.7834   -3.1314 C   0  0  0  0  0  0  0  0  0  0  0  0
   -0.5588    2.9283   -2.6353 O   0  5  0  0  0  0  0  0  0  0  0  0
   -0.4002    1.5345   -4.3560 O   0  0  0  0  0  0  0  0  0  0  0  0
    0.1881    0.1678    1.7015 C   0  0  0  0  0  0  0  0  0  0  0  0
    0.3396    1.3515    2.0108 O   0  0  0  0  0  0  0  0  0  0  0  0
    0.3223   -0.8216    2.5943 N   0  0  0  0  0  0  0  0  0  0  0  0
    0.2365   -1.7686    2.2563 H   0  0  0  0  0  0  0  0  0  0  0  0
    0.6984   -0.6201    3.9913 C   0  0  0  0  0  0  0  0  0  0  0  0
    0.0519    0.1352    4.4414 H   0  0  0  0  0  0  0  0  0  0  0  0
    0.6053   -1.5560    4.5439 H   0  0  0  0  0  0  0  0  0  0  0  0
    1.7317   -0.2714    4.0416 H   0  0  0  0  0  0  0  0  0  0  0  0
  5  6  2  0  0  0  0
  5  7  1  0  0  0  0
  2  3  1  0  0  0  0
  2  4  1  0  0  0  0
  2  5  1  0  0  0  0
  1  2  1  0  0  0  0
 20 21  2  0  0  0  0
 20 22  1  0  0  0  0
 17 18  1  0  0  0  0
 17 19  2  0  0  0  0
 14 15  1  0  0  0  0
 14 16  1  0  0  0  0
 14 17  1  0  0  0  0
 11 12  1  0  0  0  0
 11 13  1  0  0  0  0
 11 14  1  0  0  0  0
  9 10  1  0  0  0  0
  9 11  1  0  0  0  0
  9 20  1  0  0  0  0
  7  8  1  0  0  0  0
  7  9  1  0  0  0  0
 24 25  1  0  0  0  0
 24 26  1  0  0  0  0
 24 27  1  0  0  0  0
 22 23  1  0  0  0  0
 22 24  1  0  0  0  0
M  CHG  1  18  -1
M  END
$$$$
default_name
  -OEChem-01062215323D

 27 26  0     1  0  0  0  0  0999 V2000
   -3.2406   -3.5400    1.2326 H   0  0  0  0  0  0  0  0  0  0  0  0
   -3.1436   -2.6190    0.6606 C   0  0  0  0  0  0  0  0  0  0  0  0
   -3.8786   -1.8920    0.9996 H   0  0  0  0  0  0  0  0  0  0  0  0
   -3.2846   -2.8280   -0.3984 H   0  0  0  0  0  0  0  0  0  0  0  0
   -1.7586   -2.0580    0.8686 C   0  0  0  0  0  0  0  0  0  0  0  0
   -0.9666   -2.6340    1.6026 O   0  0  0  0  0  0  0  0  0  0  0  0
   -1.4866   -0.9220    0.2366 N   0  0  0  0  0  0  0  0  0  0  0  0
   -2.2166   -0.4790   -0.2994 H   0  0  0  0  0  0  0  0  0  0  0  0
   -0.1956   -0.2250    0.2596 C   0  0  1  0  0  0  0  0  0  0  0  0
    0.5755   -0.9013   -0.1105 H   0  0  0  0  0  0  0  0  0  0  0  0
   -0.2553    0.9811   -0.6992 C   0  0  0  0  0  0  0  0  0  0  0  0
   -1.1259    1.5814   -0.4304 H   0  0  0  0  0  0  0  0  0  0  0  0
    0.6388    1.5918   -0.5658 H   0  0  0  0  0  0  0  0  0  0  0  0
   -0.3770    0.5812   -2.1793 C   0  0  0  0  0  0  0  0  0  0  0  0
    0.4875   -0.0265   -2.4573 H   0  0  0  0  0  0  0  0  0  0  0  0
   -1.2730   -0.0341   -2.2958 H   0  0  0  0  0  0  0  0  0  0  0  0
   -0.4609    1.7834   -3.1314 C   0  0  0  0  0  0  0  0  0  0  0  0
   -0.5588    2.9283   -2.6353 O   0  5  0  0  0  0  0  0  0  0  0  0
   -0.4002    1.5345   -4.3560 O   0  0  0  0  0  0  0  0  0  0  0  0
    0.1881    0.1678    1.7015 C   0  0  0  0  0  0  0  0  0  0  0  0
    0.0739    1.3333    2.0864 O   0  0  0  0  0  0  0  0  0  0  0  0
    0.6211   -0.8075    2.5110 N   0  0  0  0  0  0  0  0  0  0  0  0
    0.7401   -1.7263    2.1108 H   0  0  0  0  0  0  0  0  0  0  0  0
    1.0399   -0.5992    3.8947 C   0  0  0  0  0  0  0  0  0  0  0  0
    0.2663   -0.0511    4.4351 H   0  0  0  0  0  0  0  0  0  0  0  0
    1.2150   -1.5592    4.3826 H   0  0  0  0  0  0  0  0  0  0  0  0
    1.9604   -0.0123    3.9101 H   0  0  0  0  0  0  0  0  0  0  0  0
  5  6  2  0  0  0  0
  5  7  1  0  0  0  0
  2  3  1  0  0  0  0
  2  4  1  0  0  0  0
  2  5  1  0  0  0  0
  1  2  1  0  0  0  0
 20 21  2  0  0  0  0
 20 22  1  0  0  0  0
 17 18  1  0  0  0  0
 17 19  2  0  0  0  0
 14 15  1  0  0  0  0
 14 16  1  0  0  0  0
 14 17  1  0  0  0  0
 11 12  1  0  0  0  0
 11 13  1  0  0  0  0
 11 14  1  0  0  0  0
  9 10  1  0  0  0  0
  9 11  1  0  0  0  0
  9 20  1  0  0  0  0
  7  8  1  0  0  0  0
  7  9  1  0  0  0  0
 24 25  1  0  0  0  0
 24 26  1  0  0  0  0
 24 27  1  0  0  0  0
 22 23  1  0  0  0  0
 22 24  1  0  0  0  0
M  CHG  1  18  -1
M  END
$$$$
default_name
  -OEChem-01062215323D

 27 26  0     1  0  0  0  0  0999 V2000
   -3.2406   -3.5400    1.2326 H   0  0  0  0  0  0  0  0  0  0  0  0
   -3.1436   -2.6190    0.6606 C   0  0  0  0  0  0  0  0  0  0  0  0
   -3.8786   -1.8920    0.9996 H   0  0  0  0  0  0  0  0  0  0  0  0
   -3.2846   -2.8280   -0.3984 H   0  0  0  0  0  0  0  0  0  0  0  0
   -1.7586   -2.0580    0.8686 C   0  0  0  0  0  0  0  0  0  0  0  0
   -0.9666   -2.6340    1.6026 O   0  0  0  0  0  0  0  0  0  0  0  0
   -1.4866   -0.9220    0.2366 N   0  0  0  0  0  0  0  0  0  0  0  0
   -2.2166   -0.4790   -0.2994 H   0  0  0  0  0  0  0  0  0  0  0  0
   -0.1956   -0.2250    0.2596 C   0  0  1  0  0  0  0  0  0  0  0  0
    0.5755   -0.9013   -0.1105 H   0  0  0  0  0  0  0  0  0  0  0  0
   -0.2553    0.9811   -0.6992 C   0  0  0  0  0  0  0  0  0  0  0  0
   -1.1259    1.5814   -0.4304 H   0  0  0  0  0  0  0  0  0  0  0  0
    0.6388    1.5918   -0.5658 H   0  0  0  0  0  0  0  0  0  0  0  0
   -0.3770    0.5812   -2.1793 C   0  0  0  0  0  0  0  0  0  0  0  0
    0.4875   -0.0265   -2.4573 H   0  0  0  0  0  0  0  0  0  0  0  0
   -1.2730   -0.0341   -2.2958 H   0  0  0  0  0  0  0  0  0  0  0  0
   -0.4609    1.7834   -3.1314 C   0  0  0  0  0  0  0  0  0  0  0  0
   -0.5588    2.9283   -2.6353 O   0  5  0  0  0  0  0  0  0  0  0  0
   -0.4002    1.5345   -4.3560 O   0  0  0  0  0  0  0  0  0  0  0  0
    0.1881    0.1678    1.7015 C   0  0  0  0  0  0  0  0  0  0  0  0
   -0.1735    1.2467    2.1759 O   0  0  0  0  0  0  0  0  0  0  0  0
    0.9008   -0.7163    2.4118 N   0  0  0  0  0  0  0  0  0  0  0  0
    1.2067   -1.5543    1.9398 H   0  0  0  0  0  0  0  0  0  0  0  0
    1.3585   -0.4903    3.7803 C   0  0  0  0  0  0  0  0  0  0  0  0
    0.5181   -0.1788    4.4029 H   0  0  0  0  0  0  0  0  0  0  0  0
    1.7940   -1.4044    4.1863 H   0  0  0  0  0  0  0  0  0  0  0  0
    2.1099    0.3017    3.7848 H   0  0  0  0  0  0  0  0  0  0  0  0
  5  6  2  0  0  0  0
  5  7  1  0  0  0  0
  2  3  1  0  0  0  0
  2  4  1  0  0  0  0
  2  5  1  0  0  0  0
  1  2  1  0  0  0  0
 20 21  2  0  0  0  0
 20 22  1  0  0  0  0
 17 18  1  0  0  0  0
 17 19  2  0  0  0  0
 14 15  1  0  0  0  0
 14 16  1  0  0  0  0
 14 17  1  0  0  0  0
 11 12  1  0  0  0  0
 11 13  1  0  0  0  0
 11 14  1  0  0  0  0
  9 10  1  0  0  0  0
  9 11  1  0  0  0  0
  9 20  1  0  0  0  0
  7  8  1  0  0  0  0
  7  9  1  0  0  0  0
 24 25  1  0  0  0  0
 24 26  1  0  0  0  0
 24 27  1  0  0  0  0
 22 23  1  0  0  0  0
 22 24  1  0  0  0  0
M  CHG  1  18  -1
M  END
$$$$
default_name
  -OEChem-01062215323D

 27 26  0     1  0  0  0  0  0999 V2000
   -3.2406   -3.5400    1.2326 H   0  0  0  0  0  0  0  0  0  0  0  0
   -3.1436   -2.6190    0.6606 C   0  0  0  0  0  0  0  0  0  0  0  0
   -3.8786   -1.8920    0.9996 H   0  0  0  0  0  0  0  0  0  0  0  0
   -3.2846   -2.8280   -0.3984 H   0  0  0  0  0  0  0  0  0  0  0  0
   -1.7586   -2.0580    0.8686 C   0  0  0  0  0  0  0  0  0  0  0  0
   -0.9666   -2.6340    1.6026 O   0  0  0  0  0  0  0  0  0  0  0  0
   -1.4866   -0.9220    0.2366 N   0  0  0  0  0  0  0  0  0  0  0  0
   -2.2166   -0.4790   -0.2994 H   0  0  0  0  0  0  0  0  0  0  0  0
   -0.1956   -0.2250    0.2596 C   0  0  1  0  0  0  0  0  0  0  0  0
    0.5755   -0.9013   -0.1105 H   0  0  0  0  0  0  0  0  0  0  0  0
   -0.2553    0.9811   -0.6992 C   0  0  0  0  0  0  0  0  0  0  0  0
   -1.1259    1.5814   -0.4304 H   0  0  0  0  0  0  0  0  0  0  0  0
    0.6388    1.5918   -0.5658 H   0  0  0  0  0  0  0  0  0  0  0  0
   -0.3770    0.5812   -2.1793 C   0  0  0  0  0  0  0  0  0  0  0  0
    0.4875   -0.0265   -2.4573 H   0  0  0  0  0  0  0  0  0  0  0  0
   -1.2730   -0.0341   -2.2958 H   0  0  0  0  0  0  0  0  0  0  0  0
   -0.4609    1.7834   -3.1314 C   0  0  0  0  0  0  0  0  0  0  0  0
   -0.5588    2.9283   -2.6353 O   0  5  0  0  0  0  0  0  0  0  0  0
   -0.4002    1.5345   -4.3560 O   0  0  0  0  0  0  0  0  0  0  0  0
    0.1881    0.1678    1.7015 C   0  0  0  0  0  0  0  0  0  0  0  0
   -0.3855    1.0974    2.2729 O   0  0  0  0  0  0  0  0  0  0  0  0
    1.1424   -0.5542    2.3033 N   0  0  0  0  0  0  0  0  0  0  0  0
    1.6045   -1.2642    1.7549 H   0  0  0  0  0  0  0  0  0  0  0  0
    1.6322   -0.3006    3.6558 C   0  0  0  0  0  0  0  0  0  0  0  0
    0.7900   -0.2392    4.3470 H   0  0  0  0  0  0  0  0  0  0  0  0
    2.3030   -1.1021    3.9686 H   0  0  0  0  0  0  0  0  0  0  0  0
    2.1702    0.6492    3.6741 H   0  0  0  0  0  0  0  0  0  0  0  0
  5  6  2  0  0  0  0
  5  7  1  0  0  0  0
  2  3  1  0  0  0  0
  2  4  1  0  0  0  0
  2  5  1  0  0  0  0
  1  2  1  0  0  0  0
 20 21  2  0  0  0  0
 20 22  1  0  0  0  0
 17 18  1  0  0  0  0
 17 19  2  0  0  0  0
 14 15  1  0  0  0  0
 14 16  1  0  0  0  0
 14 17  1  0  0  0  0
 11 12  1  0  0  0  0
 11 13  1  0  0  0  0
 11 14  1  0  0  0  0
  9 10  1  0  0  0  0
  9 11  1  0  0  0  0
  9 20  1  0  0  0  0
  7  8  1  0  0  0  0
  7  9  1  0  0  0  0
 24 25  1  0  0  0  0
 24 26  1  0  0  0  0
 24 27  1  0  0  0  0
 22 23  1  0  0  0  0
 22 24  1  0  0  0  0
M  CHG  1  18  -1
M  END
$$$$
default_name
  -OEChem-01062215323D

 27 26  0     1  0  0  0  0  0999 V2000
   -3.2406   -3.5400    1.2326 H   0  0  0  0  0  0  0  0  0  0  0  0
   -3.1436   -2.6190    0.6606 C   0  0  0  0  0  0  0  0  0  0  0  0
   -3.8786   -1.8920    0.9996 H   0  0  0  0  0  0  0  0  0  0  0  0
   -3.2846   -2.8280   -0.3984 H   0  0  0  0  0  0  0  0  0  0  0  0
   -1.7586   -2.0580    0.8686 C   0  0  0  0  0  0  0  0  0  0  0  0
   -0.9666   -2.6340    1.6026 O   0  0  0  0  0  0  0  0  0  0  0  0
   -1.4866   -0.9220    0.2366 N   0  0  0  0  0  0  0  0  0  0  0  0
   -2.2166   -0.4790   -0.2994 H   0  0  0  0  0  0  0  0  0  0  0  0
   -0.1956   -0.2250    0.2596 C   0  0  1  0  0  0  0  0  0  0  0  0
    0.5755   -0.9013   -0.1105 H   0  0  0  0  0  0  0  0  0  0  0  0
   -0.2553    0.9811   -0.6992 C   0  0  0  0  0  0  0  0  0  0  0  0
   -1.1259    1.5814   -0.4304 H   0  0  0  0  0  0  0  0  0  0  0  0
    0.6388    1.5918   -0.5658 H   0  0  0  0  0  0  0  0  0  0  0  0
   -0.3770    0.5812   -2.1793 C   0  0  0  0  0  0  0  0  0  0  0  0
    0.4875   -0.0265   -2.4573 H   0  0  0  0  0  0  0  0  0  0  0  0
   -1.2730   -0.0341   -2.2958 H   0  0  0  0  0  0  0  0  0  0  0  0
   -0.4609    1.7834   -3.1314 C   0  0  0  0  0  0  0  0  0  0  0  0
   -0.5588    2.9283   -2.6353 O   0  5  0  0  0  0  0  0  0  0  0  0
   -0.4002    1.5345   -4.3560 O   0  0  0  0  0  0  0  0  0  0  0  0
    0.1881    0.1678    1.7015 C   0  0  0  0  0  0  0  0  0  0  0  0
   -0.5478    0.8956    2.3711 O   0  0  0  0  0  0  0  0  0  0  0  0
    1.3293   -0.3321    2.1931 N   0  0  0  0  0  0  0  0  0  0  0  0
    1.9064   -0.8759    1.5688 H   0  0  0  0  0  0  0  0  0  0  0  0
    1.8426   -0.0432    3.5297 C   0  0  0  0  0  0  0  0  0  0  0  0
    1.0636   -0.2281    4.2712 H   0  0  0  0  0  0  0  0  0  0  0  0
    2.7071   -0.6731    3.7441 H   0  0  0  0  0  0  0  0  0  0  0  0
    2.1370    1.0066    3.5856 H   0  0  0  0  0  0  0  0  0  0  0  0
  5  6  2  0  0  0  0
  5  7  1  0  0  0  0
  2  3  1  0  0  0  0
  2  4  1  0  0  0  0
  2  5  1  0  0  0  0
  1  2  1  0  0  0  0
 20 21  2  0  0  0  0
 20 22  1  0  0  0  0
 17 18  1  0  0  0  0
 17 19  2  0  0  0  0
 14 15  1  0  0  0  0
 14 16  1  0  0  0  0
 14 17  1  0  0  0  0
 11 12  1  0  0  0  0
 11 13  1  0  0  0  0
 11 14  1  0  0  0  0
  9 10  1  0  0  0  0
  9 11  1  0  0  0  0
  9 20  1  0  0  0  0
  7  8  1  0  0  0  0
  7  9  1  0  0  0  0
 24 25  1  0  0  0  0
 24 26  1  0  0  0  0
 24 27  1  0  0  0  0
 22 23  1  0  0  0  0
 22 24  1  0  0  0  0
M  CHG  1  18  -1
M  END
$$$$
default_name
  -OEChem-01062215323D

 27 26  0     1  0  0  0  0  0999 V2000
   -3.2406   -3.5400    1.2326 H   0  0  0  0  0  0  0  0  0  0  0  0
   -3.1436   -2.6190    0.6606 C   0  0  0  0  0  0  0  0  0  0  0  0
   -3.8786   -1.8920    0.9996 H   0  0  0  0  0  0  0  0  0  0  0  0
   -3.2846   -2.8280   -0.3984 H   0  0  0  0  0  0  0  0  0  0  0  0
   -1.7586   -2.0580    0.8686 C   0  0  0  0  0  0  0  0  0  0  0  0
   -0.9666   -2.6340    1.6026 O   0  0  0  0  0  0  0  0  0  0  0  0
   -1.4866   -0.9220    0.2366 N   0  0  0  0  0  0  0  0  0  0  0  0
   -2.2166   -0.4790   -0.2994 H   0  0  0  0  0  0  0  0  0  0  0  0
   -0.1956   -0.2250    0.2596 C   0  0  1  0  0  0  0  0  0  0  0  0
    0.5755   -0.9013   -0.1105 H   0  0  0  0  0  0  0  0  0  0  0  0
   -0.2553    0.9811   -0.6992 C   0  0  0  0  0  0  0  0  0  0  0  0
   -1.1259    1.5814   -0.4304 H   0  0  0  0  0  0  0  0  0  0  0  0
    0.6388    1.5918   -0.5658 H   0  0  0  0  0  0  0  0  0  0  0  0
   -0.3770    0.5812   -2.1793 C   0  0  0  0  0  0  0  0  0  0  0  0
    0.4875   -0.0265   -2.4573 H   0  0  0  0  0  0  0  0  0  0  0  0
   -1.2730   -0.0341   -2.2958 H   0  0  0  0  0  0  0  0  0  0  0  0
   -0.4609    1.7834   -3.1314 C   0  0  0  0  0  0  0  0  0  0  0  0
   -0.5588    2.9283   -2.6353 O   0  5  0  0  0  0  0  0  0  0  0  0
   -0.4002    1.5345   -4.3560 O   0  0  0  0  0  0  0  0  0  0  0  0
    0.1881    0.1678    1.7015 C   0  0  0  0  0  0  0  0  0  0  0  0
   -0.6494    0.6552    2.4636 O   0  0  0  0  0  0  0  0  0  0  0  0
    1.4490   -0.0653    2.0885 N   0  0  0  0  0  0  0  0  0  0  0  0
    2.0919   -0.4159    1.3941 H   0  0  0  0  0  0  0  0  0  0  0  0
    1.9752    0.2644    3.4106 C   0  0  0  0  0  0  0  0  0  0  0  0
    1.3202   -0.1464    4.1807 H   0  0  0  0  0  0  0  0  0  0  0  0
    2.9789   -0.1464    3.5283 H   0  0  0  0  0  0  0  0  0  0  0  0
    2.0127    1.3495    3.5252 H   0  0  0  0  0  0  0  0  0  0  0  0
  5  6  2  0  0  0  0
  5  7  1  0  0  0  0
  2  3  1  0  0  0  0
  2  4  1  0  0  0  0
  2  5  1  0  0  0  0
  1  2  1  0  0  0  0
 20 21  2  0  0  0  0
 20 22  1  0  0  0  0
 17 18  1  0  0  0  0
 17 19  2  0  0  0  0
 14 15  1  0  0  0  0
 14 16  1  0  0  0  0
 14 17  1  0  0  0  0
 11 12  1  0  0  0  0
 11 13  1  0  0  0  0
 11 14  1  0  0  0  0
  9 10  1  0  0  0  0
  9 11  1  0  0  0  0
  9 20  1  0  0  0  0
  7  8  1  0  0  0  0
  7  9  1  0  0  0  0
 24 25  1  0  0  0  0
 24 26  1  0  0  0  0
 24 27  1  0  0  0  0
 22 23  1  0  0  0  0
 22 24  1  0  0  0  0
M  CHG  1  18  -1
M  END
$$$$
default_name
  -OEChem-01062215323D

 27 26  0     1  0  0  0  0  0999 V2000
   -3.2406   -3.5400    1.2326 H   0  0  0  0  0  0  0  0  0  0  0  0
   -3.1436   -2.6190    0.6606 C   0  0  0  0  0  0  0  0  0  0  0  0
   -3.8786   -1.8920    0.9996 H   0  0  0  0  0  0  0  0  0  0  0  0
   -3.2846   -2.8280   -0.3984 H   0  0  0  0  0  0  0  0  0  0  0  0
   -1.7586   -2.0580    0.8686 C   0  0  0  0  0  0  0  0  0  0  0  0
   -0.9666   -2.6340    1.6026 O   0  0  0  0  0  0  0  0  0  0  0  0
   -1.4866   -0.9220    0.2366 N   0  0  0  0  0  0  0  0  0  0  0  0
   -2.2166   -0.4790   -0.2994 H   0  0  0  0  0  0  0  0  0  0  0  0
   -0.1956   -0.2250    0.2596 C   0  0  1  0  0  0  0  0  0  0  0  0
    0.5755   -0.9013   -0.1105 H   0  0  0  0  0  0  0  0  0  0  0  0
   -0.2553    0.9811   -0.6992 C   0  0  0  0  0  0  0  0  0  0  0  0
   -1.1259    1.5814   -0.4304 H   0  0  0  0  0  0  0  0  0  0  0  0
    0.6388    1.5918   -0.5658 H   0  0  0  0  0  0  0  0  0  0  0  0
   -0.3770    0.5812   -2.1793 C   0  0  0  0  0  0  0  0  0  0  0  0
    0.4875   -0.0265   -2.4573 H   0  0  0  0  0  0  0  0  0  0  0  0
   -1.2730   -0.0341   -2.2958 H   0  0  0  0  0  0  0  0  0  0  0  0
   -0.4609    1.7834   -3.1314 C   0  0  0  0  0  0  0  0  0  0  0  0
   -0.5588    2.9283   -2.6353 O   0  5  0  0  0  0  0  0  0  0  0  0
   -0.4002    1.5345   -4.3560 O   0  0  0  0  0  0  0  0  0  0  0  0
    0.1881    0.1678    1.7015 C   0  0  0  0  0  0  0  0  0  0  0  0
   -0.6832    0.3924    2.5442 O   0  0  0  0  0  0  0  0  0  0  0  0
    1.4931    0.2280    1.9969 N   0  0  0  0  0  0  0  0  0  0  0  0
    2.1483    0.0846    1.2427 H   0  0  0  0  0  0  0  0  0  0  0  0
    2.0211    0.6014    3.3066 C   0  0  0  0  0  0  0  0  0  0  0  0
    1.5423    0.0004    4.0816 H   0  0  0  0  0  0  0  0  0  0  0  0
    3.0999    0.4419    3.3359 H   0  0  0  0  0  0  0  0  0  0  0  0
    1.8057    1.6545    3.4972 H   0  0  0  0  0  0  0  0  0  0  0  0
  5  6  2  0  0  0  0
  5  7  1  0  0  0  0
  2  3  1  0  0  0  0
  2  4  1  0  0  0  0
  2  5  1  0  0  0  0
  1  2  1  0  0  0  0
 20 21  2  0  0  0  0
 20 22  1  0  0  0  0
 17 18  1  0  0  0  0
 17 19  2  0  0  0  0
 14 15  1  0  0  0  0
 14 16  1  0  0  0  0
 14 17  1  0  0  0  0
 11 12  1  0  0  0  0
 11 13  1  0  0  0  0
 11 14  1  0  0  0  0
  9 10  1  0  0  0  0
  9 11  1  0  0  0  0
  9 20  1  0  0  0  0
  7  8  1  0  0  0  0
  7  9  1  0  0  0  0
 24 25  1  0  0  0  0
 24 26  1  0  0  0  0
 24 27  1  0  0  0  0
 22 23  1  0  0  0  0
 22 24  1  0  0  0  0
M  CHG  1  18  -1
M  END
$$$$
default_name
  -OEChem-01062215323D

 27 26  0     1  0  0  0  0  0999 V2000
   -3.2406   -3.5400    1.2326 H   0  0  0  0  0  0  0  0  0  0  0  0
   -3.1436   -2.6190    0.6606 C   0  0  0  0  0  0  0  0  0  0  0  0
   -3.8786   -1.8920    0.9996 H   0  0  0  0  0  0  0  0  0  0  0  0
   -3.2846   -2.8280   -0.3984 H   0  0  0  0  0  0  0  0  0  0  0  0
   -1.7586   -2.0580    0.8686 C   0  0  0  0  0  0  0  0  0  0  0  0
   -0.9666   -2.6340    1.6026 O   0  0  0  0  0  0  0  0  0  0  0  0
   -1.4866   -0.9220    0.2366 N   0  0  0  0  0  0  0  0  0  0  0  0
   -2.2166   -0.4790   -0.2994 H   0  0  0  0  0  0  0  0  0  0  0  0
   -0.1956   -0.2250    0.2596 C   0  0  1  0  0  0  0  0  0  0  0  0
    0.5755   -0.9013   -0.1105 H   0  0  0  0  0  0  0  0  0  0  0  0
   -0.2553    0.9811   -0.6992 C   0  0  0  0  0  0  0  0  0  0  0  0
   -1.1259    1.5814   -0.4304 H   0  0  0  0  0  0  0  0  0  0  0  0
    0.6388    1.5918   -0.5658 H   0  0  0  0  0  0  0  0  0  0  0  0
   -0.3770    0.5812   -2.1793 C   0  0  0  0  0  0  0  0  0  0  0  0
    0.4875   -0.0265   -2.4573 H   0  0  0  0  0  0  0  0  0  0  0  0
   -1.2730   -0.0341   -2.2958 H   0  0  0  0  0  0  0  0  0  0  0  0
   -0.4609    1.7834   -3.1314 C   0  0  0  0  0  0  0  0  0  0  0  0
   -0.5588    2.9283   -2.6353 O   0  5  0  0  0  0  0  0  0  0  0  0
   -0.4002    1.5345   -4.3560 O   0  0  0  0  0  0  0  0  0  0  0  0
    0.1881    0.1678    1.7015 C   0  0  0  0  0  0  0  0  0  0  0  0
   -0.6470    0.1253    2.6074 O   0  0  0  0  0  0  0  0  0  0  0  0
    1.4588    0.5280    1.9243 N   0  0  0  0  0  0  0  0  0  0  0  0
    2.0717    0.5914    1.1250 H   0  0  0  0  0  0  0  0  0  0  0  0
    1.9770    0.9446    3.2248 C   0  0  0  0  0  0  0  0  0  0  0  0
    1.7148    0.2024    3.9806 H   0  0  0  0  0  0  0  0  0  0  0  0
    3.0617    1.0518    3.1799 H   0  0  0  0  0  0  0  0  0  0  0  0
    1.5301    1.9009    3.5034 H   0  0  0  0  0  0  0  0  0  0  0  0
  5  6  2  0  0  0  0
  5  7  1  0  0  0  0
  2  3  1  0  0  0  0
  2  4  1  0  0  0  0
  2  5  1  0  0  0  0
  1  2  1  0  0  0  0
 20 21  2  0  0  0  0
 20 22  1  0  0  0  0
 17 18  1  0  0  0  0
 17 19  2  0  0  0  0
 14 15  1  0  0  0  0
 14 16  1  0  0  0  0
 14 17  1  0  0  0  0
 11 12  1  0  0  0  0
 11 13  1  0  0  0  0
 11 14  1  0  0  0  0
  9 10  1  0  0  0  0
  9 11  1  0  0  0  0
  9 20  1  0  0  0  0
  7  8  1  0  0  0  0
  7  9  1  0  0  0  0
 24 25  1  0  0  0  0
 24 26  1  0  0  0  0
 24 27  1  0  0  0  0
 22 23  1  0  0  0  0
 22 24  1  0  0  0  0
M  CHG  1  18  -1
M  END
$$$$
default_name
  -OEChem-01062215323D

 27 26  0     1  0  0  0  0  0999 V2000
   -3.2406   -3.5400    1.2326 H   0  0  0  0  0  0  0  0  0  0  0  0
   -3.1436   -2.6190    0.6606 C   0  0  0  0  0  0  0  0  0  0  0  0
   -3.8786   -1.8920    0.9996 H   0  0  0  0  0  0  0  0  0  0  0  0
   -3.2846   -2.8280   -0.3984 H   0  0  0  0  0  0  0  0  0  0  0  0
   -1.7586   -2.0580    0.8686 C   0  0  0  0  0  0  0  0  0  0  0  0
   -0.9666   -2.6340    1.6026 O   0  0  0  0  0  0  0  0  0  0  0  0
   -1.4866   -0.9220    0.2366 N   0  0  0  0  0  0  0  0  0  0  0  0
   -2.2166   -0.4790   -0.2994 H   0  0  0  0  0  0  0  0  0  0  0  0
   -0.1956   -0.2250    0.2596 C   0  0  1  0  0  0  0  0  0  0  0  0
    0.5170   -0.7852   -0.3465 H   0  0  0  0  0  0  0  0  0  0  0  0
   -0.3609    1.1663   -0.3842 C   0  0  0  0  0  0  0  0  0  0  0  0
   -1.1855    1.6737    0.1189 H   0  0  0  0  0  0  0  0  0  0  0  0
    0.5491    1.7469   -0.2257 H   0  0  0  0  0  0  0  0  0  0  0  0
   -0.6683    1.1113   -1.8902 C   0  0  0  0  0  0  0  0  0  0  0  0
    0.1490    0.5988   -2.4032 H   0  0  0  0  0  0  0  0  0  0  0  0
   -1.5781    0.5224   -2.0332 H   0  0  0  0  0  0  0  0  0  0  0  0
   -0.8569    2.4969   -2.5255 C   0  0  0  0  0  0  0  0  0  0  0  0
   -0.8812    3.4970   -1.7733 O   0  5  0  0  0  0  0  0  0  0  0  0
   -0.9504    2.5342   -3.7725 O   0  0  0  0  0  0  0  0  0  0  0  0
    0.3671   -0.1635    1.6950 C   0  0  0  0  0  0  0  0  0  0  0  0
   -0.2447   -0.6805    2.6321 O   0  0  0  0  0  0  0  0  0  0  0  0
    1.5464    0.4472    1.8685 N   0  0  0  0  0  0  0  0  0  0  0  0
    1.9621    0.8940    1.0647 H   0  0  0  0  0  0  0  0  0  0  0  0
    2.2049    0.6064    3.1626 C   0  0  0  0  0  0  0  0  0  0  0  0
    2.2646   -0.3597    3.6666 H   0  0  0  0  0  0  0  0  0  0  0  0
    3.2095    1.0090    3.0256 H   0  0  0  0  0  0  0  0  0  0  0  0
    1.6226    1.2899    3.7836 H   0  0  0  0  0  0  0  0  0  0  0  0
  5  6  2  0  0  0  0
  5  7  1  0  0  0  0
  2  3  1  0  0  0  0
  2  4  1  0  0  0  0
  2  5  1  0  0  0  0
  1  2  1  0  0  0  0
 20 21  2  0  0  0  0
 20 22  1  0  0  0  0
 17 18  1  0  0  0  0
 17 19  2  0  0  0  0
 14 15  1  0  0  0  0
 14 16  1  0  0  0  0
 14 17  1  0  0  0  0
 11 12  1  0  0  0  0
 11 13  1  0  0  0  0
 11 14  1  0  0  0  0
  9 10  1  0  0  0  0
  9 11  1  0  0  0  0
  9 20  1  0  0  0  0
  7  8  1  0  0  0  0
  7  9  1  0  0  0  0
 24 25  1  0  0  0  0
 24 26  1  0  0  0  0
 24 27  1  0  0  0  0
 22 23  1  0  0  0  0
 22 24  1  0  0  0  0
M  CHG  1  18  -1
M  END
$$$$
default_name
  -OEChem-01062215323D

 27 26  0     1  0  0  0  0  0999 V2000
   -3.2406   -3.5400    1.2326 H   0  0  0  0  0  0  0  0  0  0  0  0
   -3.1436   -2.6190    0.6606 C   0  0  0  0  0  0  0  0  0  0  0  0
   -3.8786   -1.8920    0.9996 H   0  0  0  0  0  0  0  0  0  0  0  0
   -3.2846   -2.8280   -0.3984 H   0  0  0  0  0  0  0  0  0  0  0  0
   -1.7586   -2.0580    0.8686 C   0  0  0  0  0  0  0  0  0  0  0  0
   -0.9666   -2.6340    1.6026 O   0  0  0  0  0  0  0  0  0  0  0  0
   -1.4866   -0.9220    0.2366 N   0  0  0  0  0  0  0  0  0  0  0  0
   -2.2166   -0.4790   -0.2994 H   0  0  0  0  0  0  0  0  0  0  0  0
   -0.1956   -0.2250    0.2596 C   0  0  1  0  0  0  0  0  0  0  0  0
    0.5170   -0.7852   -0.3465 H   0  0  0  0  0  0  0  0  0  0  0  0
   -0.3609    1.1663   -0.3842 C   0  0  0  0  0  0  0  0  0  0  0  0
   -1.1855    1.6737    0.1189 H   0  0  0  0  0  0  0  0  0  0  0  0
    0.5491    1.7469   -0.2257 H   0  0  0  0  0  0  0  0  0  0  0  0
   -0.6683    1.1113   -1.8902 C   0  0  0  0  0  0  0  0  0  0  0  0
    0.1490    0.5988   -2.4032 H   0  0  0  0  0  0  0  0  0  0  0  0
   -1.5781    0.5224   -2.0332 H   0  0  0  0  0  0  0  0  0  0  0  0
   -0.8569    2.4969   -2.5255 C   0  0  0  0  0  0  0  0  0  0  0  0
   -0.8812    3.4970   -1.7733 O   0  5  0  0  0  0  0  0  0  0  0  0
   -0.9504    2.5342   -3.7725 O   0  0  0  0  0  0  0  0  0  0  0  0
    0.3671   -0.1635    1.6950 C   0  0  0  0  0  0  0  0  0  0  0  0
   -0.0819   -0.8978    2.5776 O   0  0  0  0  0  0  0  0  0  0  0  0
    1.3686    0.6948    1.9276 N   0  0  0  0  0  0  0  0  0  0  0  0
    1.6471    1.3015    1.1707 H   0  0  0  0  0  0  0  0  0  0  0  0
    1.9977    0.8870    3.2318 C   0  0  0  0  0  0  0  0  0  0  0  0
    2.2988   -0.0788    3.6412 H   0  0  0  0  0  0  0  0  0  0  0  0
    2.8729    1.5310    3.1352 H   0  0  0  0  0  0  0  0  0  0  0  0
    1.2820    1.3489    3.9146 H   0  0  0  0  0  0  0  0  0  0  0  0
  5  6  2  0  0  0  0
  5  7  1  0  0  0  0
  2  3  1  0  0  0  0
  2  4  1  0  0  0  0
  2  5  1  0  0  0  0
  1  2  1  0  0  0  0
 20 21  2  0  0  0  0
 20 22  1  0  0  0  0
 17 18  1  0  0  0  0
 17 19  2  0  0  0  0
 14 15  1  0  0  0  0
 14 16  1  0  0  0  0
 14 17  1  0  0  0  0
 11 12  1  0  0  0  0
 11 13  1  0  0  0  0
 11 14  1  0  0  0  0
  9 10  1  0  0  0  0
  9 11  1  0  0  0  0
  9 20  1  0  0  0  0
  7  8  1  0  0  0  0
  7  9  1  0  0  0  0
 24 25  1  0  0  0  0
 24 26  1  0  0  0  0
 24 27  1  0  0  0  0
 22 23  1  0  0  0  0
 22 24  1  0  0  0  0
M  CHG  1  18  -1
M  END
$$$$
default_name
  -OEChem-01062215323D

 27 26  0     1  0  0  0  0  0999 V2000
   -3.2406   -3.5400    1.2326 H   0  0  0  0  0  0  0  0  0  0  0  0
   -3.1436   -2.6190    0.6606 C   0  0  0  0  0  0  0  0  0  0  0  0
   -3.8786   -1.8920    0.9996 H   0  0  0  0  0  0  0  0  0  0  0  0
   -3.2846   -2.8280   -0.3984 H   0  0  0  0  0  0  0  0  0  0  0  0
   -1.7586   -2.0580    0.8686 C   0  0  0  0  0  0  0  0  0  0  0  0
   -0.9666   -2.6340    1.6026 O   0  0  0  0  0  0  0  0  0  0  0  0
   -1.4866   -0.9220    0.2366 N   0  0  0  0  0  0  0  0  0  0  0  0
   -2.2166   -0.4790   -0.2994 H   0  0  0  0  0  0  0  0  0  0  0  0
   -0.1956   -0.2250    0.2596 C   0  0  1  0  0  0  0  0  0  0  0  0
    0.5170   -0.7852   -0.3465 H   0  0  0  0  0  0  0  0  0  0  0  0
   -0.3609    1.1663   -0.3842 C   0  0  0  0  0  0  0  0  0  0  0  0
   -1.1855    1.6737    0.1189 H   0  0  0  0  0  0  0  0  0  0  0  0
    0.5491    1.7469   -0.2257 H   0  0  0  0  0  0  0  0  0  0  0  0
   -0.6683    1.1113   -1.8902 C   0  0  0  0  0  0  0  0  0  0  0  0
    0.1490    0.5988   -2.4032 H   0  0  0  0  0  0  0  0  0  0  0  0
   -1.5781    0.5224   -2.0332 H   0  0  0  0  0  0  0  0  0  0  0  0
   -0.8569    2.4969   -2.5255 C   0  0  0  0  0  0  0  0  0  0  0  0
   -0.8812    3.4970   -1.7733 O   0  5  0  0  0  0  0  0  0  0  0  0
   -0.9504    2.5342   -3.7725 O   0  0  0  0  0  0  0  0  0  0  0  0
    0.3671   -0.1635    1.6950 C   0  0  0  0  0  0  0  0  0  0  0  0
    0.1271   -1.0633    2.5027 O   0  0  0  0  0  0  0  0  0  0  0  0
    1.1379    0.8856    2.0099 N   0  0  0  0  0  0  0  0  0  0  0  0
    1.2458    1.6093    1.3149 H   0  0  0  0  0  0  0  0  0  0  0  0
    1.7307    1.1015    3.3272 C   0  0  0  0  0  0  0  0  0  0  0  0
    2.2640    0.2032    3.6428 H   0  0  0  0  0  0  0  0  0  0  0  0
    2.4232    1.9438    3.2938 H   0  0  0  0  0  0  0  0  0  0  0  0
    0.9401    1.3115    4.0503 H   0  0  0  0  0  0  0  0  0  0  0  0
  5  6  2  0  0  0  0
  5  7  1  0  0  0  0
  2  3  1  0  0  0  0
  2  4  1  0  0  0  0
  2  5  1  0  0  0  0
  1  2  1  0  0  0  0
 20 21  2  0  0  0  0
 20 22  1  0  0  0  0
 17 18  1  0  0  0  0
 17 19  2  0  0  0  0
 14 15  1  0  0  0  0
 14 16  1  0  0  0  0
 14 17  1  0  0  0  0
 11 12  1  0  0  0  0
 11 13  1  0  0  0  0
 11 14  1  0  0  0  0
  9 10  1  0  0  0  0
  9 11  1  0  0  0  0
  9 20  1  0  0  0  0
  7  8  1  0  0  0  0
  7  9  1  0  0  0  0
 24 25  1  0  0  0  0
 24 26  1  0  0  0  0
 24 27  1  0  0  0  0
 22 23  1  0  0  0  0
 22 24  1  0  0  0  0
M  CHG  1  18  -1
M  END
$$$$
default_name
  -OEChem-01062215323D

 27 26  0     1  0  0  0  0  0999 V2000
   -3.2406   -3.5400    1.2326 H   0  0  0  0  0  0  0  0  0  0  0  0
   -3.1436   -2.6190    0.6606 C   0  0  0  0  0  0  0  0  0  0  0  0
   -3.8786   -1.8920    0.9996 H   0  0  0  0  0  0  0  0  0  0  0  0
   -3.2846   -2.8280   -0.3984 H   0  0  0  0  0  0  0  0  0  0  0  0
   -1.7586   -2.0580    0.8686 C   0  0  0  0  0  0  0  0  0  0  0  0
   -0.9666   -2.6340    1.6026 O   0  0  0  0  0  0  0  0  0  0  0  0
   -1.4866   -0.9220    0.2366 N   0  0  0  0  0  0  0  0  0  0  0  0
   -2.2166   -0.4790   -0.2994 H   0  0  0  0  0  0  0  0  0  0  0  0
   -0.1956   -0.2250    0.2596 C   0  0  1  0  0  0  0  0  0  0  0  0
    0.5170   -0.7852   -0.3465 H   0  0  0  0  0  0  0  0  0  0  0  0
   -0.3609    1.1663   -0.3842 C   0  0  0  0  0  0  0  0  0  0  0  0
   -1.1855    1.6737    0.1189 H   0  0  0  0  0  0  0  0  0  0  0  0
    0.5491    1.7469   -0.2257 H   0  0  0  0  0  0  0  0  0  0  0  0
   -0.6683    1.1113   -1.8902 C   0  0  0  0  0  0  0  0  0  0  0  0
    0.1490    0.5988   -2.4032 H   0  0  0  0  0  0  0  0  0  0  0  0
   -1.5781    0.5224   -2.0332 H   0  0  0  0  0  0  0  0  0  0  0  0
   -0.8569    2.4969   -2.5255 C   0  0  0  0  0  0  0  0  0  0  0  0
   -0.8812    3.4970   -1.7733 O   0  5  0  0  0  0  0  0  0  0  0  0
   -0.9504    2.5342   -3.7725 O   0  0  0  0  0  0  0  0  0  0  0  0
    0.3671   -0.1635    1.6950 C   0  0  0  0  0  0  0  0  0  0  0  0
    0.3680   -1.1658    2.4127 O   0  0  0  0  0  0  0  0  0  0  0  0
    0.8699    1.0066    2.1097 N   0  0  0  0  0  0  0  0  0  0  0  0
    0.7855    1.7964    1.4873 H   0  0  0  0  0  0  0  0  0  0  0  0
    1.4222    1.2355    3.4424 C   0  0  0  0  0  0  0  0  0  0  0  0
    2.1624    0.4670    3.6713 H   0  0  0  0  0  0  0  0  0  0  0  0
    1.8911    2.2193    3.4906 H   0  0  0  0  0  0  0  0  0  0  0  0
    0.6203    1.1803    4.1812 H   0  0  0  0  0  0  0  0  0  0  0  0
  5  6  2  0  0  0  0
  5  7  1  0  0  0  0
  2  3  1  0  0  0  0
  2  4  1  0  0  0  0
  2  5  1  0  0  0  0
  1  2  1  0  0  0  0
 20 21  2  0  0  0  0
 20 22  1  0  0  0  0
 17 18  1  0  0  0  0
 17 19  2  0  0  0  0
 14 15  1  0  0  0  0
 14 16  1  0  0  0  0
 14 17  1  0  0  0  0
 11 12  1  0  0  0  0
 11 13  1  0  0  0  0
 11 14  1  0  0  0  0
  9 10  1  0  0  0  0
  9 11  1  0  0  0  0
  9 20  1  0  0  0  0
  7  8  1  0  0  0  0
  7  9  1  0  0  0  0
 24 25  1  0  0  0  0
 24 26  1  0  0  0  0
 24 27  1  0  0  0  0
 22 23  1  0  0  0  0
 22 24  1  0  0  0  0
M  CHG  1  18  -1
M  END
$$$$
default_name
  -OEChem-01062215323D

 27 26  0     1  0  0  0  0  0999 V2000
   -3.2406   -3.5400    1.2326 H   0  0  0  0  0  0  0  0  0  0  0  0
   -3.1436   -2.6190    0.6606 C   0  0  0  0  0  0  0  0  0  0  0  0
   -3.8786   -1.8920    0.9996 H   0  0  0  0  0  0  0  0  0  0  0  0
   -3.2846   -2.8280   -0.3984 H   0  0  0  0  0  0  0  0  0  0  0  0
   -1.7586   -2.0580    0.8686 C   0  0  0  0  0  0  0  0  0  0  0  0
   -0.9666   -2.6340    1.6026 O   0  0  0  0  0  0  0  0  0  0  0  0
   -1.4866   -0.9220    0.2366 N   0  0  0  0  0  0  0  0  0  0  0  0
   -2.2166   -0.4790   -0.2994 H   0  0  0  0  0  0  0  0  0  0  0  0
   -0.1956   -0.2250    0.2596 C   0  0  1  0  0  0  0  0  0  0  0  0
    0.5170   -0.7852   -0.3465 H   0  0  0  0  0  0  0  0  0  0  0  0
   -0.3609    1.1663   -0.3842 C   0  0  0  0  0  0  0  0  0  0  0  0
   -1.1855    1.6737    0.1189 H   0  0  0  0  0  0  0  0  0  0  0  0
    0.5491    1.7469   -0.2257 H   0  0  0  0  0  0  0  0  0  0  0  0
   -0.6683    1.1113   -1.8902 C   0  0  0  0  0  0  0  0  0  0  0  0
    0.1490    0.5988   -2.4032 H   0  0  0  0  0  0  0  0  0  0  0  0
   -1.5781    0.5224   -2.0332 H   0  0  0  0  0  0  0  0  0  0  0  0
   -0.8569    2.4969   -2.5255 C   0  0  0  0  0  0  0  0  0  0  0  0
   -0.8812    3.4970   -1.7733 O   0  5  0  0  0  0  0  0  0  0  0  0
   -0.9504    2.5342   -3.7725 O   0  0  0  0  0  0  0  0  0  0  0  0
    0.3671   -0.1635    1.6950 C   0  0  0  0  0  0  0  0  0  0  0  0
    0.6245   -1.1983    2.3135 O   0  0  0  0  0  0  0  0  0  0  0  0
    0.5829    1.0495    2.2204 N   0  0  0  0  0  0  0  0  0  0  0  0
    0.2977    1.8500    1.6762 H   0  0  0  0  0  0  0  0  0  0  0  0
    1.0930    1.2798    3.5695 C   0  0  0  0  0  0  0  0  0  0  0  0
    2.0011    0.6947    3.7247 H   0  0  0  0  0  0  0  0  0  0  0  0
    1.3128    2.3388    3.7122 H   0  0  0  0  0  0  0  0  0  0  0  0
    0.3443    0.9641    4.2987 H   0  0  0  0  0  0  0  0  0  0  0  0
  5  6  2  0  0  0  0
  5  7  1  0  0  0  0
  2  3  1  0  0  0  0
  2  4  1  0  0  0  0
  2  5  1  0  0  0  0
  1  2  1  0  0  0  0
 20 21  2  0  0  0  0
 20 22  1  0  0  0  0
 17 18  1  0  0  0  0
 17 19  2  0  0  0  0
 14 15  1  0  0  0  0
 14 16  1  0  0  0  0
 14 17  1  0  0  0  0
 11 12  1  0  0  0  0
 11 13  1  0  0  0  0
 11 14  1  0  0  0  0
  9 10  1  0  0  0  0
  9 11  1  0  0  0  0
  9 20  1  0  0  0  0
  7  8  1  0  0  0  0
  7  9  1  0  0  0  0
 24 25  1  0  0  0  0
 24 26  1  0  0  0  0
 24 27  1  0  0  0  0
 22 23  1  0  0  0  0
 22 24  1  0  0  0  0
M  CHG  1  18  -1
M  END
$$$$
default_name
  -OEChem-01062215323D

 27 26  0     1  0  0  0  0  0999 V2000
   -3.2406   -3.5400    1.2326 H   0  0  0  0  0  0  0  0  0  0  0  0
   -3.1436   -2.6190    0.6606 C   0  0  0  0  0  0  0  0  0  0  0  0
   -3.8786   -1.8920    0.9996 H   0  0  0  0  0  0  0  0  0  0  0  0
   -3.2846   -2.8280   -0.3984 H   0  0  0  0  0  0  0  0  0  0  0  0
   -1.7586   -2.0580    0.8686 C   0  0  0  0  0  0  0  0  0  0  0  0
   -0.9666   -2.6340    1.6026 O   0  0  0  0  0  0  0  0  0  0  0  0
   -1.4866   -0.9220    0.2366 N   0  0  0  0  0  0  0  0  0  0  0  0
   -2.2166   -0.4790   -0.2994 H   0  0  0  0  0  0  0  0  0  0  0  0
   -0.1956   -0.2250    0.2596 C   0  0  1  0  0  0  0  0  0  0  0  0
    0.5170   -0.7852   -0.3465 H   0  0  0  0  0  0  0  0  0  0  0  0
   -0.3609    1.1663   -0.3842 C   0  0  0  0  0  0  0  0  0  0  0  0
   -1.1855    1.6737    0.1189 H   0  0  0  0  0  0  0  0  0  0  0  0
    0.5491    1.7469   -0.2257 H   0  0  0  0  0  0  0  0  0  0  0  0
   -0.6683    1.1113   -1.8902 C   0  0  0  0  0  0  0  0  0  0  0  0
    0.1490    0.5988   -2.4032 H   0  0  0  0  0  0  0  0  0  0  0  0
   -1.5781    0.5224   -2.0332 H   0  0  0  0  0  0  0  0  0  0  0  0
   -0.8569    2.4969   -2.5255 C   0  0  0  0  0  0  0  0  0  0  0  0
   -0.8812    3.4970   -1.7733 O   0  5  0  0  0  0  0  0  0  0  0  0
   -0.9504    2.5342   -3.7725 O   0  0  0  0  0  0  0  0  0  0  0  0
    0.3671   -0.1635    1.6950 C   0  0  0  0  0  0  0  0  0  0  0  0
    0.8791   -1.1586    2.2120 O   0  0  0  0  0  0  0  0  0  0  0  0
    0.2966    1.0113    2.3343 N   0  0  0  0  0  0  0  0  0  0  0  0
   -0.1845    1.7665    1.8688 H   0  0  0  0  0  0  0  0  0  0  0  0
    0.7658    1.2313    3.6999 C   0  0  0  0  0  0  0  0  0  0  0  0
    1.7910    0.8707    3.7995 H   0  0  0  0  0  0  0  0  0  0  0  0
    0.7277    2.2940    3.9434 H   0  0  0  0  0  0  0  0  0  0  0  0
    0.1310    0.6778    4.3946 H   0  0  0  0  0  0  0  0  0  0  0  0
  5  6  2  0  0  0  0
  5  7  1  0  0  0  0
  2  3  1  0  0  0  0
  2  4  1  0  0  0  0
  2  5  1  0  0  0  0
  1  2  1  0  0  0  0
 20 21  2  0  0  0  0
 20 22  1  0  0  0  0
 17 18  1  0  0  0  0
 17 19  2  0  0  0  0
 14 15  1  0  0  0  0
 14 16  1  0  0  0  0
 14 17  1  0  0  0  0
 11 12  1  0  0  0  0
 11 13  1  0  0  0  0
 11 14  1  0  0  0  0
  9 10  1  0  0  0  0
  9 11  1  0  0  0  0
  9 20  1  0  0  0  0
  7  8  1  0  0  0  0
  7  9  1  0  0  0  0
 24 25  1  0  0  0  0
 24 26  1  0  0  0  0
 24 27  1  0  0  0  0
 22 23  1  0  0  0  0
 22 24  1  0  0  0  0
M  CHG  1  18  -1
M  END
$$$$
default_name
  -OEChem-01062215323D

 27 26  0     1  0  0  0  0  0999 V2000
   -3.2406   -3.5400    1.2326 H   0  0  0  0  0  0  0  0  0  0  0  0
   -3.1436   -2.6190    0.6606 C   0  0  0  0  0  0  0  0  0  0  0  0
   -3.8786   -1.8920    0.9996 H   0  0  0  0  0  0  0  0  0  0  0  0
   -3.2846   -2.8280   -0.3984 H   0  0  0  0  0  0  0  0  0  0  0  0
   -1.7586   -2.0580    0.8686 C   0  0  0  0  0  0  0  0  0  0  0  0
   -0.9666   -2.6340    1.6026 O   0  0  0  0  0  0  0  0  0  0  0  0
   -1.4866   -0.9220    0.2366 N   0  0  0  0  0  0  0  0  0  0  0  0
   -2.2166   -0.4790   -0.2994 H   0  0  0  0  0  0  0  0  0  0  0  0
   -0.1956   -0.2250    0.2596 C   0  0  1  0  0  0  0  0  0  0  0  0
    0.5170   -0.7852   -0.3465 H   0  0  0  0  0  0  0  0  0  0  0  0
   -0.3609    1.1663   -0.3842 C   0  0  0  0  0  0  0  0  0  0  0  0
   -1.1855    1.6737    0.1189 H   0  0  0  0  0  0  0  0  0  0  0  0
    0.5491    1.7469   -0.2257 H   0  0  0  0  0  0  0  0  0  0  0  0
   -0.6683    1.1113   -1.8902 C   0  0  0  0  0  0  0  0  0  0  0  0
    0.1490    0.5988   -2.4032 H   0  0  0  0  0  0  0  0  0  0  0  0
   -1.5781    0.5224   -2.0332 H   0  0  0  0  0  0  0  0  0  0  0  0
   -0.8569    2.4969   -2.5255 C   0  0  0  0  0  0  0  0  0  0  0  0
   -0.8812    3.4970   -1.7733 O   0  5  0  0  0  0  0  0  0  0  0  0
   -0.9504    2.5342   -3.7725 O   0  0  0  0  0  0  0  0  0  0  0  0
    0.3671   -0.1635    1.6950 C   0  0  0  0  0  0  0  0  0  0  0  0
    1.1144   -1.0494    2.1151 O   0  0  0  0  0  0  0  0  0  0  0  0
    0.0304    0.8948    2.4436 N   0  0  0  0  0  0  0  0  0  0  0  0
   -0.6282    1.5516    2.0519 H   0  0  0  0  0  0  0  0  0  0  0  0
    0.4627    1.0933    3.8246 C   0  0  0  0  0  0  0  0  0  0  0  0
    1.5465    0.9831    3.8906 H   0  0  0  0  0  0  0  0  0  0  0  0
    0.1757    2.0880    4.1686 H   0  0  0  0  0  0  0  0  0  0  0  0
   -0.0051    0.3408    4.4624 H   0  0  0  0  0  0  0  0  0  0  0  0
  5  6  2  0  0  0  0
  5  7  1  0  0  0  0
  2  3  1  0  0  0  0
  2  4  1  0  0  0  0
  2  5  1  0  0  0  0
  1  2  1  0  0  0  0
 20 21  2  0  0  0  0
 20 22  1  0  0  0  0
 17 18  1  0  0  0  0
 17 19  2  0  0  0  0
 14 15  1  0  0  0  0
 14 16  1  0  0  0  0
 14 17  1  0  0  0  0
 11 12  1  0  0  0  0
 11 13  1  0  0  0  0
 11 14  1  0  0  0  0
  9 10  1  0  0  0  0
  9 11  1  0  0  0  0
  9 20  1  0  0  0  0
  7  8  1  0  0  0  0
  7  9  1  0  0  0  0
 24 25  1  0  0  0  0
 24 26  1  0  0  0  0
 24 27  1  0  0  0  0
 22 23  1  0  0  0  0
 22 24  1  0  0  0  0
M  CHG  1  18  -1
M  END
$$$$
default_name
  -OEChem-01062215323D

 27 26  0     1  0  0  0  0  0999 V2000
   -3.2406   -3.5400    1.2326 H   0  0  0  0  0  0  0  0  0  0  0  0
   -3.1436   -2.6190    0.6606 C   0  0  0  0  0  0  0  0  0  0  0  0
   -3.8786   -1.8920    0.9996 H   0  0  0  0  0  0  0  0  0  0  0  0
   -3.2846   -2.8280   -0.3984 H   0  0  0  0  0  0  0  0  0  0  0  0
   -1.7586   -2.0580    0.8686 C   0  0  0  0  0  0  0  0  0  0  0  0
   -0.9666   -2.6340    1.6026 O   0  0  0  0  0  0  0  0  0  0  0  0
   -1.4866   -0.9220    0.2366 N   0  0  0  0  0  0  0  0  0  0  0  0
   -2.2166   -0.4790   -0.2994 H   0  0  0  0  0  0  0  0  0  0  0  0
   -0.1956   -0.2250    0.2596 C   0  0  1  0  0  0  0  0  0  0  0  0
    0.5170   -0.7852   -0.3465 H   0  0  0  0  0  0  0  0  0  0  0  0
   -0.3609    1.1663   -0.3842 C   0  0  0  0  0  0  0  0  0  0  0  0
   -1.1855    1.6737    0.1189 H   0  0  0  0  0  0  0  0  0  0  0  0
    0.5491    1.7469   -0.2257 H   0  0  0  0  0  0  0  0  0  0  0  0
   -0.6683    1.1113   -1.8902 C   0  0  0  0  0  0  0  0  0  0  0  0
    0.1490    0.5988   -2.4032 H   0  0  0  0  0  0  0  0  0  0  0  0
   -1.5781    0.5224   -2.0332 H   0  0  0  0  0  0  0  0  0  0  0  0
   -0.8569    2.4969   -2.5255 C   0  0  0  0  0  0  0  0  0  0  0  0
   -0.8812    3.4970   -1.7733 O   0  5  0  0  0  0  0  0  0  0  0  0
   -0.9504    2.5342   -3.7725 O   0  0  0  0  0  0  0  0  0  0  0  0
    0.3671   -0.1635    1.6950 C   0  0  0  0  0  0  0  0  0  0  0  0
    1.3143   -0.8781    2.0294 O   0  0  0  0  0  0  0  0  0  0  0  0
   -0.1976    0.7079    2.5410 N   0  0  0  0  0  0  0  0  0  0  0  0
   -1.0031    1.2199    2.2131 H   0  0  0  0  0  0  0  0  0  0  0  0
    0.2045    0.8753    3.9352 C   0  0  0  0  0  0  0  0  0  0  0  0
    1.2841    1.0242    3.9917 H   0  0  0  0  0  0  0  0  0  0  0  0
   -0.3055    1.7349    4.3724 H   0  0  0  0  0  0  0  0  0  0  0  0
   -0.0548   -0.0238    4.4975 H   0  0  0  0  0  0  0  0  0  0  0  0
  5  6  2  0  0  0  0
  5  7  1  0  0  0  0
  2  3  1  0  0  0  0
  2  4  1  0  0  0  0
  2  5  1  0  0  0  0
  1  2  1  0  0  0  0
 20 21  2  0  0  0  0
 20 22  1  0  0  0  0
 17 18  1  0  0  0  0
 17 19  2  0  0  0  0
 14 15  1  0  0  0  0
 14 16  1  0  0  0  0
 14 17  1  0  0  0  0
 11 12  1  0  0  0  0
 11 13  1  0  0  0  0
 11 14  1  0  0  0  0
  9 10  1  0  0  0  0
  9 11  1  0  0  0  0
  9 20  1  0  0  0  0
  7  8  1  0  0  0  0
  7  9  1  0  0  0  0
 24 25  1  0  0  0  0
 24 26  1  0  0  0  0
 24 27  1  0  0  0  0
 22 23  1  0  0  0  0
 22 24  1  0  0  0  0
M  CHG  1  18  -1
M  END
$$$$
default_name
  -OEChem-01062215323D

 27 26  0     1  0  0  0  0  0999 V2000
   -3.2406   -3.5400    1.2326 H   0  0  0  0  0  0  0  0  0  0  0  0
   -3.1436   -2.6190    0.6606 C   0  0  0  0  0  0  0  0  0  0  0  0
   -3.8786   -1.8920    0.9996 H   0  0  0  0  0  0  0  0  0  0  0  0
   -3.2846   -2.8280   -0.3984 H   0  0  0  0  0  0  0  0  0  0  0  0
   -1.7586   -2.0580    0.8686 C   0  0  0  0  0  0  0  0  0  0  0  0
   -0.9666   -2.6340    1.6026 O   0  0  0  0  0  0  0  0  0  0  0  0
   -1.4866   -0.9220    0.2366 N   0  0  0  0  0  0  0  0  0  0  0  0
   -2.2166   -0.4790   -0.2994 H   0  0  0  0  0  0  0  0  0  0  0  0
   -0.1956   -0.2250    0.2596 C   0  0  1  0  0  0  0  0  0  0  0  0
    0.5170   -0.7852   -0.3465 H   0  0  0  0  0  0  0  0  0  0  0  0
   -0.3609    1.1663   -0.3842 C   0  0  0  0  0  0  0  0  0  0  0  0
   -1.1855    1.6737    0.1189 H   0  0  0  0  0  0  0  0  0  0  0  0
    0.5491    1.7469   -0.2257 H   0  0  0  0  0  0  0  0  0  0  0  0
   -0.6683    1.1113   -1.8902 C   0  0  0  0  0  0  0  0  0  0  0  0
    0.1490    0.5988   -2.4032 H   0  0  0  0  0  0  0  0  0  0  0  0
   -1.5781    0.5224   -2.0332 H   0  0  0  0  0  0  0  0  0  0  0  0
   -0.8569    2.4969   -2.5255 C   0  0  0  0  0  0  0  0  0  0  0  0
   -0.8812    3.4970   -1.7733 O   0  5  0  0  0  0  0  0  0  0  0  0
   -0.9504    2.5342   -3.7725 O   0  0  0  0  0  0  0  0  0  0  0  0
    0.3671   -0.1635    1.6950 C   0  0  0  0  0  0  0  0  0  0  0  0
    1.4654   -0.6563    1.9607 O   0  0  0  0  0  0  0  0  0  0  0  0
   -0.3718    0.4632    2.6198 N   0  0  0  0  0  0  0  0  0  0  0  0
   -1.2837    0.7940    2.3413 H   0  0  0  0  0  0  0  0  0  0  0  0
    0.0087    0.5922    4.0240 C   0  0  0  0  0  0  0  0  0  0  0  0
    1.0219    0.9912    4.0959 H   0  0  0  0  0  0  0  0  0  0  0  0
   -0.6832    1.2587    4.5408 H   0  0  0  0  0  0  0  0  0  0  0  0
   -0.0146   -0.3913    4.4975 H   0  0  0  0  0  0  0  0  0  0  0  0
  5  6  2  0  0  0  0
  5  7  1  0  0  0  0
  2  3  1  0  0  0  0
  2  4  1  0  0  0  0
  2  5  1  0  0  0  0
  1  2  1  0  0  0  0
 20 21  2  0  0  0  0
 20 22  1  0  0  0  0
 17 18  1  0  0  0  0
 17 19  2  0  0  0  0
 14 15  1  0  0  0  0
 14 16  1  0  0  0  0
 14 17  1  0  0  0  0
 11 12  1  0  0  0  0
 11 13  1  0  0  0  0
 11 14  1  0  0  0  0
  9 10  1  0  0  0  0
  9 11  1  0  0  0  0
  9 20  1  0  0  0  0
  7  8  1  0  0  0  0
  7  9  1  0  0  0  0
 24 25  1  0  0  0  0
 24 26  1  0  0  0  0
 24 27  1  0  0  0  0
 22 23  1  0  0  0  0
 22 24  1  0  0  0  0
M  CHG  1  18  -1
M  END
$$$$
default_name
  -OEChem-01062215323D

 27 26  0     1  0  0  0  0  0999 V2000
   -3.2406   -3.5400    1.2326 H   0  0  0  0  0  0  0  0  0  0  0  0
   -3.1436   -2.6190    0.6606 C   0  0  0  0  0  0  0  0  0  0  0  0
   -3.8786   -1.8920    0.9996 H   0  0  0  0  0  0  0  0  0  0  0  0
   -3.2846   -2.8280   -0.3984 H   0  0  0  0  0  0  0  0  0  0  0  0
   -1.7586   -2.0580    0.8686 C   0  0  0  0  0  0  0  0  0  0  0  0
   -0.9666   -2.6340    1.6026 O   0  0  0  0  0  0  0  0  0  0  0  0
   -1.4866   -0.9220    0.2366 N   0  0  0  0  0  0  0  0  0  0  0  0
   -2.2166   -0.4790   -0.2994 H   0  0  0  0  0  0  0  0  0  0  0  0
   -0.1956   -0.2250    0.2596 C   0  0  1  0  0  0  0  0  0  0  0  0
    0.5170   -0.7852   -0.3465 H   0  0  0  0  0  0  0  0  0  0  0  0
   -0.3609    1.1663   -0.3842 C   0  0  0  0  0  0  0  0  0  0  0  0
   -1.1855    1.6737    0.1189 H   0  0  0  0  0  0  0  0  0  0  0  0
    0.5491    1.7469   -0.2257 H   0  0  0  0  0  0  0  0  0  0  0  0
   -0.6683    1.1113   -1.8902 C   0  0  0  0  0  0  0  0  0  0  0  0
    0.1490    0.5988   -2.4032 H   0  0  0  0  0  0  0  0  0  0  0  0
   -1.5781    0.5224   -2.0332 H   0  0  0  0  0  0  0  0  0  0  0  0
   -0.8569    2.4969   -2.5255 C   0  0  0  0  0  0  0  0  0  0  0  0
   -0.8812    3.4970   -1.7733 O   0  5  0  0  0  0  0  0  0  0  0  0
   -0.9504    2.5342   -3.7725 O   0  0  0  0  0  0  0  0  0  0  0  0
    0.3671   -0.1635    1.6950 C   0  0  0  0  0  0  0  0  0  0  0  0
    1.5571   -0.3993    1.9137 O   0  0  0  0  0  0  0  0  0  0  0  0
   -0.4803    0.1775    2.6745 N   0  0  0  0  0  0  0  0  0  0  0  0
   -1.4509    0.3029    2.4279 H   0  0  0  0  0  0  0  0  0  0  0  0
   -0.1113    0.2631    4.0852 C   0  0  0  0  0  0  0  0  0  0  0  0
    0.7776    0.8863    4.1961 H   0  0  0  0  0  0  0  0  0  0  0  0
   -0.9317    0.6919    4.6625 H   0  0  0  0  0  0  0  0  0  0  0  0
    0.1127   -0.7366    4.4623 H   0  0  0  0  0  0  0  0  0  0  0  0
  5  6  2  0  0  0  0
  5  7  1  0  0  0  0
  2  3  1  0  0  0  0
  2  4  1  0  0  0  0
  2  5  1  0  0  0  0
  1  2  1  0  0  0  0
 20 21  2  0  0  0  0
 20 22  1  0  0  0  0
 17 18  1  0  0  0  0
 17 19  2  0  0  0  0
 14 15  1  0  0  0  0
 14 16  1  0  0  0  0
 14 17  1  0  0  0  0
 11 12  1  0  0  0  0
 11 13  1  0  0  0  0
 11 14  1  0  0  0  0
  9 10  1  0  0  0  0
  9 11  1  0  0  0  0
  9 20  1  0  0  0  0
  7  8  1  0  0  0  0
  7  9  1  0  0  0  0
 24 25  1  0  0  0  0
 24 26  1  0  0  0  0
 24 27  1  0  0  0  0
 22 23  1  0  0  0  0
 22 24  1  0  0  0  0
M  CHG  1  18  -1
M  END
$$$$
default_name
  -OEChem-01062215323D

 27 26  0     1  0  0  0  0  0999 V2000
   -3.2406   -3.5400    1.2326 H   0  0  0  0  0  0  0  0  0  0  0  0
   -3.1436   -2.6190    0.6606 C   0  0  0  0  0  0  0  0  0  0  0  0
   -3.8786   -1.8920    0.9996 H   0  0  0  0  0  0  0  0  0  0  0  0
   -3.2846   -2.8280   -0.3984 H   0  0  0  0  0  0  0  0  0  0  0  0
   -1.7586   -2.0580    0.8686 C   0  0  0  0  0  0  0  0  0  0  0  0
   -0.9666   -2.6340    1.6026 O   0  0  0  0  0  0  0  0  0  0  0  0
   -1.4866   -0.9220    0.2366 N   0  0  0  0  0  0  0  0  0  0  0  0
   -2.2166   -0.4790   -0.2994 H   0  0  0  0  0  0  0  0  0  0  0  0
   -0.1956   -0.2250    0.2596 C   0  0  1  0  0  0  0  0  0  0  0  0
    0.5170   -0.7852   -0.3465 H   0  0  0  0  0  0  0  0  0  0  0  0
   -0.3609    1.1663   -0.3842 C   0  0  0  0  0  0  0  0  0  0  0  0
   -1.1855    1.6737    0.1189 H   0  0  0  0  0  0  0  0  0  0  0  0
    0.5491    1.7469   -0.2257 H   0  0  0  0  0  0  0  0  0  0  0  0
   -0.6683    1.1113   -1.8902 C   0  0  0  0  0  0  0  0  0  0  0  0
    0.1490    0.5988   -2.4032 H   0  0  0  0  0  0  0  0  0  0  0  0
   -1.5781    0.5224   -2.0332 H   0  0  0  0  0  0  0  0  0  0  0  0
   -0.8569    2.4969   -2.5255 C   0  0  0  0  0  0  0  0  0  0  0  0
   -0.8812    3.4970   -1.7733 O   0  5  0  0  0  0  0  0  0  0  0  0
   -0.9504    2.5342   -3.7725 O   0  0  0  0  0  0  0  0  0  0  0  0
    0.3671   -0.1635    1.6950 C   0  0  0  0  0  0  0  0  0  0  0  0
    1.5834   -0.1246    1.8916 O   0  0  0  0  0  0  0  0  0  0  0  0
   -0.5158   -0.1298    2.7016 N   0  0  0  0  0  0  0  0  0  0  0  0
   -1.4932   -0.2198    2.4669 H   0  0  0  0  0  0  0  0  0  0  0  0
   -0.1474   -0.0894    4.1144 C   0  0  0  0  0  0  0  0  0  0  0  0
    0.5679    0.7168    4.2856 H   0  0  0  0  0  0  0  0  0  0  0  0
   -1.0339    0.0731    4.7291 H   0  0  0  0  0  0  0  0  0  0  0  0
    0.3185   -1.0362    4.3945 H   0  0  0  0  0  0  0  0  0  0  0  0
  5  6  2  0  0  0  0
  5  7  1  0  0  0  0
  2  3  1  0  0  0  0
  2  4  1  0  0  0  0
  2  5  1  0  0  0  0
  1  2  1  0  0  0  0
 20 21  2  0  0  0  0
 20 22  1  0  0  0  0
 17 18  1  0  0  0  0
 17 19  2  0  0  0  0
 14 15  1  0  0  0  0
 14 16  1  0  0  0  0
 14 17  1  0  0  0  0
 11 12  1  0  0  0  0
 11 13  1  0  0  0  0
 11 14  1  0  0  0  0
  9 10  1  0  0  0  0
  9 11  1  0  0  0  0
  9 20  1  0  0  0  0
  7  8  1  0  0  0  0
  7  9  1  0  0  0  0
 24 25  1  0  0  0  0
 24 26  1  0  0  0  0
 24 27  1  0  0  0  0
 22 23  1  0  0  0  0
 22 24  1  0  0  0  0
M  CHG  1  18  -1
M  END
$$$$
default_name
  -OEChem-01062215323D

 27 26  0     1  0  0  0  0  0999 V2000
   -3.2406   -3.5400    1.2326 H   0  0  0  0  0  0  0  0  0  0  0  0
   -3.1436   -2.6190    0.6606 C   0  0  0  0  0  0  0  0  0  0  0  0
   -3.8786   -1.8920    0.9996 H   0  0  0  0  0  0  0  0  0  0  0  0
   -3.2846   -2.8280   -0.3984 H   0  0  0  0  0  0  0  0  0  0  0  0
   -1.7586   -2.0580    0.8686 C   0  0  0  0  0  0  0  0  0  0  0  0
   -0.9666   -2.6340    1.6026 O   0  0  0  0  0  0  0  0  0  0  0  0
   -1.4866   -0.9220    0.2366 N   0  0  0  0  0  0  0  0  0  0  0  0
   -2.2166   -0.4790   -0.2994 H   0  0  0  0  0  0  0  0  0  0  0  0
   -0.1956   -0.2250    0.2596 C   0  0  1  0  0  0  0  0  0  0  0  0
    0.5170   -0.7852   -0.3465 H   0  0  0  0  0  0  0  0  0  0  0  0
   -0.3609    1.1663   -0.3842 C   0  0  0  0  0  0  0  0  0  0  0  0
   -1.1855    1.6737    0.1189 H   0  0  0  0  0  0  0  0  0  0  0  0
    0.5491    1.7469   -0.2257 H   0  0  0  0  0  0  0  0  0  0  0  0
   -0.6683    1.1113   -1.8902 C   0  0  0  0  0  0  0  0  0  0  0  0
    0.1490    0.5988   -2.4032 H   0  0  0  0  0  0  0  0  0  0  0  0
   -1.5781    0.5224   -2.0332 H   0  0  0  0  0  0  0  0  0  0  0  0
   -0.8569    2.4969   -2.5255 C   0  0  0  0  0  0  0  0  0  0  0  0
   -0.8812    3.4970   -1.7733 O   0  5  0  0  0  0  0  0  0  0  0  0
   -0.9504    2.5342   -3.7725 O   0  0  0  0  0  0  0  0  0  0  0  0
    0.3671   -0.1635    1.6950 C   0  0  0  0  0  0  0  0  0  0  0  0
    1.5424    0.1493    1.8960 O   0  0  0  0  0  0  0  0  0  0  0  0
   -0.4758   -0.4377    2.6991 N   0  0  0  0  0  0  0  0  0  0  0  0
   -1.4079   -0.7386    2.4556 H   0  0  0  0  0  0  0  0  0  0  0  0
   -0.0971   -0.4414    4.1098 C   0  0  0  0  0  0  0  0  0  0  0  0
    0.4072    0.4940    4.3581 H   0  0  0  0  0  0  0  0  0  0  0  0
   -0.9830   -0.5555    4.7361 H   0  0  0  0  0  0  0  0  0  0  0  0
    0.5886   -1.2696    4.2986 H   0  0  0  0  0  0  0  0  0  0  0  0
  5  6  2  0  0  0  0
  5  7  1  0  0  0  0
  2  3  1  0  0  0  0
  2  4  1  0  0  0  0
  2  5  1  0  0  0  0
  1  2  1  0  0  0  0
 20 21  2  0  0  0  0
 20 22  1  0  0  0  0
 17 18  1  0  0  0  0
 17 19  2  0  0  0  0
 14 15  1  0  0  0  0
 14 16  1  0  0  0  0
 14 17  1  0  0  0  0
 11 12  1  0  0  0  0
 11 13  1  0  0  0  0
 11 14  1  0  0  0  0
  9 10  1  0  0  0  0
  9 11  1  0  0  0  0
  9 20  1  0  0  0  0
  7  8  1  0  0  0  0
  7  9  1  0  0  0  0
 24 25  1  0  0  0  0
 24 26  1  0  0  0  0
 24 27  1  0  0  0  0
 22 23  1  0  0  0  0
 22 24  1  0  0  0  0
M  CHG  1  18  -1
M  END
$$$$
default_name
  -OEChem-01062215323D

 27 26  0     1  0  0  0  0  0999 V2000
   -3.2406   -3.5400    1.2326 H   0  0  0  0  0  0  0  0  0  0  0  0
   -3.1436   -2.6190    0.6606 C   0  0  0  0  0  0  0  0  0  0  0  0
   -3.8786   -1.8920    0.9996 H   0  0  0  0  0  0  0  0  0  0  0  0
   -3.2846   -2.8280   -0.3984 H   0  0  0  0  0  0  0  0  0  0  0  0
   -1.7586   -2.0580    0.8686 C   0  0  0  0  0  0  0  0  0  0  0  0
   -0.9666   -2.6340    1.6026 O   0  0  0  0  0  0  0  0  0  0  0  0
   -1.4866   -0.9220    0.2366 N   0  0  0  0  0  0  0  0  0  0  0  0
   -2.2166   -0.4790   -0.2994 H   0  0  0  0  0  0  0  0  0  0  0  0
   -0.1956   -0.2250    0.2596 C   0  0  1  0  0  0  0  0  0  0  0  0
    0.5170   -0.7852   -0.3465 H   0  0  0  0  0  0  0  0  0  0  0  0
   -0.3609    1.1663   -0.3842 C   0  0  0  0  0  0  0  0  0  0  0  0
   -1.1855    1.6737    0.1189 H   0  0  0  0  0  0  0  0  0  0  0  0
    0.5491    1.7469   -0.2257 H   0  0  0  0  0  0  0  0  0  0  0  0
   -0.6683    1.1113   -1.8902 C   0  0  0  0  0  0  0  0  0  0  0  0
    0.1490    0.5988   -2.4032 H   0  0  0  0  0  0  0  0  0  0  0  0
   -1.5781    0.5224   -2.0332 H   0  0  0  0  0  0  0  0  0  0  0  0
   -0.8569    2.4969   -2.5255 C   0  0  0  0  0  0  0  0  0  0  0  0
   -0.8812    3.4970   -1.7733 O   0  5  0  0  0  0  0  0  0  0  0  0
   -0.9504    2.5342   -3.7725 O   0  0  0  0  0  0  0  0  0  0  0  0
    0.3671   -0.1635    1.6950 C   0  0  0  0  0  0  0  0  0  0  0  0
    1.4369    0.4035    1.9264 O   0  0  0  0  0  0  0  0  0  0  0  0
   -0.3631   -0.7252    2.6673 N   0  0  0  0  0  0  0  0  0  0  0  0
   -1.2006   -1.2181    2.3949 H   0  0  0  0  0  0  0  0  0  0  0  0
    0.0362   -0.7688    4.0716 C   0  0  0  0  0  0  0  0  0  0  0  0
    0.3062    0.2334    4.4089 H   0  0  0  0  0  0  0  0  0  0  0  0
   -0.7824   -1.1511    4.6830 H   0  0  0  0  0  0  0  0  0  0  0  0
    0.9048   -1.4210    4.1812 H   0  0  0  0  0  0  0  0  0  0  0  0
  5  6  2  0  0  0  0
  5  7  1  0  0  0  0
  2  3  1  0  0  0  0
  2  4  1  0  0  0  0
  2  5  1  0  0  0  0
  1  2  1  0  0  0  0
 20 21  2  0  0  0  0
 20 22  1  0  0  0  0
 17 18  1  0  0  0  0
 17 19  2  0  0  0  0
 14 15  1  0  0  0  0
 14 16  1  0  0  0  0
 14 17  1  0  0  0  0
 11 12  1  0  0  0  0
 11 13  1  0  0  0  0
 11 14  1  0  0  0  0
  9 10  1  0  0  0  0
  9 11  1  0  0  0  0
  9 20  1  0  0  0  0
  7  8  1  0  0  0  0
  7  9  1  0  0  0  0
 24 25  1  0  0  0  0
 24 26  1  0  0  0  0
 24 27  1  0  0  0  0
 22 23  1  0  0  0  0
 22 24  1  0  0  0  0
M  CHG  1  18  -1
M  END
$$$$
default_name
  -OEChem-01062215323D

 27 26  0     1  0  0  0  0  0999 V2000
   -3.2406   -3.5400    1.2326 H   0  0  0  0  0  0  0  0  0  0  0  0
   -3.1436   -2.6190    0.6606 C   0  0  0  0  0  0  0  0  0  0  0  0
   -3.8786   -1.8920    0.9996 H   0  0  0  0  0  0  0  0  0  0  0  0
   -3.2846   -2.8280   -0.3984 H   0  0  0  0  0  0  0  0  0  0  0  0
   -1.7586   -2.0580    0.8686 C   0  0  0  0  0  0  0  0  0  0  0  0
   -0.9666   -2.6340    1.6026 O   0  0  0  0  0  0  0  0  0  0  0  0
   -1.4866   -0.9220    0.2366 N   0  0  0  0  0  0  0  0  0  0  0  0
   -2.2166   -0.4790   -0.2994 H   0  0  0  0  0  0  0  0  0  0  0  0
   -0.1956   -0.2250    0.2596 C   0  0  1  0  0  0  0  0  0  0  0  0
    0.5170   -0.7852   -0.3465 H   0  0  0  0  0  0  0  0  0  0  0  0
   -0.3609    1.1663   -0.3842 C   0  0  0  0  0  0  0  0  0  0  0  0
   -1.1855    1.6737    0.1189 H   0  0  0  0  0  0  0  0  0  0  0  0
    0.5491    1.7469   -0.2257 H   0  0  0  0  0  0  0  0  0  0  0  0
   -0.6683    1.1113   -1.8902 C   0  0  0  0  0  0  0  0  0  0  0  0
    0.1490    0.5988   -2.4032 H   0  0  0  0  0  0  0  0  0  0  0  0
   -1.5781    0.5224   -2.0332 H   0  0  0  0  0  0  0  0  0  0  0  0
   -0.8569    2.4969   -2.5255 C   0  0  0  0  0  0  0  0  0  0  0  0
   -0.8812    3.4970   -1.7733 O   0  5  0  0  0  0  0  0  0  0  0  0
   -0.9504    2.5342   -3.7725 O   0  0  0  0  0  0  0  0  0  0  0  0
    0.3671   -0.1635    1.6950 C   0  0  0  0  0  0  0  0  0  0  0  0
    1.2741    0.6208    1.9809 O   0  0  0  0  0  0  0  0  0  0  0  0
   -0.1853   -0.9728    2.6082 N   0  0  0  0  0  0  0  0  0  0  0  0
   -0.8856   -1.6256    2.2889 H   0  0  0  0  0  0  0  0  0  0  0  0
    0.2434   -1.0493    4.0024 C   0  0  0  0  0  0  0  0  0  0  0  0
    0.2720   -0.0475    4.4343 H   0  0  0  0  0  0  0  0  0  0  0  0
   -0.4458   -1.6731    4.5734 H   0  0  0  0  0  0  0  0  0  0  0  0
    1.2455   -1.4800    4.0502 H   0  0  0  0  0  0  0  0  0  0  0  0
  5  6  2  0  0  0  0
  5  7  1  0  0  0  0
  2  3  1  0  0  0  0
  2  4  1  0  0  0  0
  2  5  1  0  0  0  0
  1  2  1  0  0  0  0
 20 21  2  0  0  0  0
 20 22  1  0  0  0  0
 17 18  1  0  0  0  0
 17 19  2  0  0  0  0
 14 15  1  0  0  0  0
 14 16  1  0  0  0  0
 14 17  1  0  0  0  0
 11 12  1  0  0  0  0
 11 13  1  0  0  0  0
 11 14  1  0  0  0  0
  9 10  1  0  0  0  0
  9 11  1  0  0  0  0
  9 20  1  0  0  0  0
  7  8  1  0  0  0  0
  7  9  1  0  0  0  0
 24 25  1  0  0  0  0
 24 26  1  0  0  0  0
 24 27  1  0  0  0  0
 22 23  1  0  0  0  0
 22 24  1  0  0  0  0
M  CHG  1  18  -1
M  END
$$$$
default_name
  -OEChem-01062215323D

 27 26  0     1  0  0  0  0  0999 V2000
   -3.2406   -3.5400    1.2326 H   0  0  0  0  0  0  0  0  0  0  0  0
   -3.1436   -2.6190    0.6606 C   0  0  0  0  0  0  0  0  0  0  0  0
   -3.8786   -1.8920    0.9996 H   0  0  0  0  0  0  0  0  0  0  0  0
   -3.2846   -2.8280   -0.3984 H   0  0  0  0  0  0  0  0  0  0  0  0
   -1.7586   -2.0580    0.8686 C   0  0  0  0  0  0  0  0  0  0  0  0
   -0.9666   -2.6340    1.6026 O   0  0  0  0  0  0  0  0  0  0  0  0
   -1.4866   -0.9220    0.2366 N   0  0  0  0  0  0  0  0  0  0  0  0
   -2.2166   -0.4790   -0.2994 H   0  0  0  0  0  0  0  0  0  0  0  0
   -0.1956   -0.2250    0.2596 C   0  0  1  0  0  0  0  0  0  0  0  0
    0.5170   -0.7852   -0.3465 H   0  0  0  0  0  0  0  0  0  0  0  0
   -0.3609    1.1663   -0.3842 C   0  0  0  0  0  0  0  0  0  0  0  0
   -1.1855    1.6737    0.1189 H   0  0  0  0  0  0  0  0  0  0  0  0
    0.5491    1.7469   -0.2257 H   0  0  0  0  0  0  0  0  0  0  0  0
   -0.6683    1.1113   -1.8902 C   0  0  0  0  0  0  0  0  0  0  0  0
    0.1490    0.5988   -2.4032 H   0  0  0  0  0  0  0  0  0  0  0  0
   -1.5781    0.5224   -2.0332 H   0  0  0  0  0  0  0  0  0  0  0  0
   -0.8569    2.4969   -2.5255 C   0  0  0  0  0  0  0  0  0  0  0  0
   -0.8812    3.4970   -1.7733 O   0  5  0  0  0  0  0  0  0  0  0  0
   -0.9504    2.5342   -3.7725 O   0  0  0  0  0  0  0  0  0  0  0  0
    0.3671   -0.1635    1.6950 C   0  0  0  0  0  0  0  0  0  0  0  0
    1.0652    0.7863    2.0558 O   0  0  0  0  0  0  0  0  0  0  0  0
    0.0455   -1.1636    2.5259 N   0  0  0  0  0  0  0  0  0  0  0  0
   -0.4843   -1.9334    2.1448 H   0  0  0  0  0  0  0  0  0  0  0  0
    0.5103   -1.2639    3.9069 C   0  0  0  0  0  0  0  0  0  0  0  0
    0.3069   -0.3295    4.4327 H   0  0  0  0  0  0  0  0  0  0  0  0
    0.0039   -2.0859    4.4148 H   0  0  0  0  0  0  0  0  0  0  0  0
    1.5873   -1.4426    3.9146 H   0  0  0  0  0  0  0  0  0  0  0  0
  5  6  2  0  0  0  0
  5  7  1  0  0  0  0
  2  3  1  0  0  0  0
  2  4  1  0  0  0  0
  2  5  1  0  0  0  0
  1  2  1  0  0  0  0
 20 21  2  0  0  0  0
 20 22  1  0  0  0  0
 17 18  1  0  0  0  0
 17 19  2  0  0  0  0
 14 15  1  0  0  0  0
 14 16  1  0  0  0  0
 14 17  1  0  0  0  0
 11 12  1  0  0  0  0
 11 13  1  0  0  0  0
 11 14  1  0  0  0  0
  9 10  1  0  0  0  0
  9 11  1  0  0  0  0
  9 20  1  0  0  0  0
  7  8  1  0  0  0  0
  7  9  1  0  0  0  0
 24 25  1  0  0  0  0
 24 26  1  0  0  0  0
 24 27  1  0  0  0  0
 22 23  1  0  0  0  0
 22 24  1  0  0  0  0
M  CHG  1  18  -1
M  END
$$$$
default_name
  -OEChem-01062215323D

 27 26  0     1  0  0  0  0  0999 V2000
   -3.2406   -3.5400    1.2326 H   0  0  0  0  0  0  0  0  0  0  0  0
   -3.1436   -2.6190    0.6606 C   0  0  0  0  0  0  0  0  0  0  0  0
   -3.8786   -1.8920    0.9996 H   0  0  0  0  0  0  0  0  0  0  0  0
   -3.2846   -2.8280   -0.3984 H   0  0  0  0  0  0  0  0  0  0  0  0
   -1.7586   -2.0580    0.8686 C   0  0  0  0  0  0  0  0  0  0  0  0
   -0.9666   -2.6340    1.6026 O   0  0  0  0  0  0  0  0  0  0  0  0
   -1.4866   -0.9220    0.2366 N   0  0  0  0  0  0  0  0  0  0  0  0
   -2.2166   -0.4790   -0.2994 H   0  0  0  0  0  0  0  0  0  0  0  0
   -0.1956   -0.2250    0.2596 C   0  0  1  0  0  0  0  0  0  0  0  0
    0.5170   -0.7852   -0.3465 H   0  0  0  0  0  0  0  0  0  0  0  0
   -0.3609    1.1663   -0.3842 C   0  0  0  0  0  0  0  0  0  0  0  0
   -1.1855    1.6737    0.1189 H   0  0  0  0  0  0  0  0  0  0  0  0
    0.5491    1.7469   -0.2257 H   0  0  0  0  0  0  0  0  0  0  0  0
   -0.6683    1.1113   -1.8902 C   0  0  0  0  0  0  0  0  0  0  0  0
    0.1490    0.5988   -2.4032 H   0  0  0  0  0  0  0  0  0  0  0  0
   -1.5781    0.5224   -2.0332 H   0  0  0  0  0  0  0  0  0  0  0  0
   -0.8569    2.4969   -2.5255 C   0  0  0  0  0  0  0  0  0  0  0  0
   -0.8812    3.4970   -1.7733 O   0  5  0  0  0  0  0  0  0  0  0  0
   -0.9504    2.5342   -3.7725 O   0  0  0  0  0  0  0  0  0  0  0  0
    0.3671   -0.1635    1.6950 C   0  0  0  0  0  0  0  0  0  0  0  0
    0.8242    0.8888    2.1458 O   0  0  0  0  0  0  0  0  0  0  0  0
    0.3134   -1.2846    2.4260 N   0  0  0  0  0  0  0  0  0  0  0  0
   -0.0240   -2.1205    1.9724 H   0  0  0  0  0  0  0  0  0  0  0  0
    0.8189   -1.3979    3.7917 C   0  0  0  0  0  0  0  0  0  0  0  0
    0.4084   -0.5933    4.4042 H   0  0  0  0  0  0  0  0  0  0  0  0
    0.5360   -2.3614    4.2180 H   0  0  0  0  0  0  0  0  0  0  0  0
    1.9072   -1.3113    3.7836 H   0  0  0  0  0  0  0  0  0  0  0  0
  5  6  2  0  0  0  0
  5  7  1  0  0  0  0
  2  3  1  0  0  0  0
  2  4  1  0  0  0  0
  2  5  1  0  0  0  0
  1  2  1  0  0  0  0
 20 21  2  0  0  0  0
 20 22  1  0  0  0  0
 17 18  1  0  0  0  0
 17 19  2  0  0  0  0
 14 15  1  0  0  0  0
 14 16  1  0  0  0  0
 14 17  1  0  0  0  0
 11 12  1  0  0  0  0
 11 13  1  0  0  0  0
 11 14  1  0  0  0  0
  9 10  1  0  0  0  0
  9 11  1  0  0  0  0
  9 20  1  0  0  0  0
  7  8  1  0  0  0  0
  7  9  1  0  0  0  0
 24 25  1  0  0  0  0
 24 26  1  0  0  0  0
 24 27  1  0  0  0  0
 22 23  1  0  0  0  0
 22 24  1  0  0  0  0
M  CHG  1  18  -1
M  END
$$$$
default_name
  -OEChem-01062215323D

 27 26  0     1  0  0  0  0  0999 V2000
   -3.2406   -3.5400    1.2326 H   0  0  0  0  0  0  0  0  0  0  0  0
   -3.1436   -2.6190    0.6606 C   0  0  0  0  0  0  0  0  0  0  0  0
   -3.8786   -1.8920    0.9996 H   0  0  0  0  0  0  0  0  0  0  0  0
   -3.2846   -2.8280   -0.3984 H   0  0  0  0  0  0  0  0  0  0  0  0
   -1.7586   -2.0580    0.8686 C   0  0  0  0  0  0  0  0  0  0  0  0
   -0.9666   -2.6340    1.6026 O   0  0  0  0  0  0  0  0  0  0  0  0
   -1.4866   -0.9220    0.2366 N   0  0  0  0  0  0  0  0  0  0  0  0
   -2.2166   -0.4790   -0.2994 H   0  0  0  0  0  0  0  0  0  0  0  0
   -0.1956   -0.2250    0.2596 C   0  0  1  0  0  0  0  0  0  0  0  0
    0.5170   -0.7852   -0.3465 H   0  0  0  0  0  0  0  0  0  0  0  0
   -0.3609    1.1663   -0.3842 C   0  0  0  0  0  0  0  0  0  0  0  0
   -1.1855    1.6737    0.1189 H   0  0  0  0  0  0  0  0  0  0  0  0
    0.5491    1.7469   -0.2257 H   0  0  0  0  0  0  0  0  0  0  0  0
   -0.6683    1.1113   -1.8902 C   0  0  0  0  0  0  0  0  0  0  0  0
    0.1490    0.5988   -2.4032 H   0  0  0  0  0  0  0  0  0  0  0  0
   -1.5781    0.5224   -2.0332 H   0  0  0  0  0  0  0  0  0  0  0  0
   -0.8569    2.4969   -2.5255 C   0  0  0  0  0  0  0  0  0  0  0  0
   -0.8812    3.4970   -1.7733 O   0  5  0  0  0  0  0  0  0  0  0  0
   -0.9504    2.5342   -3.7725 O   0  0  0  0  0  0  0  0  0  0  0  0
    0.3671   -0.1635    1.6950 C   0  0  0  0  0  0  0  0  0  0  0  0
    0.5677    0.9213    2.2450 O   0  0  0  0  0  0  0  0  0  0  0  0
    0.6004   -1.3274    2.3154 N   0  0  0  0  0  0  0  0  0  0  0  0
    0.4638   -2.1741    1.7835 H   0  0  0  0  0  0  0  0  0  0  0  0
    1.1480   -1.4421    3.6646 C   0  0  0  0  0  0  0  0  0  0  0  0
    0.5698   -0.8210    4.3507 H   0  0  0  0  0  0  0  0  0  0  0  0
    1.1143   -2.4808    3.9965 H   0  0  0  0  0  0  0  0  0  0  0  0
    2.1831   -1.0952    3.6661 H   0  0  0  0  0  0  0  0  0  0  0  0
  5  6  2  0  0  0  0
  5  7  1  0  0  0  0
  2  3  1  0  0  0  0
  2  4  1  0  0  0  0
  2  5  1  0  0  0  0
  1  2  1  0  0  0  0
 20 21  2  0  0  0  0
 20 22  1  0  0  0  0
 17 18  1  0  0  0  0
 17 19  2  0  0  0  0
 14 15  1  0  0  0  0
 14 16  1  0  0  0  0
 14 17  1  0  0  0  0
 11 12  1  0  0  0  0
 11 13  1  0  0  0  0
 11 14  1  0  0  0  0
  9 10  1  0  0  0  0
  9 11  1  0  0  0  0
  9 20  1  0  0  0  0
  7  8  1  0  0  0  0
  7  9  1  0  0  0  0
 24 25  1  0  0  0  0
 24 26  1  0  0  0  0
 24 27  1  0  0  0  0
 22 23  1  0  0  0  0
 22 24  1  0  0  0  0
M  CHG  1  18  -1
M  END
$$$$
default_name
  -OEChem-01062215323D

 27 26  0     1  0  0  0  0  0999 V2000
   -3.2406   -3.5400    1.2326 H   0  0  0  0  0  0  0  0  0  0  0  0
   -3.1436   -2.6190    0.6606 C   0  0  0  0  0  0  0  0  0  0  0  0
   -3.8786   -1.8920    0.9996 H   0  0  0  0  0  0  0  0  0  0  0  0
   -3.2846   -2.8280   -0.3984 H   0  0  0  0  0  0  0  0  0  0  0  0
   -1.7586   -2.0580    0.8686 C   0  0  0  0  0  0  0  0  0  0  0  0
   -0.9666   -2.6340    1.6026 O   0  0  0  0  0  0  0  0  0  0  0  0
   -1.4866   -0.9220    0.2366 N   0  0  0  0  0  0  0  0  0  0  0  0
   -2.2166   -0.4790   -0.2994 H   0  0  0  0  0  0  0  0  0  0  0  0
   -0.1956   -0.2250    0.2596 C   0  0  1  0  0  0  0  0  0  0  0  0
    0.5170   -0.7852   -0.3465 H   0  0  0  0  0  0  0  0  0  0  0  0
   -0.3609    1.1663   -0.3842 C   0  0  0  0  0  0  0  0  0  0  0  0
   -1.1855    1.6737    0.1189 H   0  0  0  0  0  0  0  0  0  0  0  0
    0.5491    1.7469   -0.2257 H   0  0  0  0  0  0  0  0  0  0  0  0
   -0.6683    1.1113   -1.8902 C   0  0  0  0  0  0  0  0  0  0  0  0
    0.1490    0.5988   -2.4032 H   0  0  0  0  0  0  0  0  0  0  0  0
   -1.5781    0.5224   -2.0332 H   0  0  0  0  0  0  0  0  0  0  0  0
   -0.8569    2.4969   -2.5255 C   0  0  0  0  0  0  0  0  0  0  0  0
   -0.8812    3.4970   -1.7733 O   0  5  0  0  0  0  0  0  0  0  0  0
   -0.9504    2.5342   -3.7725 O   0  0  0  0  0  0  0  0  0  0  0  0
    0.3671   -0.1635    1.6950 C   0  0  0  0  0  0  0  0  0  0  0  0
    0.3131    0.8816    2.3465 O   0  0  0  0  0  0  0  0  0  0  0  0
    0.8867   -1.2893    2.2015 N   0  0  0  0  0  0  0  0  0  0  0  0
    0.9460   -2.0906    1.5909 H   0  0  0  0  0  0  0  0  0  0  0  0
    1.4752   -1.3936    3.5343 C   0  0  0  0  0  0  0  0  0  0  0  0
    0.7798   -0.9970    4.2759 H   0  0  0  0  0  0  0  0  0  0  0  0
    1.6993   -2.4360    3.7652 H   0  0  0  0  0  0  0  0  0  0  0  0
    2.3965   -0.8089    3.5702 H   0  0  0  0  0  0  0  0  0  0  0  0
  5  6  2  0  0  0  0
  5  7  1  0  0  0  0
  2  3  1  0  0  0  0
  2  4  1  0  0  0  0
  2  5  1  0  0  0  0
  1  2  1  0  0  0  0
 20 21  2  0  0  0  0
 20 22  1  0  0  0  0
 17 18  1  0  0  0  0
 17 19  2  0  0  0  0
 14 15  1  0  0  0  0
 14 16  1  0  0  0  0
 14 17  1  0  0  0  0
 11 12  1  0  0  0  0
 11 13  1  0  0  0  0
 11 14  1  0  0  0  0
  9 10  1  0  0  0  0
  9 11  1  0  0  0  0
  9 20  1  0  0  0  0
  7  8  1  0  0  0  0
  7  9  1  0  0  0  0
 24 25  1  0  0  0  0
 24 26  1  0  0  0  0
 24 27  1  0  0  0  0
 22 23  1  0  0  0  0
 22 24  1  0  0  0  0
M  CHG  1  18  -1
M  END
$$$$
default_name
  -OEChem-01062215323D

 27 26  0     1  0  0  0  0  0999 V2000
   -3.2406   -3.5400    1.2326 H   0  0  0  0  0  0  0  0  0  0  0  0
   -3.1436   -2.6190    0.6606 C   0  0  0  0  0  0  0  0  0  0  0  0
   -3.8786   -1.8920    0.9996 H   0  0  0  0  0  0  0  0  0  0  0  0
   -3.2846   -2.8280   -0.3984 H   0  0  0  0  0  0  0  0  0  0  0  0
   -1.7586   -2.0580    0.8686 C   0  0  0  0  0  0  0  0  0  0  0  0
   -0.9666   -2.6340    1.6026 O   0  0  0  0  0  0  0  0  0  0  0  0
   -1.4866   -0.9220    0.2366 N   0  0  0  0  0  0  0  0  0  0  0  0
   -2.2166   -0.4790   -0.2994 H   0  0  0  0  0  0  0  0  0  0  0  0
   -0.1956   -0.2250    0.2596 C   0  0  1  0  0  0  0  0  0  0  0  0
    0.5170   -0.7852   -0.3465 H   0  0  0  0  0  0  0  0  0  0  0  0
   -0.3609    1.1663   -0.3842 C   0  0  0  0  0  0  0  0  0  0  0  0
   -1.1855    1.6737    0.1189 H   0  0  0  0  0  0  0  0  0  0  0  0
    0.5491    1.7469   -0.2257 H   0  0  0  0  0  0  0  0  0  0  0  0
   -0.6683    1.1113   -1.8902 C   0  0  0  0  0  0  0  0  0  0  0  0
    0.1490    0.5988   -2.4032 H   0  0  0  0  0  0  0  0  0  0  0  0
   -1.5781    0.5224   -2.0332 H   0  0  0  0  0  0  0  0  0  0  0  0
   -0.8569    2.4969   -2.5255 C   0  0  0  0  0  0  0  0  0  0  0  0
   -0.8812    3.4970   -1.7733 O   0  5  0  0  0  0  0  0  0  0  0  0
   -0.9504    2.5342   -3.7725 O   0  0  0  0  0  0  0  0  0  0  0  0
    0.3671   -0.1635    1.6950 C   0  0  0  0  0  0  0  0  0  0  0  0
    0.0778    0.7724    2.4434 O   0  0  0  0  0  0  0  0  0  0  0  0
    1.1529   -1.1728    2.0922 N   0  0  0  0  0  0  0  0  0  0  0  0
    1.3897   -1.8757    1.4078 H   0  0  0  0  0  0  0  0  0  0  0  0
    1.7783   -1.2557    3.4096 C   0  0  0  0  0  0  0  0  0  0  0  0
    1.0244   -1.1094    4.1849 H   0  0  0  0  0  0  0  0  0  0  0  0
    2.2513   -2.2300    3.5400 H   0  0  0  0  0  0  0  0  0  0  0  0
    2.5326   -0.4719    3.5024 H   0  0  0  0  0  0  0  0  0  0  0  0
  5  6  2  0  0  0  0
  5  7  1  0  0  0  0
  2  3  1  0  0  0  0
  2  4  1  0  0  0  0
  2  5  1  0  0  0  0
  1  2  1  0  0  0  0
 20 21  2  0  0  0  0
 20 22  1  0  0  0  0
 17 18  1  0  0  0  0
 17 19  2  0  0  0  0
 14 15  1  0  0  0  0
 14 16  1  0  0  0  0
 14 17  1  0  0  0  0
 11 12  1  0  0  0  0
 11 13  1  0  0  0  0
 11 14  1  0  0  0  0
  9 10  1  0  0  0  0
  9 11  1  0  0  0  0
  9 20  1  0  0  0  0
  7  8  1  0  0  0  0
  7  9  1  0  0  0  0
 24 25  1  0  0  0  0
 24 26  1  0  0  0  0
 24 27  1  0  0  0  0
 22 23  1  0  0  0  0
 22 24  1  0  0  0  0
M  CHG  1  18  -1
M  END
$$$$
default_name
  -OEChem-01062215323D

 27 26  0     1  0  0  0  0  0999 V2000
   -3.2406   -3.5400    1.2326 H   0  0  0  0  0  0  0  0  0  0  0  0
   -3.1436   -2.6190    0.6606 C   0  0  0  0  0  0  0  0  0  0  0  0
   -3.8786   -1.8920    0.9996 H   0  0  0  0  0  0  0  0  0  0  0  0
   -3.2846   -2.8280   -0.3984 H   0  0  0  0  0  0  0  0  0  0  0  0
   -1.7586   -2.0580    0.8686 C   0  0  0  0  0  0  0  0  0  0  0  0
   -0.9666   -2.6340    1.6026 O   0  0  0  0  0  0  0  0  0  0  0  0
   -1.4866   -0.9220    0.2366 N   0  0  0  0  0  0  0  0  0  0  0  0
   -2.2166   -0.4790   -0.2994 H   0  0  0  0  0  0  0  0  0  0  0  0
   -0.1956   -0.2250    0.2596 C   0  0  1  0  0  0  0  0  0  0  0  0
    0.5170   -0.7852   -0.3465 H   0  0  0  0  0  0  0  0  0  0  0  0
   -0.3609    1.1663   -0.3842 C   0  0  0  0  0  0  0  0  0  0  0  0
   -1.1855    1.6737    0.1189 H   0  0  0  0  0  0  0  0  0  0  0  0
    0.5491    1.7469   -0.2257 H   0  0  0  0  0  0  0  0  0  0  0  0
   -0.6683    1.1113   -1.8902 C   0  0  0  0  0  0  0  0  0  0  0  0
    0.1490    0.5988   -2.4032 H   0  0  0  0  0  0  0  0  0  0  0  0
   -1.5781    0.5224   -2.0332 H   0  0  0  0  0  0  0  0  0  0  0  0
   -0.8569    2.4969   -2.5255 C   0  0  0  0  0  0  0  0  0  0  0  0
   -0.8812    3.4970   -1.7733 O   0  5  0  0  0  0  0  0  0  0  0  0
   -0.9504    2.5342   -3.7725 O   0  0  0  0  0  0  0  0  0  0  0  0
    0.3671   -0.1635    1.6950 C   0  0  0  0  0  0  0  0  0  0  0  0
   -0.1221    0.6010    2.5291 O   0  0  0  0  0  0  0  0  0  0  0  0
    1.3809   -0.9859    1.9948 N   0  0  0  0  0  0  0  0  0  0  0  0
    1.7646   -1.5440    1.2466 H   0  0  0  0  0  0  0  0  0  0  0  0
    2.0365   -1.0377    3.2990 C   0  0  0  0  0  0  0  0  0  0  0  0
    1.2867   -1.1505    4.0838 H   0  0  0  0  0  0  0  0  0  0  0  0
    2.7325   -1.8769    3.3363 H   0  0  0  0  0  0  0  0  0  0  0  0
    2.5823   -0.1072    3.4673 H   0  0  0  0  0  0  0  0  0  0  0  0
  5  6  2  0  0  0  0
  5  7  1  0  0  0  0
  2  3  1  0  0  0  0
  2  4  1  0  0  0  0
  2  5  1  0  0  0  0
  1  2  1  0  0  0  0
 20 21  2  0  0  0  0
 20 22  1  0  0  0  0
 17 18  1  0  0  0  0
 17 19  2  0  0  0  0
 14 15  1  0  0  0  0
 14 16  1  0  0  0  0
 14 17  1  0  0  0  0
 11 12  1  0  0  0  0
 11 13  1  0  0  0  0
 11 14  1  0  0  0  0
  9 10  1  0  0  0  0
  9 11  1  0  0  0  0
  9 20  1  0  0  0  0
  7  8  1  0  0  0  0
  7  9  1  0  0  0  0
 24 25  1  0  0  0  0
 24 26  1  0  0  0  0
 24 27  1  0  0  0  0
 22 23  1  0  0  0  0
 22 24  1  0  0  0  0
M  CHG  1  18  -1
M  END
$$$$
default_name
  -OEChem-01062215323D

 27 26  0     1  0  0  0  0  0999 V2000
   -3.2406   -3.5400    1.2326 H   0  0  0  0  0  0  0  0  0  0  0  0
   -3.1436   -2.6190    0.6606 C   0  0  0  0  0  0  0  0  0  0  0  0
   -3.8786   -1.8920    0.9996 H   0  0  0  0  0  0  0  0  0  0  0  0
   -3.2846   -2.8280   -0.3984 H   0  0  0  0  0  0  0  0  0  0  0  0
   -1.7586   -2.0580    0.8686 C   0  0  0  0  0  0  0  0  0  0  0  0
   -0.9666   -2.6340    1.6026 O   0  0  0  0  0  0  0  0  0  0  0  0
   -1.4866   -0.9220    0.2366 N   0  0  0  0  0  0  0  0  0  0  0  0
   -2.2166   -0.4790   -0.2994 H   0  0  0  0  0  0  0  0  0  0  0  0
   -0.1956   -0.2250    0.2596 C   0  0  1  0  0  0  0  0  0  0  0  0
    0.5170   -0.7852   -0.3465 H   0  0  0  0  0  0  0  0  0  0  0  0
   -0.3609    1.1663   -0.3842 C   0  0  0  0  0  0  0  0  0  0  0  0
   -1.1855    1.6737    0.1189 H   0  0  0  0  0  0  0  0  0  0  0  0
    0.5491    1.7469   -0.2257 H   0  0  0  0  0  0  0  0  0  0  0  0
   -0.6683    1.1113   -1.8902 C   0  0  0  0  0  0  0  0  0  0  0  0
    0.1490    0.5988   -2.4032 H   0  0  0  0  0  0  0  0  0  0  0  0
   -1.5781    0.5224   -2.0332 H   0  0  0  0  0  0  0  0  0  0  0  0
   -0.8569    2.4969   -2.5255 C   0  0  0  0  0  0  0  0  0  0  0  0
   -0.8812    3.4970   -1.7733 O   0  5  0  0  0  0  0  0  0  0  0  0
   -0.9504    2.5342   -3.7725 O   0  0  0  0  0  0  0  0  0  0  0  0
    0.3671   -0.1635    1.6950 C   0  0  0  0  0  0  0  0  0  0  0  0
   -0.2731    0.3793    2.5978 O   0  0  0  0  0  0  0  0  0  0  0  0
    1.5551   -0.7412    1.9160 N   0  0  0  0  0  0  0  0  0  0  0  0
    2.0452   -1.1181    1.1183 H   0  0  0  0  0  0  0  0  0  0  0  0
    2.2323   -0.7545    3.2101 C   0  0  0  0  0  0  0  0  0  0  0  0
    1.5489   -1.1175    3.9796 H   0  0  0  0  0  0  0  0  0  0  0  0
    3.1102   -1.4007    3.1678 H   0  0  0  0  0  0  0  0  0  0  0  0
    2.5421    0.2603    3.4674 H   0  0  0  0  0  0  0  0  0  0  0  0
  5  6  2  0  0  0  0
  5  7  1  0  0  0  0
  2  3  1  0  0  0  0
  2  4  1  0  0  0  0
  2  5  1  0  0  0  0
  1  2  1  0  0  0  0
 20 21  2  0  0  0  0
 20 22  1  0  0  0  0
 17 18  1  0  0  0  0
 17 19  2  0  0  0  0
 14 15  1  0  0  0  0
 14 16  1  0  0  0  0
 14 17  1  0  0  0  0
 11 12  1  0  0  0  0
 11 13  1  0  0  0  0
 11 14  1  0  0  0  0
  9 10  1  0  0  0  0
  9 11  1  0  0  0  0
  9 20  1  0  0  0  0
  7  8  1  0  0  0  0
  7  9  1  0  0  0  0
 24 25  1  0  0  0  0
 24 26  1  0  0  0  0
 24 27  1  0  0  0  0
 22 23  1  0  0  0  0
 22 24  1  0  0  0  0
M  CHG  1  18  -1
M  END
$$$$
default_name
  -OEChem-01062215323D

 27 26  0     1  0  0  0  0  0999 V2000
   -3.2406   -3.5400    1.2326 H   0  0  0  0  0  0  0  0  0  0  0  0
   -3.1436   -2.6190    0.6606 C   0  0  0  0  0  0  0  0  0  0  0  0
   -3.8786   -1.8920    0.9996 H   0  0  0  0  0  0  0  0  0  0  0  0
   -3.2846   -2.8280   -0.3984 H   0  0  0  0  0  0  0  0  0  0  0  0
   -1.7586   -2.0580    0.8686 C   0  0  0  0  0  0  0  0  0  0  0  0
   -0.9666   -2.6340    1.6026 O   0  0  0  0  0  0  0  0  0  0  0  0
   -1.4866   -0.9220    0.2366 N   0  0  0  0  0  0  0  0  0  0  0  0
   -2.2166   -0.4790   -0.2994 H   0  0  0  0  0  0  0  0  0  0  0  0
   -0.1956   -0.2250    0.2596 C   0  0  1  0  0  0  0  0  0  0  0  0
    0.5170   -0.7852   -0.3465 H   0  0  0  0  0  0  0  0  0  0  0  0
   -0.3609    1.1663   -0.3842 C   0  0  0  0  0  0  0  0  0  0  0  0
   -1.1855    1.6737    0.1189 H   0  0  0  0  0  0  0  0  0  0  0  0
    0.5491    1.7469   -0.2257 H   0  0  0  0  0  0  0  0  0  0  0  0
   -0.6683    1.1113   -1.8902 C   0  0  0  0  0  0  0  0  0  0  0  0
    0.1490    0.5988   -2.4032 H   0  0  0  0  0  0  0  0  0  0  0  0
   -1.5781    0.5224   -2.0332 H   0  0  0  0  0  0  0  0  0  0  0  0
   -0.8569    2.4969   -2.5255 C   0  0  0  0  0  0  0  0  0  0  0  0
   -0.8812    3.4970   -1.7733 O   0  5  0  0  0  0  0  0  0  0  0  0
   -0.9504    2.5342   -3.7725 O   0  0  0  0  0  0  0  0  0  0  0  0
    0.3671   -0.1635    1.6950 C   0  0  0  0  0  0  0  0  0  0  0  0
   -0.3649    0.1223    2.6448 O   0  0  0  0  0  0  0  0  0  0  0  0
    1.6637   -0.4555    1.8612 N   0  0  0  0  0  0  0  0  0  0  0  0
    2.2124   -0.6270    1.0318 H   0  0  0  0  0  0  0  0  0  0  0  0
    2.3524   -0.4255    3.1489 C   0  0  0  0  0  0  0  0  0  0  0  0
    1.7932   -1.0126    3.8794 H   0  0  0  0  0  0  0  0  0  0  0  0
    3.3587   -0.8339    3.0461 H   0  0  0  0  0  0  0  0  0  0  0  0
    2.4147    0.6056    3.5025 H   0  0  0  0  0  0  0  0  0  0  0  0
  5  6  2  0  0  0  0
  5  7  1  0  0  0  0
  2  3  1  0  0  0  0
  2  4  1  0  0  0  0
  2  5  1  0  0  0  0
  1  2  1  0  0  0  0
 20 21  2  0  0  0  0
 20 22  1  0  0  0  0
 17 18  1  0  0  0  0
 17 19  2  0  0  0  0
 14 15  1  0  0  0  0
 14 16  1  0  0  0  0
 14 17  1  0  0  0  0
 11 12  1  0  0  0  0
 11 13  1  0  0  0  0
 11 14  1  0  0  0  0
  9 10  1  0  0  0  0
  9 11  1  0  0  0  0
  9 20  1  0  0  0  0
  7  8  1  0  0  0  0
  7  9  1  0  0  0  0
 24 25  1  0  0  0  0
 24 26  1  0  0  0  0
 24 27  1  0  0  0  0
 22 23  1  0  0  0  0
 22 24  1  0  0  0  0
M  CHG  1  18  -1
M  END
$$$$
default_name
  -OEChem-01062215323D

 27 26  0     1  0  0  0  0  0999 V2000
   -3.2406   -3.5400    1.2326 H   0  0  0  0  0  0  0  0  0  0  0  0
   -3.1436   -2.6190    0.6606 C   0  0  0  0  0  0  0  0  0  0  0  0
   -3.8786   -1.8920    0.9996 H   0  0  0  0  0  0  0  0  0  0  0  0
   -3.2846   -2.8280   -0.3984 H   0  0  0  0  0  0  0  0  0  0  0  0
   -1.7586   -2.0580    0.8686 C   0  0  0  0  0  0  0  0  0  0  0  0
   -0.9666   -2.6340    1.6026 O   0  0  0  0  0  0  0  0  0  0  0  0
   -1.4866   -0.9220    0.2366 N   0  0  0  0  0  0  0  0  0  0  0  0
   -2.2166   -0.4790   -0.2994 H   0  0  0  0  0  0  0  0  0  0  0  0
   -0.1956   -0.2250    0.2596 C   0  0  1  0  0  0  0  0  0  0  0  0
    0.5170   -0.7852   -0.3465 H   0  0  0  0  0  0  0  0  0  0  0  0
   -0.3609    1.1663   -0.3842 C   0  0  0  0  0  0  0  0  0  0  0  0
   -1.1855    1.6737    0.1189 H   0  0  0  0  0  0  0  0  0  0  0  0
    0.5491    1.7469   -0.2257 H   0  0  0  0  0  0  0  0  0  0  0  0
   -0.6683    1.1113   -1.8902 C   0  0  0  0  0  0  0  0  0  0  0  0
    0.1490    0.5988   -2.4032 H   0  0  0  0  0  0  0  0  0  0  0  0
   -1.5781    0.5224   -2.0332 H   0  0  0  0  0  0  0  0  0  0  0  0
   -0.8569    2.4969   -2.5255 C   0  0  0  0  0  0  0  0  0  0  0  0
   -0.8812    3.4970   -1.7733 O   0  5  0  0  0  0  0  0  0  0  0  0
   -0.9504    2.5342   -3.7725 O   0  0  0  0  0  0  0  0  0  0  0  0
    0.3671   -0.1635    1.6950 C   0  0  0  0  0  0  0  0  0  0  0  0
   -0.3912   -0.1524    2.6669 O   0  0  0  0  0  0  0  0  0  0  0  0
    1.6991   -0.1482    1.8342 N   0  0  0  0  0  0  0  0  0  0  0  0
    2.2547   -0.1043    0.9928 H   0  0  0  0  0  0  0  0  0  0  0  0
    2.3885   -0.0730    3.1197 C   0  0  0  0  0  0  0  0  0  0  0  0
    2.0029   -0.8431    3.7899 H   0  0  0  0  0  0  0  0  0  0  0  0
    3.4610   -0.2152    2.9795 H   0  0  0  0  0  0  0  0  0  0  0  0
    2.2090    0.9051    3.5703 H   0  0  0  0  0  0  0  0  0  0  0  0
  5  6  2  0  0  0  0
  5  7  1  0  0  0  0
  2  3  1  0  0  0  0
  2  4  1  0  0  0  0
  2  5  1  0  0  0  0
  1  2  1  0  0  0  0
 20 21  2  0  0  0  0
 20 22  1  0  0  0  0
 17 18  1  0  0  0  0
 17 19  2  0  0  0  0
 14 15  1  0  0  0  0
 14 16  1  0  0  0  0
 14 17  1  0  0  0  0
 11 12  1  0  0  0  0
 11 13  1  0  0  0  0
 11 14  1  0  0  0  0
  9 10  1  0  0  0  0
  9 11  1  0  0  0  0
  9 20  1  0  0  0  0
  7  8  1  0  0  0  0
  7  9  1  0  0  0  0
 24 25  1  0  0  0  0
 24 26  1  0  0  0  0
 24 27  1  0  0  0  0
 22 23  1  0  0  0  0
 22 24  1  0  0  0  0
M  CHG  1  18  -1
M  END
$$$$
default_name
  -OEChem-01062215323D

 27 26  0     1  0  0  0  0  0999 V2000
   -3.2406   -3.5400    1.2326 H   0  0  0  0  0  0  0  0  0  0  0  0
   -3.1436   -2.6190    0.6606 C   0  0  0  0  0  0  0  0  0  0  0  0
   -3.8786   -1.8920    0.9996 H   0  0  0  0  0  0  0  0  0  0  0  0
   -3.2846   -2.8280   -0.3984 H   0  0  0  0  0  0  0  0  0  0  0  0
   -1.7586   -2.0580    0.8686 C   0  0  0  0  0  0  0  0  0  0  0  0
   -0.9666   -2.6340    1.6026 O   0  0  0  0  0  0  0  0  0  0  0  0
   -1.4866   -0.9220    0.2366 N   0  0  0  0  0  0  0  0  0  0  0  0
   -2.2166   -0.4790   -0.2994 H   0  0  0  0  0  0  0  0  0  0  0  0
   -0.1956   -0.2250    0.2596 C   0  0  1  0  0  0  0  0  0  0  0  0
    0.5170   -0.7852   -0.3465 H   0  0  0  0  0  0  0  0  0  0  0  0
   -0.3609    1.1663   -0.3842 C   0  0  0  0  0  0  0  0  0  0  0  0
   -1.1855    1.6737    0.1189 H   0  0  0  0  0  0  0  0  0  0  0  0
    0.5491    1.7469   -0.2257 H   0  0  0  0  0  0  0  0  0  0  0  0
   -0.6683    1.1113   -1.8902 C   0  0  0  0  0  0  0  0  0  0  0  0
    0.1490    0.5988   -2.4032 H   0  0  0  0  0  0  0  0  0  0  0  0
   -1.5781    0.5224   -2.0332 H   0  0  0  0  0  0  0  0  0  0  0  0
   -0.8569    2.4969   -2.5255 C   0  0  0  0  0  0  0  0  0  0  0  0
   -0.8812    3.4970   -1.7733 O   0  5  0  0  0  0  0  0  0  0  0  0
   -0.9504    2.5342   -3.7725 O   0  0  0  0  0  0  0  0  0  0  0  0
    0.3671   -0.1635    1.6950 C   0  0  0  0  0  0  0  0  0  0  0  0
   -0.3502   -0.4263    2.6625 O   0  0  0  0  0  0  0  0  0  0  0  0
    1.6592    0.1597    1.8366 N   0  0  0  0  0  0  0  0  0  0  0  0
    2.1693    0.4145    1.0040 H   0  0  0  0  0  0  0  0  0  0  0  0
    2.3382    0.2790    3.1243 C   0  0  0  0  0  0  0  0  0  0  0  0
    2.1637   -0.6204    3.7173 H   0  0  0  0  0  0  0  0  0  0  0  0
    3.4101    0.4134    2.9725 H   0  0  0  0  0  0  0  0  0  0  0  0
    1.9388    1.1385    3.6662 H   0  0  0  0  0  0  0  0  0  0  0  0
  5  6  2  0  0  0  0
  5  7  1  0  0  0  0
  2  3  1  0  0  0  0
  2  4  1  0  0  0  0
  2  5  1  0  0  0  0
  1  2  1  0  0  0  0
 20 21  2  0  0  0  0
 20 22  1  0  0  0  0
 17 18  1  0  0  0  0
 17 19  2  0  0  0  0
 14 15  1  0  0  0  0
 14 16  1  0  0  0  0
 14 17  1  0  0  0  0
 11 12  1  0  0  0  0
 11 13  1  0  0  0  0
 11 14  1  0  0  0  0
  9 10  1  0  0  0  0
  9 11  1  0  0  0  0
  9 20  1  0  0  0  0
  7  8  1  0  0  0  0
  7  9  1  0  0  0  0
 24 25  1  0  0  0  0
 24 26  1  0  0  0  0
 24 27  1  0  0  0  0
 22 23  1  0  0  0  0
 22 24  1  0  0  0  0
M  CHG  1  18  -1
M  END
$$$$
default_name
  -OEChem-01062215323D

 27 26  0     1  0  0  0  0  0999 V2000
   -3.2406   -3.5400    1.2326 H   0  0  0  0  0  0  0  0  0  0  0  0
   -3.1436   -2.6190    0.6606 C   0  0  0  0  0  0  0  0  0  0  0  0
   -3.8786   -1.8920    0.9996 H   0  0  0  0  0  0  0  0  0  0  0  0
   -3.2846   -2.8280   -0.3984 H   0  0  0  0  0  0  0  0  0  0  0  0
   -1.7586   -2.0580    0.8686 C   0  0  0  0  0  0  0  0  0  0  0  0
   -0.9666   -2.6340    1.6026 O   0  0  0  0  0  0  0  0  0  0  0  0
   -1.4866   -0.9220    0.2366 N   0  0  0  0  0  0  0  0  0  0  0  0
   -2.2166   -0.4790   -0.2994 H   0  0  0  0  0  0  0  0  0  0  0  0
   -0.1956   -0.2250    0.2596 C   0  0  1  0  0  0  0  0  0  0  0  0
    0.4310   -0.6195   -0.5408 H   0  0  0  0  0  0  0  0  0  0  0  0
   -0.4249    1.2730   -0.0248 C   0  0  0  0  0  0  0  0  0  0  0  0
   -1.1759    1.6375    0.6778 H   0  0  0  0  0  0  0  0  0  0  0  0
    0.5035    1.8189    0.1492 H   0  0  0  0  0  0  0  0  0  0  0  0
   -0.9164    1.5564   -1.4544 C   0  0  0  0  0  0  0  0  0  0  0  0
   -0.1739    1.1890   -2.1669 H   0  0  0  0  0  0  0  0  0  0  0  0
   -1.8429    0.9989   -1.6154 H   0  0  0  0  0  0  0  0  0  0  0  0
   -1.1678    3.0465   -1.7291 C   0  0  0  0  0  0  0  0  0  0  0  0
   -1.0889    3.8486   -0.7716 O   0  5  0  0  0  0  0  0  0  0  0  0
   -1.4141    3.3648   -2.9137 O   0  0  0  0  0  0  0  0  0  0  0  0
    0.5405   -0.4814    1.5912 C   0  0  0  0  0  0  0  0  0  0  0  0
    0.0438   -1.2090    2.4534 O   0  0  0  0  0  0  0  0  0  0  0  0
    1.7384    0.0954    1.7536 N   0  0  0  0  0  0  0  0  0  0  0  0
    2.0562    0.7208    1.0281 H   0  0  0  0  0  0  0  0  0  0  0  0
    2.5531   -0.0319    2.9592 C   0  0  0  0  0  0  0  0  0  0  0  0
    2.6648   -1.0861    3.2186 H   0  0  0  0  0  0  0  0  0  0  0  0
    3.5372    0.4096    2.7957 H   0  0  0  0  0  0  0  0  0  0  0  0
    2.0590    0.4816    3.7863 H   0  0  0  0  0  0  0  0  0  0  0  0
  5  6  2  0  0  0  0
  5  7  1  0  0  0  0
  2  3  1  0  0  0  0
  2  4  1  0  0  0  0
  2  5  1  0  0  0  0
  1  2  1  0  0  0  0
 20 21  2  0  0  0  0
 20 22  1  0  0  0  0
 17 18  1  0  0  0  0
 17 19  2  0  0  0  0
 14 15  1  0  0  0  0
 14 16  1  0  0  0  0
 14 17  1  0  0  0  0
 11 12  1  0  0  0  0
 11 13  1  0  0  0  0
 11 14  1  0  0  0  0
  9 10  1  0  0  0  0
  9 11  1  0  0  0  0
  9 20  1  0  0  0  0
  7  8  1  0  0  0  0
  7  9  1  0  0  0  0
 24 25  1  0  0  0  0
 24 26  1  0  0  0  0
 24 27  1  0  0  0  0
 22 23  1  0  0  0  0
 22 24  1  0  0  0  0
M  CHG  1  18  -1
M  END
$$$$
default_name
  -OEChem-01062215323D

 27 26  0     1  0  0  0  0  0999 V2000
   -3.2406   -3.5400    1.2326 H   0  0  0  0  0  0  0  0  0  0  0  0
   -3.1436   -2.6190    0.6606 C   0  0  0  0  0  0  0  0  0  0  0  0
   -3.8786   -1.8920    0.9996 H   0  0  0  0  0  0  0  0  0  0  0  0
   -3.2846   -2.8280   -0.3984 H   0  0  0  0  0  0  0  0  0  0  0  0
   -1.7586   -2.0580    0.8686 C   0  0  0  0  0  0  0  0  0  0  0  0
   -0.9666   -2.6340    1.6026 O   0  0  0  0  0  0  0  0  0  0  0  0
   -1.4866   -0.9220    0.2366 N   0  0  0  0  0  0  0  0  0  0  0  0
   -2.2166   -0.4790   -0.2994 H   0  0  0  0  0  0  0  0  0  0  0  0
   -0.1956   -0.2250    0.2596 C   0  0  1  0  0  0  0  0  0  0  0  0
    0.4310   -0.6195   -0.5408 H   0  0  0  0  0  0  0  0  0  0  0  0
   -0.4249    1.2730   -0.0248 C   0  0  0  0  0  0  0  0  0  0  0  0
   -1.1759    1.6375    0.6778 H   0  0  0  0  0  0  0  0  0  0  0  0
    0.5035    1.8189    0.1492 H   0  0  0  0  0  0  0  0  0  0  0  0
   -0.9164    1.5564   -1.4544 C   0  0  0  0  0  0  0  0  0  0  0  0
   -0.1739    1.1890   -2.1669 H   0  0  0  0  0  0  0  0  0  0  0  0
   -1.8429    0.9989   -1.6154 H   0  0  0  0  0  0  0  0  0  0  0  0
   -1.1678    3.0465   -1.7291 C   0  0  0  0  0  0  0  0  0  0  0  0
   -1.0889    3.8486   -0.7716 O   0  5  0  0  0  0  0  0  0  0  0  0
   -1.4141    3.3648   -2.9137 O   0  0  0  0  0  0  0  0  0  0  0  0
    0.5405   -0.4814    1.5912 C   0  0  0  0  0  0  0  0  0  0  0  0
    0.1964   -1.4052    2.3313 O   0  0  0  0  0  0  0  0  0  0  0  0
    1.5718    0.3198    1.8889 N   0  0  0  0  0  0  0  0  0  0  0  0
    1.7609    1.0877    1.2620 H   0  0  0  0  0  0  0  0  0  0  0  0
    2.3589    0.2217    3.1154 C   0  0  0  0  0  0  0  0  0  0  0  0
    2.6984   -0.8062    3.2538 H   0  0  0  0  0  0  0  0  0  0  0  0
    3.2220    0.8867    3.0618 H   0  0  0  0  0  0  0  0  0  0  0  0
    1.7377    0.5030    3.9680 H   0  0  0  0  0  0  0  0  0  0  0  0
  5  6  2  0  0  0  0
  5  7  1  0  0  0  0
  2  3  1  0  0  0  0
  2  4  1  0  0  0  0
  2  5  1  0  0  0  0
  1  2  1  0  0  0  0
 20 21  2  0  0  0  0
 20 22  1  0  0  0  0
 17 18  1  0  0  0  0
 17 19  2  0  0  0  0
 14 15  1  0  0  0  0
 14 16  1  0  0  0  0
 14 17  1  0  0  0  0
 11 12  1  0  0  0  0
 11 13  1  0  0  0  0
 11 14  1  0  0  0  0
  9 10  1  0  0  0  0
  9 11  1  0  0  0  0
  9 20  1  0  0  0  0
  7  8  1  0  0  0  0
  7  9  1  0  0  0  0
 24 25  1  0  0  0  0
 24 26  1  0  0  0  0
 24 27  1  0  0  0  0
 22 23  1  0  0  0  0
 22 24  1  0  0  0  0
M  CHG  1  18  -1
M  END
$$$$
default_name
  -OEChem-01062215323D

 27 26  0     1  0  0  0  0  0999 V2000
   -3.2406   -3.5400    1.2326 H   0  0  0  0  0  0  0  0  0  0  0  0
   -3.1436   -2.6190    0.6606 C   0  0  0  0  0  0  0  0  0  0  0  0
   -3.8786   -1.8920    0.9996 H   0  0  0  0  0  0  0  0  0  0  0  0
   -3.2846   -2.8280   -0.3984 H   0  0  0  0  0  0  0  0  0  0  0  0
   -1.7586   -2.0580    0.8686 C   0  0  0  0  0  0  0  0  0  0  0  0
   -0.9666   -2.6340    1.6026 O   0  0  0  0  0  0  0  0  0  0  0  0
   -1.4866   -0.9220    0.2366 N   0  0  0  0  0  0  0  0  0  0  0  0
   -2.2166   -0.4790   -0.2994 H   0  0  0  0  0  0  0  0  0  0  0  0
   -0.1956   -0.2250    0.2596 C   0  0  1  0  0  0  0  0  0  0  0  0
    0.4310   -0.6195   -0.5408 H   0  0  0  0  0  0  0  0  0  0  0  0
   -0.4249    1.2730   -0.0248 C   0  0  0  0  0  0  0  0  0  0  0  0
   -1.1759    1.6375    0.6778 H   0  0  0  0  0  0  0  0  0  0  0  0
    0.5035    1.8189    0.1492 H   0  0  0  0  0  0  0  0  0  0  0  0
   -0.9164    1.5564   -1.4544 C   0  0  0  0  0  0  0  0  0  0  0  0
   -0.1739    1.1890   -2.1669 H   0  0  0  0  0  0  0  0  0  0  0  0
   -1.8429    0.9989   -1.6154 H   0  0  0  0  0  0  0  0  0  0  0  0
   -1.1678    3.0465   -1.7291 C   0  0  0  0  0  0  0  0  0  0  0  0
   -1.0889    3.8486   -0.7716 O   0  5  0  0  0  0  0  0  0  0  0  0
   -1.4141    3.3648   -2.9137 O   0  0  0  0  0  0  0  0  0  0  0  0
    0.5405   -0.4814    1.5912 C   0  0  0  0  0  0  0  0  0  0  0  0
    0.3929   -1.5455    2.1957 O   0  0  0  0  0  0  0  0  0  0  0  0
    1.3549    0.4826    2.0402 N   0  0  0  0  0  0  0  0  0  0  0  0
    1.3836    1.3473    1.5206 H   0  0  0  0  0  0  0  0  0  0  0  0
    2.1080    0.4040    3.2892 C   0  0  0  0  0  0  0  0  0  0  0  0
    2.6669   -0.5326    3.3239 H   0  0  0  0  0  0  0  0  0  0  0  0
    2.7996    1.2444    3.3642 H   0  0  0  0  0  0  0  0  0  0  0  0
    1.4148    0.4295    4.1323 H   0  0  0  0  0  0  0  0  0  0  0  0
  5  6  2  0  0  0  0
  5  7  1  0  0  0  0
  2  3  1  0  0  0  0
  2  4  1  0  0  0  0
  2  5  1  0  0  0  0
  1  2  1  0  0  0  0
 20 21  2  0  0  0  0
 20 22  1  0  0  0  0
 17 18  1  0  0  0  0
 17 19  2  0  0  0  0
 14 15  1  0  0  0  0
 14 16  1  0  0  0  0
 14 17  1  0  0  0  0
 11 12  1  0  0  0  0
 11 13  1  0  0  0  0
 11 14  1  0  0  0  0
  9 10  1  0  0  0  0
  9 11  1  0  0  0  0
  9 20  1  0  0  0  0
  7  8  1  0  0  0  0
  7  9  1  0  0  0  0
 24 25  1  0  0  0  0
 24 26  1  0  0  0  0
 24 27  1  0  0  0  0
 22 23  1  0  0  0  0
 22 24  1  0  0  0  0
M  CHG  1  18  -1
M  END
$$$$
default_name
  -OEChem-01062215323D

 27 26  0     1  0  0  0  0  0999 V2000
   -3.2406   -3.5400    1.2326 H   0  0  0  0  0  0  0  0  0  0  0  0
   -3.1436   -2.6190    0.6606 C   0  0  0  0  0  0  0  0  0  0  0  0
   -3.8786   -1.8920    0.9996 H   0  0  0  0  0  0  0  0  0  0  0  0
   -3.2846   -2.8280   -0.3984 H   0  0  0  0  0  0  0  0  0  0  0  0
   -1.7586   -2.0580    0.8686 C   0  0  0  0  0  0  0  0  0  0  0  0
   -0.9666   -2.6340    1.6026 O   0  0  0  0  0  0  0  0  0  0  0  0
   -1.4866   -0.9220    0.2366 N   0  0  0  0  0  0  0  0  0  0  0  0
   -2.2166   -0.4790   -0.2994 H   0  0  0  0  0  0  0  0  0  0  0  0
   -0.1956   -0.2250    0.2596 C   0  0  1  0  0  0  0  0  0  0  0  0
    0.4310   -0.6195   -0.5408 H   0  0  0  0  0  0  0  0  0  0  0  0
   -0.4249    1.2730   -0.0248 C   0  0  0  0  0  0  0  0  0  0  0  0
   -1.1759    1.6375    0.6778 H   0  0  0  0  0  0  0  0  0  0  0  0
    0.5035    1.8189    0.1492 H   0  0  0  0  0  0  0  0  0  0  0  0
   -0.9164    1.5564   -1.4544 C   0  0  0  0  0  0  0  0  0  0  0  0
   -0.1739    1.1890   -2.1669 H   0  0  0  0  0  0  0  0  0  0  0  0
   -1.8429    0.9989   -1.6154 H   0  0  0  0  0  0  0  0  0  0  0  0
   -1.1678    3.0465   -1.7291 C   0  0  0  0  0  0  0  0  0  0  0  0
   -1.0889    3.8486   -0.7716 O   0  5  0  0  0  0  0  0  0  0  0  0
   -1.4141    3.3648   -2.9137 O   0  0  0  0  0  0  0  0  0  0  0  0
    0.5405   -0.4814    1.5912 C   0  0  0  0  0  0  0  0  0  0  0  0
    0.6198   -1.6204    2.0558 O   0  0  0  0  0  0  0  0  0  0  0  0
    1.1026    0.5727    2.1970 N   0  0  0  0  0  0  0  0  0  0  0  0
    0.9500    1.4818    1.7861 H   0  0  0  0  0  0  0  0  0  0  0  0
    1.8174    0.5026    3.4688 C   0  0  0  0  0  0  0  0  0  0  0  0
    2.5723   -0.2841    3.4240 H   0  0  0  0  0  0  0  0  0  0  0  0
    2.2986    1.4581    3.6822 H   0  0  0  0  0  0  0  0  0  0  0  0
    1.1123    0.2661    4.2681 H   0  0  0  0  0  0  0  0  0  0  0  0
  5  6  2  0  0  0  0
  5  7  1  0  0  0  0
  2  3  1  0  0  0  0
  2  4  1  0  0  0  0
  2  5  1  0  0  0  0
  1  2  1  0  0  0  0
 20 21  2  0  0  0  0
 20 22  1  0  0  0  0
 17 18  1  0  0  0  0
 17 19  2  0  0  0  0
 14 15  1  0  0  0  0
 14 16  1  0  0  0  0
 14 17  1  0  0  0  0
 11 12  1  0  0  0  0
 11 13  1  0  0  0  0
 11 14  1  0  0  0  0
  9 10  1  0  0  0  0
  9 11  1  0  0  0  0
  9 20  1  0  0  0  0
  7  8  1  0  0  0  0
  7  9  1  0  0  0  0
 24 25  1  0  0  0  0
 24 26  1  0  0  0  0
 24 27  1  0  0  0  0
 22 23  1  0  0  0  0
 22 24  1  0  0  0  0
M  CHG  1  18  -1
M  END
$$$$
default_name
  -OEChem-01062215323D

 27 26  0     1  0  0  0  0  0999 V2000
   -3.2406   -3.5400    1.2326 H   0  0  0  0  0  0  0  0  0  0  0  0
   -3.1436   -2.6190    0.6606 C   0  0  0  0  0  0  0  0  0  0  0  0
   -3.8786   -1.8920    0.9996 H   0  0  0  0  0  0  0  0  0  0  0  0
   -3.2846   -2.8280   -0.3984 H   0  0  0  0  0  0  0  0  0  0  0  0
   -1.7586   -2.0580    0.8686 C   0  0  0  0  0  0  0  0  0  0  0  0
   -0.9666   -2.6340    1.6026 O   0  0  0  0  0  0  0  0  0  0  0  0
   -1.4866   -0.9220    0.2366 N   0  0  0  0  0  0  0  0  0  0  0  0
   -2.2166   -0.4790   -0.2994 H   0  0  0  0  0  0  0  0  0  0  0  0
   -0.1956   -0.2250    0.2596 C   0  0  1  0  0  0  0  0  0  0  0  0
    0.4310   -0.6195   -0.5408 H   0  0  0  0  0  0  0  0  0  0  0  0
   -0.4249    1.2730   -0.0248 C   0  0  0  0  0  0  0  0  0  0  0  0
   -1.1759    1.6375    0.6778 H   0  0  0  0  0  0  0  0  0  0  0  0
    0.5035    1.8189    0.1492 H   0  0  0  0  0  0  0  0  0  0  0  0
   -0.9164    1.5564   -1.4544 C   0  0  0  0  0  0  0  0  0  0  0  0
   -0.1739    1.1890   -2.1669 H   0  0  0  0  0  0  0  0  0  0  0  0
   -1.8429    0.9989   -1.6154 H   0  0  0  0  0  0  0  0  0  0  0  0
   -1.1678    3.0465   -1.7291 C   0  0  0  0  0  0  0  0  0  0  0  0
   -1.0889    3.8486   -0.7716 O   0  5  0  0  0  0  0  0  0  0  0  0
   -1.4141    3.3648   -2.9137 O   0  0  0  0  0  0  0  0  0  0  0  0
    0.5405   -0.4814    1.5912 C   0  0  0  0  0  0  0  0  0  0  0  0
    0.8618   -1.6248    1.9212 O   0  0  0  0  0  0  0  0  0  0  0  0
    0.8319    0.5841    2.3488 N   0  0  0  0  0  0  0  0  0  0  0  0
    0.4898    1.4821    2.0406 H   0  0  0  0  0  0  0  0  0  0  0  0
    1.5069    0.5107    3.6420 C   0  0  0  0  0  0  0  0  0  0  0  0
    2.4212   -0.0776    3.5473 H   0  0  0  0  0  0  0  0  0  0  0  0
    1.7533    1.5134    3.9943 H   0  0  0  0  0  0  0  0  0  0  0  0
    0.8507    0.0239    4.3661 H   0  0  0  0  0  0  0  0  0  0  0  0
  5  6  2  0  0  0  0
  5  7  1  0  0  0  0
  2  3  1  0  0  0  0
  2  4  1  0  0  0  0
  2  5  1  0  0  0  0
  1  2  1  0  0  0  0
 20 21  2  0  0  0  0
 20 22  1  0  0  0  0
 17 18  1  0  0  0  0
 17 19  2  0  0  0  0
 14 15  1  0  0  0  0
 14 16  1  0  0  0  0
 14 17  1  0  0  0  0
 11 12  1  0  0  0  0
 11 13  1  0  0  0  0
 11 14  1  0  0  0  0
  9 10  1  0  0  0  0
  9 11  1  0  0  0  0
  9 20  1  0  0  0  0
  7  8  1  0  0  0  0
  7  9  1  0  0  0  0
 24 25  1  0  0  0  0
 24 26  1  0  0  0  0
 24 27  1  0  0  0  0
 22 23  1  0  0  0  0
 22 24  1  0  0  0  0
M  CHG  1  18  -1
M  END
$$$$
default_name
  -OEChem-01062215323D

 27 26  0     1  0  0  0  0  0999 V2000
   -3.2406   -3.5400    1.2326 H   0  0  0  0  0  0  0  0  0  0  0  0
   -3.1436   -2.6190    0.6606 C   0  0  0  0  0  0  0  0  0  0  0  0
   -3.8786   -1.8920    0.9996 H   0  0  0  0  0  0  0  0  0  0  0  0
   -3.2846   -2.8280   -0.3984 H   0  0  0  0  0  0  0  0  0  0  0  0
   -1.7586   -2.0580    0.8686 C   0  0  0  0  0  0  0  0  0  0  0  0
   -0.9666   -2.6340    1.6026 O   0  0  0  0  0  0  0  0  0  0  0  0
   -1.4866   -0.9220    0.2366 N   0  0  0  0  0  0  0  0  0  0  0  0
   -2.2166   -0.4790   -0.2994 H   0  0  0  0  0  0  0  0  0  0  0  0
   -0.1956   -0.2250    0.2596 C   0  0  1  0  0  0  0  0  0  0  0  0
    0.4310   -0.6195   -0.5408 H   0  0  0  0  0  0  0  0  0  0  0  0
   -0.4249    1.2730   -0.0248 C   0  0  0  0  0  0  0  0  0  0  0  0
   -1.1759    1.6375    0.6778 H   0  0  0  0  0  0  0  0  0  0  0  0
    0.5035    1.8189    0.1492 H   0  0  0  0  0  0  0  0  0  0  0  0
   -0.9164    1.5564   -1.4544 C   0  0  0  0  0  0  0  0  0  0  0  0
   -0.1739    1.1890   -2.1669 H   0  0  0  0  0  0  0  0  0  0  0  0
   -1.8429    0.9989   -1.6154 H   0  0  0  0  0  0  0  0  0  0  0  0
   -1.1678    3.0465   -1.7291 C   0  0  0  0  0  0  0  0  0  0  0  0
   -1.0889    3.8486   -0.7716 O   0  5  0  0  0  0  0  0  0  0  0  0
   -1.4141    3.3648   -2.9137 O   0  0  0  0  0  0  0  0  0  0  0  0
    0.5405   -0.4814    1.5912 C   0  0  0  0  0  0  0  0  0  0  0  0
    1.1023   -1.5584    1.8011 O   0  0  0  0  0  0  0  0  0  0  0  0
    0.5614    0.5158    2.4852 N   0  0  0  0  0  0  0  0  0  0  0  0
    0.0343    1.3482    2.2666 H   0  0  0  0  0  0  0  0  0  0  0  0
    1.1978    0.4279    3.7969 C   0  0  0  0  0  0  0  0  0  0  0  0
    2.2238    0.0729    3.6855 H   0  0  0  0  0  0  0  0  0  0  0  0
    1.2009    1.4065    4.2791 H   0  0  0  0  0  0  0  0  0  0  0  0
    0.6480   -0.2806    4.4195 H   0  0  0  0  0  0  0  0  0  0  0  0
  5  6  2  0  0  0  0
  5  7  1  0  0  0  0
  2  3  1  0  0  0  0
  2  4  1  0  0  0  0
  2  5  1  0  0  0  0
  1  2  1  0  0  0  0
 20 21  2  0  0  0  0
 20 22  1  0  0  0  0
 17 18  1  0  0  0  0
 17 19  2  0  0  0  0
 14 15  1  0  0  0  0
 14 16  1  0  0  0  0
 14 17  1  0  0  0  0
 11 12  1  0  0  0  0
 11 13  1  0  0  0  0
 11 14  1  0  0  0  0
  9 10  1  0  0  0  0
  9 11  1  0  0  0  0
  9 20  1  0  0  0  0
  7  8  1  0  0  0  0
  7  9  1  0  0  0  0
 24 25  1  0  0  0  0
 24 26  1  0  0  0  0
 24 27  1  0  0  0  0
 22 23  1  0  0  0  0
 22 24  1  0  0  0  0
M  CHG  1  18  -1
M  END
$$$$
default_name
  -OEChem-01062215323D

 27 26  0     1  0  0  0  0  0999 V2000
   -3.2406   -3.5400    1.2326 H   0  0  0  0  0  0  0  0  0  0  0  0
   -3.1436   -2.6190    0.6606 C   0  0  0  0  0  0  0  0  0  0  0  0
   -3.8786   -1.8920    0.9996 H   0  0  0  0  0  0  0  0  0  0  0  0
   -3.2846   -2.8280   -0.3984 H   0  0  0  0  0  0  0  0  0  0  0  0
   -1.7586   -2.0580    0.8686 C   0  0  0  0  0  0  0  0  0  0  0  0
   -0.9666   -2.6340    1.6026 O   0  0  0  0  0  0  0  0  0  0  0  0
   -1.4866   -0.9220    0.2366 N   0  0  0  0  0  0  0  0  0  0  0  0
   -2.2166   -0.4790   -0.2994 H   0  0  0  0  0  0  0  0  0  0  0  0
   -0.1956   -0.2250    0.2596 C   0  0  1  0  0  0  0  0  0  0  0  0
    0.4310   -0.6195   -0.5408 H   0  0  0  0  0  0  0  0  0  0  0  0
   -0.4249    1.2730   -0.0248 C   0  0  0  0  0  0  0  0  0  0  0  0
   -1.1759    1.6375    0.6778 H   0  0  0  0  0  0  0  0  0  0  0  0
    0.5035    1.8189    0.1492 H   0  0  0  0  0  0  0  0  0  0  0  0
   -0.9164    1.5564   -1.4544 C   0  0  0  0  0  0  0  0  0  0  0  0
   -0.1739    1.1890   -2.1669 H   0  0  0  0  0  0  0  0  0  0  0  0
   -1.8429    0.9989   -1.6154 H   0  0  0  0  0  0  0  0  0  0  0  0
   -1.1678    3.0465   -1.7291 C   0  0  0  0  0  0  0  0  0  0  0  0
   -1.0889    3.8486   -0.7716 O   0  5  0  0  0  0  0  0  0  0  0  0
   -1.4141    3.3648   -2.9137 O   0  0  0  0  0  0  0  0  0  0  0  0
    0.5405   -0.4814    1.5912 C   0  0  0  0  0  0  0  0  0  0  0  0
    1.3249   -1.4257    1.7036 O   0  0  0  0  0  0  0  0  0  0  0  0
    0.3096    0.3726    2.5968 N   0  0  0  0  0  0  0  0  0  0  0  0
   -0.3856    1.0891    2.4489 H   0  0  0  0  0  0  0  0  0  0  0  0
    0.9111    0.2597    3.9231 C   0  0  0  0  0  0  0  0  0  0  0  0
    1.9935    0.1572    3.8290 H   0  0  0  0  0  0  0  0  0  0  0  0
    0.6789    1.1446    4.5173 H   0  0  0  0  0  0  0  0  0  0  0  0
    0.5178   -0.6266    4.4249 H   0  0  0  0  0  0  0  0  0  0  0  0
  5  6  2  0  0  0  0
  5  7  1  0  0  0  0
  2  3  1  0  0  0  0
  2  4  1  0  0  0  0
  2  5  1  0  0  0  0
  1  2  1  0  0  0  0
 20 21  2  0  0  0  0
 20 22  1  0  0  0  0
 17 18  1  0  0  0  0
 17 19  2  0  0  0  0
 14 15  1  0  0  0  0
 14 16  1  0  0  0  0
 14 17  1  0  0  0  0
 11 12  1  0  0  0  0
 11 13  1  0  0  0  0
 11 14  1  0  0  0  0
  9 10  1  0  0  0  0
  9 11  1  0  0  0  0
  9 20  1  0  0  0  0
  7  8  1  0  0  0  0
  7  9  1  0  0  0  0
 24 25  1  0  0  0  0
 24 26  1  0  0  0  0
 24 27  1  0  0  0  0
 22 23  1  0  0  0  0
 22 24  1  0  0  0  0
M  CHG  1  18  -1
M  END
$$$$
default_name
  -OEChem-01062215323D

 27 26  0     1  0  0  0  0  0999 V2000
   -3.2406   -3.5400    1.2326 H   0  0  0  0  0  0  0  0  0  0  0  0
   -3.1436   -2.6190    0.6606 C   0  0  0  0  0  0  0  0  0  0  0  0
   -3.8786   -1.8920    0.9996 H   0  0  0  0  0  0  0  0  0  0  0  0
   -3.2846   -2.8280   -0.3984 H   0  0  0  0  0  0  0  0  0  0  0  0
   -1.7586   -2.0580    0.8686 C   0  0  0  0  0  0  0  0  0  0  0  0
   -0.9666   -2.6340    1.6026 O   0  0  0  0  0  0  0  0  0  0  0  0
   -1.4866   -0.9220    0.2366 N   0  0  0  0  0  0  0  0  0  0  0  0
   -2.2166   -0.4790   -0.2994 H   0  0  0  0  0  0  0  0  0  0  0  0
   -0.1956   -0.2250    0.2596 C   0  0  1  0  0  0  0  0  0  0  0  0
    0.4310   -0.6195   -0.5408 H   0  0  0  0  0  0  0  0  0  0  0  0
   -0.4249    1.2730   -0.0248 C   0  0  0  0  0  0  0  0  0  0  0  0
   -1.1759    1.6375    0.6778 H   0  0  0  0  0  0  0  0  0  0  0  0
    0.5035    1.8189    0.1492 H   0  0  0  0  0  0  0  0  0  0  0  0
   -0.9164    1.5564   -1.4544 C   0  0  0  0  0  0  0  0  0  0  0  0
   -0.1739    1.1890   -2.1669 H   0  0  0  0  0  0  0  0  0  0  0  0
   -1.8429    0.9989   -1.6154 H   0  0  0  0  0  0  0  0  0  0  0  0
   -1.1678    3.0465   -1.7291 C   0  0  0  0  0  0  0  0  0  0  0  0
   -1.0889    3.8486   -0.7716 O   0  5  0  0  0  0  0  0  0  0  0  0
   -1.4141    3.3648   -2.9137 O   0  0  0  0  0  0  0  0  0  0  0  0
    0.5405   -0.4814    1.5912 C   0  0  0  0  0  0  0  0  0  0  0  0
    1.5145   -1.2358    1.6353 O   0  0  0  0  0  0  0  0  0  0  0  0
    0.0935    0.1643    2.6762 N   0  0  0  0  0  0  0  0  0  0  0  0
   -0.7411    0.7226    2.5748 H   0  0  0  0  0  0  0  0  0  0  0  0
    0.6662    0.0176    4.0118 C   0  0  0  0  0  0  0  0  0  0  0  0
    1.7461    0.1694    3.9681 H   0  0  0  0  0  0  0  0  0  0  0  0
    0.2229    0.7457    4.6925 H   0  0  0  0  0  0  0  0  0  0  0  0
    0.4692   -0.9905    4.3817 H   0  0  0  0  0  0  0  0  0  0  0  0
  5  6  2  0  0  0  0
  5  7  1  0  0  0  0
  2  3  1  0  0  0  0
  2  4  1  0  0  0  0
  2  5  1  0  0  0  0
  1  2  1  0  0  0  0
 20 21  2  0  0  0  0
 20 22  1  0  0  0  0
 17 18  1  0  0  0  0
 17 19  2  0  0  0  0
 14 15  1  0  0  0  0
 14 16  1  0  0  0  0
 14 17  1  0  0  0  0
 11 12  1  0  0  0  0
 11 13  1  0  0  0  0
 11 14  1  0  0  0  0
  9 10  1  0  0  0  0
  9 11  1  0  0  0  0
  9 20  1  0  0  0  0
  7  8  1  0  0  0  0
  7  9  1  0  0  0  0
 24 25  1  0  0  0  0
 24 26  1  0  0  0  0
 24 27  1  0  0  0  0
 22 23  1  0  0  0  0
 22 24  1  0  0  0  0
M  CHG  1  18  -1
M  END
$$$$
default_name
  -OEChem-01062215323D

 27 26  0     1  0  0  0  0  0999 V2000
   -3.2406   -3.5400    1.2326 H   0  0  0  0  0  0  0  0  0  0  0  0
   -3.1436   -2.6190    0.6606 C   0  0  0  0  0  0  0  0  0  0  0  0
   -3.8786   -1.8920    0.9996 H   0  0  0  0  0  0  0  0  0  0  0  0
   -3.2846   -2.8280   -0.3984 H   0  0  0  0  0  0  0  0  0  0  0  0
   -1.7586   -2.0580    0.8686 C   0  0  0  0  0  0  0  0  0  0  0  0
   -0.9666   -2.6340    1.6026 O   0  0  0  0  0  0  0  0  0  0  0  0
   -1.4866   -0.9220    0.2366 N   0  0  0  0  0  0  0  0  0  0  0  0
   -2.2166   -0.4790   -0.2994 H   0  0  0  0  0  0  0  0  0  0  0  0
   -0.1956   -0.2250    0.2596 C   0  0  1  0  0  0  0  0  0  0  0  0
    0.4310   -0.6195   -0.5408 H   0  0  0  0  0  0  0  0  0  0  0  0
   -0.4249    1.2730   -0.0248 C   0  0  0  0  0  0  0  0  0  0  0  0
   -1.1759    1.6375    0.6778 H   0  0  0  0  0  0  0  0  0  0  0  0
    0.5035    1.8189    0.1492 H   0  0  0  0  0  0  0  0  0  0  0  0
   -0.9164    1.5564   -1.4544 C   0  0  0  0  0  0  0  0  0  0  0  0
   -0.1739    1.1890   -2.1669 H   0  0  0  0  0  0  0  0  0  0  0  0
   -1.8429    0.9989   -1.6154 H   0  0  0  0  0  0  0  0  0  0  0  0
   -1.1678    3.0465   -1.7291 C   0  0  0  0  0  0  0  0  0  0  0  0
   -1.0889    3.8486   -0.7716 O   0  5  0  0  0  0  0  0  0  0  0  0
   -1.4141    3.3648   -2.9137 O   0  0  0  0  0  0  0  0  0  0  0  0
    0.5405   -0.4814    1.5912 C   0  0  0  0  0  0  0  0  0  0  0  0
    1.6581   -1.0015    1.6010 O   0  0  0  0  0  0  0  0  0  0  0  0
   -0.0722   -0.0950    2.7178 N   0  0  0  0  0  0  0  0  0  0  0  0
   -1.0080    0.2737    2.6360 H   0  0  0  0  0  0  0  0  0  0  0  0
    0.4800   -0.2819    4.0571 C   0  0  0  0  0  0  0  0  0  0  0  0
    1.4984    0.1088    4.0933 H   0  0  0  0  0  0  0  0  0  0  0  0
   -0.1360    0.2368    4.7930 H   0  0  0  0  0  0  0  0  0  0  0  0
    0.5053   -1.3476    4.2930 H   0  0  0  0  0  0  0  0  0  0  0  0
  5  6  2  0  0  0  0
  5  7  1  0  0  0  0
  2  3  1  0  0  0  0
  2  4  1  0  0  0  0
  2  5  1  0  0  0  0
  1  2  1  0  0  0  0
 20 21  2  0  0  0  0
 20 22  1  0  0  0  0
 17 18  1  0  0  0  0
 17 19  2  0  0  0  0
 14 15  1  0  0  0  0
 14 16  1  0  0  0  0
 14 17  1  0  0  0  0
 11 12  1  0  0  0  0
 11 13  1  0  0  0  0
 11 14  1  0  0  0  0
  9 10  1  0  0  0  0
  9 11  1  0  0  0  0
  9 20  1  0  0  0  0
  7  8  1  0  0  0  0
  7  9  1  0  0  0  0
 24 25  1  0  0  0  0
 24 26  1  0  0  0  0
 24 27  1  0  0  0  0
 22 23  1  0  0  0  0
 22 24  1  0  0  0  0
M  CHG  1  18  -1
M  END
$$$$
default_name
  -OEChem-01062215323D

 27 26  0     1  0  0  0  0  0999 V2000
   -3.2406   -3.5400    1.2326 H   0  0  0  0  0  0  0  0  0  0  0  0
   -3.1436   -2.6190    0.6606 C   0  0  0  0  0  0  0  0  0  0  0  0
   -3.8786   -1.8920    0.9996 H   0  0  0  0  0  0  0  0  0  0  0  0
   -3.2846   -2.8280   -0.3984 H   0  0  0  0  0  0  0  0  0  0  0  0
   -1.7586   -2.0580    0.8686 C   0  0  0  0  0  0  0  0  0  0  0  0
   -0.9666   -2.6340    1.6026 O   0  0  0  0  0  0  0  0  0  0  0  0
   -1.4866   -0.9220    0.2366 N   0  0  0  0  0  0  0  0  0  0  0  0
   -2.2166   -0.4790   -0.2994 H   0  0  0  0  0  0  0  0  0  0  0  0
   -0.1956   -0.2250    0.2596 C   0  0  1  0  0  0  0  0  0  0  0  0
    0.4310   -0.6195   -0.5408 H   0  0  0  0  0  0  0  0  0  0  0  0
   -0.4249    1.2730   -0.0248 C   0  0  0  0  0  0  0  0  0  0  0  0
   -1.1759    1.6375    0.6778 H   0  0  0  0  0  0  0  0  0  0  0  0
    0.5035    1.8189    0.1492 H   0  0  0  0  0  0  0  0  0  0  0  0
   -0.9164    1.5564   -1.4544 C   0  0  0  0  0  0  0  0  0  0  0  0
   -0.1739    1.1890   -2.1669 H   0  0  0  0  0  0  0  0  0  0  0  0
   -1.8429    0.9989   -1.6154 H   0  0  0  0  0  0  0  0  0  0  0  0
   -1.1678    3.0465   -1.7291 C   0  0  0  0  0  0  0  0  0  0  0  0
   -1.0889    3.8486   -0.7716 O   0  5  0  0  0  0  0  0  0  0  0  0
   -1.4141    3.3648   -2.9137 O   0  0  0  0  0  0  0  0  0  0  0  0
    0.5405   -0.4814    1.5912 C   0  0  0  0  0  0  0  0  0  0  0  0
    1.7460   -0.7389    1.6030 O   0  0  0  0  0  0  0  0  0  0  0  0
   -0.1760   -0.3876    2.7189 N   0  0  0  0  0  0  0  0  0  0  0  0
   -1.1682   -0.2272    2.6281 H   0  0  0  0  0  0  0  0  0  0  0  0
    0.3651   -0.6184    4.0558 C   0  0  0  0  0  0  0  0  0  0  0  0
    1.2673   -0.0206    4.1962 H   0  0  0  0  0  0  0  0  0  0  0  0
   -0.3733   -0.3472    4.8117 H   0  0  0  0  0  0  0  0  0  0  0  0
    0.6238   -1.6734    4.1648 H   0  0  0  0  0  0  0  0  0  0  0  0
  5  6  2  0  0  0  0
  5  7  1  0  0  0  0
  2  3  1  0  0  0  0
  2  4  1  0  0  0  0
  2  5  1  0  0  0  0
  1  2  1  0  0  0  0
 20 21  2  0  0  0  0
 20 22  1  0  0  0  0
 17 18  1  0  0  0  0
 17 19  2  0  0  0  0
 14 15  1  0  0  0  0
 14 16  1  0  0  0  0
 14 17  1  0  0  0  0
 11 12  1  0  0  0  0
 11 13  1  0  0  0  0
 11 14  1  0  0  0  0
  9 10  1  0  0  0  0
  9 11  1  0  0  0  0
  9 20  1  0  0  0  0
  7  8  1  0  0  0  0
  7  9  1  0  0  0  0
 24 25  1  0  0  0  0
 24 26  1  0  0  0  0
 24 27  1  0  0  0  0
 22 23  1  0  0  0  0
 22 24  1  0  0  0  0
M  CHG  1  18  -1
M  END
$$$$
default_name
  -OEChem-01062215323D

 27 26  0     1  0  0  0  0  0999 V2000
   -3.2406   -3.5400    1.2326 H   0  0  0  0  0  0  0  0  0  0  0  0
   -3.1436   -2.6190    0.6606 C   0  0  0  0  0  0  0  0  0  0  0  0
   -3.8786   -1.8920    0.9996 H   0  0  0  0  0  0  0  0  0  0  0  0
   -3.2846   -2.8280   -0.3984 H   0  0  0  0  0  0  0  0  0  0  0  0
   -1.7586   -2.0580    0.8686 C   0  0  0  0  0  0  0  0  0  0  0  0
   -0.9666   -2.6340    1.6026 O   0  0  0  0  0  0  0  0  0  0  0  0
   -1.4866   -0.9220    0.2366 N   0  0  0  0  0  0  0  0  0  0  0  0
   -2.2166   -0.4790   -0.2994 H   0  0  0  0  0  0  0  0  0  0  0  0
   -0.1956   -0.2250    0.2596 C   0  0  1  0  0  0  0  0  0  0  0  0
    0.4310   -0.6195   -0.5408 H   0  0  0  0  0  0  0  0  0  0  0  0
   -0.4249    1.2730   -0.0248 C   0  0  0  0  0  0  0  0  0  0  0  0
   -1.1759    1.6375    0.6778 H   0  0  0  0  0  0  0  0  0  0  0  0
    0.5035    1.8189    0.1492 H   0  0  0  0  0  0  0  0  0  0  0  0
   -0.9164    1.5564   -1.4544 C   0  0  0  0  0  0  0  0  0  0  0  0
   -0.1739    1.1890   -2.1669 H   0  0  0  0  0  0  0  0  0  0  0  0
   -1.8429    0.9989   -1.6154 H   0  0  0  0  0  0  0  0  0  0  0  0
   -1.1678    3.0465   -1.7291 C   0  0  0  0  0  0  0  0  0  0  0  0
   -1.0889    3.8486   -0.7716 O   0  5  0  0  0  0  0  0  0  0  0  0
   -1.4141    3.3648   -2.9137 O   0  0  0  0  0  0  0  0  0  0  0  0
    0.5405   -0.4814    1.5912 C   0  0  0  0  0  0  0  0  0  0  0  0
    1.7722   -0.4659    1.6411 O   0  0  0  0  0  0  0  0  0  0  0  0
   -0.2110   -0.6936    2.6794 N   0  0  0  0  0  0  0  0  0  0  0  0
   -1.2108   -0.7457    2.5518 H   0  0  0  0  0  0  0  0  0  0  0  0
    0.3293   -0.9689    4.0082 C   0  0  0  0  0  0  0  0  0  0  0  0
    1.0685   -0.2099    4.2696 H   0  0  0  0  0  0  0  0  0  0  0  0
   -0.4728   -0.9667    4.7475 H   0  0  0  0  0  0  0  0  0  0  0  0
    0.8166   -1.9459    4.0058 H   0  0  0  0  0  0  0  0  0  0  0  0
  5  6  2  0  0  0  0
  5  7  1  0  0  0  0
  2  3  1  0  0  0  0
  2  4  1  0  0  0  0
  2  5  1  0  0  0  0
  1  2  1  0  0  0  0
 20 21  2  0  0  0  0
 20 22  1  0  0  0  0
 17 18  1  0  0  0  0
 17 19  2  0  0  0  0
 14 15  1  0  0  0  0
 14 16  1  0  0  0  0
 14 17  1  0  0  0  0
 11 12  1  0  0  0  0
 11 13  1  0  0  0  0
 11 14  1  0  0  0  0
  9 10  1  0  0  0  0
  9 11  1  0  0  0  0
  9 20  1  0  0  0  0
  7  8  1  0  0  0  0
  7  9  1  0  0  0  0
 24 25  1  0  0  0  0
 24 26  1  0  0  0  0
 24 27  1  0  0  0  0
 22 23  1  0  0  0  0
 22 24  1  0  0  0  0
M  CHG  1  18  -1
M  END
$$$$
default_name
  -OEChem-01062215323D

 27 26  0     1  0  0  0  0  0999 V2000
   -3.2406   -3.5400    1.2326 H   0  0  0  0  0  0  0  0  0  0  0  0
   -3.1436   -2.6190    0.6606 C   0  0  0  0  0  0  0  0  0  0  0  0
   -3.8786   -1.8920    0.9996 H   0  0  0  0  0  0  0  0  0  0  0  0
   -3.2846   -2.8280   -0.3984 H   0  0  0  0  0  0  0  0  0  0  0  0
   -1.7586   -2.0580    0.8686 C   0  0  0  0  0  0  0  0  0  0  0  0
   -0.9666   -2.6340    1.6026 O   0  0  0  0  0  0  0  0  0  0  0  0
   -1.4866   -0.9220    0.2366 N   0  0  0  0  0  0  0  0  0  0  0  0
   -2.2166   -0.4790   -0.2994 H   0  0  0  0  0  0  0  0  0  0  0  0
   -0.1956   -0.2250    0.2596 C   0  0  1  0  0  0  0  0  0  0  0  0
    0.4310   -0.6195   -0.5408 H   0  0  0  0  0  0  0  0  0  0  0  0
   -0.4249    1.2730   -0.0248 C   0  0  0  0  0  0  0  0  0  0  0  0
   -1.1759    1.6375    0.6778 H   0  0  0  0  0  0  0  0  0  0  0  0
    0.5035    1.8189    0.1492 H   0  0  0  0  0  0  0  0  0  0  0  0
   -0.9164    1.5564   -1.4544 C   0  0  0  0  0  0  0  0  0  0  0  0
   -0.1739    1.1890   -2.1669 H   0  0  0  0  0  0  0  0  0  0  0  0
   -1.8429    0.9989   -1.6154 H   0  0  0  0  0  0  0  0  0  0  0  0
   -1.1678    3.0465   -1.7291 C   0  0  0  0  0  0  0  0  0  0  0  0
   -1.0889    3.8486   -0.7716 O   0  5  0  0  0  0  0  0  0  0  0  0
   -1.4141    3.3648   -2.9137 O   0  0  0  0  0  0  0  0  0  0  0  0
    0.5405   -0.4814    1.5912 C   0  0  0  0  0  0  0  0  0  0  0  0
    1.7348   -0.2010    1.7127 O   0  0  0  0  0  0  0  0  0  0  0  0
   -0.1748   -0.9921    2.6019 N   0  0  0  0  0  0  0  0  0  0  0  0
   -1.1327   -1.2467    2.4122 H   0  0  0  0  0  0  0  0  0  0  0  0
    0.3751   -1.3096    3.9173 C   0  0  0  0  0  0  0  0  0  0  0  0
    0.9157   -0.4462    4.3086 H   0  0  0  0  0  0  0  0  0  0  0  0
   -0.4279   -1.5794    4.6047 H   0  0  0  0  0  0  0  0  0  0  0  0
    1.0704   -2.1464    3.8269 H   0  0  0  0  0  0  0  0  0  0  0  0
  5  6  2  0  0  0  0
  5  7  1  0  0  0  0
  2  3  1  0  0  0  0
  2  4  1  0  0  0  0
  2  5  1  0  0  0  0
  1  2  1  0  0  0  0
 20 21  2  0  0  0  0
 20 22  1  0  0  0  0
 17 18  1  0  0  0  0
 17 19  2  0  0  0  0
 14 15  1  0  0  0  0
 14 16  1  0  0  0  0
 14 17  1  0  0  0  0
 11 12  1  0  0  0  0
 11 13  1  0  0  0  0
 11 14  1  0  0  0  0
  9 10  1  0  0  0  0
  9 11  1  0  0  0  0
  9 20  1  0  0  0  0
  7  8  1  0  0  0  0
  7  9  1  0  0  0  0
 24 25  1  0  0  0  0
 24 26  1  0  0  0  0
 24 27  1  0  0  0  0
 22 23  1  0  0  0  0
 22 24  1  0  0  0  0
M  CHG  1  18  -1
M  END
$$$$
default_name
  -OEChem-01062215323D

 27 26  0     1  0  0  0  0  0999 V2000
   -3.2406   -3.5400    1.2326 H   0  0  0  0  0  0  0  0  0  0  0  0
   -3.1436   -2.6190    0.6606 C   0  0  0  0  0  0  0  0  0  0  0  0
   -3.8786   -1.8920    0.9996 H   0  0  0  0  0  0  0  0  0  0  0  0
   -3.2846   -2.8280   -0.3984 H   0  0  0  0  0  0  0  0  0  0  0  0
   -1.7586   -2.0580    0.8686 C   0  0  0  0  0  0  0  0  0  0  0  0
   -0.9666   -2.6340    1.6026 O   0  0  0  0  0  0  0  0  0  0  0  0
   -1.4866   -0.9220    0.2366 N   0  0  0  0  0  0  0  0  0  0  0  0
   -2.2166   -0.4790   -0.2994 H   0  0  0  0  0  0  0  0  0  0  0  0
   -0.1956   -0.2250    0.2596 C   0  0  1  0  0  0  0  0  0  0  0  0
    0.4310   -0.6195   -0.5408 H   0  0  0  0  0  0  0  0  0  0  0  0
   -0.4249    1.2730   -0.0248 C   0  0  0  0  0  0  0  0  0  0  0  0
   -1.1759    1.6375    0.6778 H   0  0  0  0  0  0  0  0  0  0  0  0
    0.5035    1.8189    0.1492 H   0  0  0  0  0  0  0  0  0  0  0  0
   -0.9164    1.5564   -1.4544 C   0  0  0  0  0  0  0  0  0  0  0  0
   -0.1739    1.1890   -2.1669 H   0  0  0  0  0  0  0  0  0  0  0  0
   -1.8429    0.9989   -1.6154 H   0  0  0  0  0  0  0  0  0  0  0  0
   -1.1678    3.0465   -1.7291 C   0  0  0  0  0  0  0  0  0  0  0  0
   -1.0889    3.8486   -0.7716 O   0  5  0  0  0  0  0  0  0  0  0  0
   -1.4141    3.3648   -2.9137 O   0  0  0  0  0  0  0  0  0  0  0  0
    0.5405   -0.4814    1.5912 C   0  0  0  0  0  0  0  0  0  0  0  0
    1.6365    0.0376    1.8130 O   0  0  0  0  0  0  0  0  0  0  0  0
   -0.0698   -1.2627    2.4917 N   0  0  0  0  0  0  0  0  0  0  0  0
   -0.9395   -1.6960    2.2189 H   0  0  0  0  0  0  0  0  0  0  0  0
    0.4993   -1.6173    3.7894 C   0  0  0  0  0  0  0  0  0  0  0  0
    0.8191   -0.7134    4.3106 H   0  0  0  0  0  0  0  0  0  0  0  0
   -0.2415   -2.1435    4.3931 H   0  0  0  0  0  0  0  0  0  0  0  0
    1.3681   -2.2613    3.6402 H   0  0  0  0  0  0  0  0  0  0  0  0
  5  6  2  0  0  0  0
  5  7  1  0  0  0  0
  2  3  1  0  0  0  0
  2  4  1  0  0  0  0
  2  5  1  0  0  0  0
  1  2  1  0  0  0  0
 20 21  2  0  0  0  0
 20 22  1  0  0  0  0
 17 18  1  0  0  0  0
 17 19  2  0  0  0  0
 14 15  1  0  0  0  0
 14 16  1  0  0  0  0
 14 17  1  0  0  0  0
 11 12  1  0  0  0  0
 11 13  1  0  0  0  0
 11 14  1  0  0  0  0
  9 10  1  0  0  0  0
  9 11  1  0  0  0  0
  9 20  1  0  0  0  0
  7  8  1  0  0  0  0
  7  9  1  0  0  0  0
 24 25  1  0  0  0  0
 24 26  1  0  0  0  0
 24 27  1  0  0  0  0
 22 23  1  0  0  0  0
 22 24  1  0  0  0  0
M  CHG  1  18  -1
M  END
$$$$
default_name
  -OEChem-01062215323D

 27 26  0     1  0  0  0  0  0999 V2000
   -3.2406   -3.5400    1.2326 H   0  0  0  0  0  0  0  0  0  0  0  0
   -3.1436   -2.6190    0.6606 C   0  0  0  0  0  0  0  0  0  0  0  0
   -3.8786   -1.8920    0.9996 H   0  0  0  0  0  0  0  0  0  0  0  0
   -3.2846   -2.8280   -0.3984 H   0  0  0  0  0  0  0  0  0  0  0  0
   -1.7586   -2.0580    0.8686 C   0  0  0  0  0  0  0  0  0  0  0  0
   -0.9666   -2.6340    1.6026 O   0  0  0  0  0  0  0  0  0  0  0  0
   -1.4866   -0.9220    0.2366 N   0  0  0  0  0  0  0  0  0  0  0  0
   -2.2166   -0.4790   -0.2994 H   0  0  0  0  0  0  0  0  0  0  0  0
   -0.1956   -0.2250    0.2596 C   0  0  1  0  0  0  0  0  0  0  0  0
    0.4310   -0.6195   -0.5408 H   0  0  0  0  0  0  0  0  0  0  0  0
   -0.4249    1.2730   -0.0248 C   0  0  0  0  0  0  0  0  0  0  0  0
   -1.1759    1.6375    0.6778 H   0  0  0  0  0  0  0  0  0  0  0  0
    0.5035    1.8189    0.1492 H   0  0  0  0  0  0  0  0  0  0  0  0
   -0.9164    1.5564   -1.4544 C   0  0  0  0  0  0  0  0  0  0  0  0
   -0.1739    1.1890   -2.1669 H   0  0  0  0  0  0  0  0  0  0  0  0
   -1.8429    0.9989   -1.6154 H   0  0  0  0  0  0  0  0  0  0  0  0
   -1.1678    3.0465   -1.7291 C   0  0  0  0  0  0  0  0  0  0  0  0
   -1.0889    3.8486   -0.7716 O   0  5  0  0  0  0  0  0  0  0  0  0
   -1.4141    3.3648   -2.9137 O   0  0  0  0  0  0  0  0  0  0  0  0
    0.5405   -0.4814    1.5912 C   0  0  0  0  0  0  0  0  0  0  0  0
    1.4839    0.2338    1.9351 O   0  0  0  0  0  0  0  0  0  0  0  0
    0.0969   -1.4871    2.3564 N   0  0  0  0  0  0  0  0  0  0  0  0
   -0.6441   -2.0629    1.9850 H   0  0  0  0  0  0  0  0  0  0  0  0
    0.6935   -1.8709    3.6332 C   0  0  0  0  0  0  0  0  0  0  0  0
    0.7855   -0.9933    4.2753 H   0  0  0  0  0  0  0  0  0  0  0  0
    0.0737   -2.6207    4.1270 H   0  0  0  0  0  0  0  0  0  0  0  0
    1.6894   -2.2827    3.4585 H   0  0  0  0  0  0  0  0  0  0  0  0
  5  6  2  0  0  0  0
  5  7  1  0  0  0  0
  2  3  1  0  0  0  0
  2  4  1  0  0  0  0
  2  5  1  0  0  0  0
  1  2  1  0  0  0  0
 20 21  2  0  0  0  0
 20 22  1  0  0  0  0
 17 18  1  0  0  0  0
 17 19  2  0  0  0  0
 14 15  1  0  0  0  0
 14 16  1  0  0  0  0
 14 17  1  0  0  0  0
 11 12  1  0  0  0  0
 11 13  1  0  0  0  0
 11 14  1  0  0  0  0
  9 10  1  0  0  0  0
  9 11  1  0  0  0  0
  9 20  1  0  0  0  0
  7  8  1  0  0  0  0
  7  9  1  0  0  0  0
 24 25  1  0  0  0  0
 24 26  1  0  0  0  0
 24 27  1  0  0  0  0
 22 23  1  0  0  0  0
 22 24  1  0  0  0  0
M  CHG  1  18  -1
M  END
$$$$
default_name
  -OEChem-01062215323D

 27 26  0     1  0  0  0  0  0999 V2000
   -3.2406   -3.5400    1.2326 H   0  0  0  0  0  0  0  0  0  0  0  0
   -3.1436   -2.6190    0.6606 C   0  0  0  0  0  0  0  0  0  0  0  0
   -3.8786   -1.8920    0.9996 H   0  0  0  0  0  0  0  0  0  0  0  0
   -3.2846   -2.8280   -0.3984 H   0  0  0  0  0  0  0  0  0  0  0  0
   -1.7586   -2.0580    0.8686 C   0  0  0  0  0  0  0  0  0  0  0  0
   -0.9666   -2.6340    1.6026 O   0  0  0  0  0  0  0  0  0  0  0  0
   -1.4866   -0.9220    0.2366 N   0  0  0  0  0  0  0  0  0  0  0  0
   -2.2166   -0.4790   -0.2994 H   0  0  0  0  0  0  0  0  0  0  0  0
   -0.1956   -0.2250    0.2596 C   0  0  1  0  0  0  0  0  0  0  0  0
    0.4310   -0.6195   -0.5408 H   0  0  0  0  0  0  0  0  0  0  0  0
   -0.4249    1.2730   -0.0248 C   0  0  0  0  0  0  0  0  0  0  0  0
   -1.1759    1.6375    0.6778 H   0  0  0  0  0  0  0  0  0  0  0  0
    0.5035    1.8189    0.1492 H   0  0  0  0  0  0  0  0  0  0  0  0
   -0.9164    1.5564   -1.4544 C   0  0  0  0  0  0  0  0  0  0  0  0
   -0.1739    1.1890   -2.1669 H   0  0  0  0  0  0  0  0  0  0  0  0
   -1.8429    0.9989   -1.6154 H   0  0  0  0  0  0  0  0  0  0  0  0
   -1.1678    3.0465   -1.7291 C   0  0  0  0  0  0  0  0  0  0  0  0
   -1.0889    3.8486   -0.7716 O   0  5  0  0  0  0  0  0  0  0  0  0
   -1.4141    3.3648   -2.9137 O   0  0  0  0  0  0  0  0  0  0  0  0
    0.5405   -0.4814    1.5912 C   0  0  0  0  0  0  0  0  0  0  0  0
    1.2874    0.3741    2.0707 O   0  0  0  0  0  0  0  0  0  0  0  0
    0.3137   -1.6499    2.2052 N   0  0  0  0  0  0  0  0  0  0  0  0
   -0.2668   -2.3224    1.7265 H   0  0  0  0  0  0  0  0  0  0  0  0
    0.9445   -2.0532    3.4594 C   0  0  0  0  0  0  0  0  0  0  0  0
    0.8170   -1.2668    4.2052 H   0  0  0  0  0  0  0  0  0  0  0  0
    0.4962   -2.9783    3.8246 H   0  0  0  0  0  0  0  0  0  0  0  0
    2.0123   -2.2092    3.2941 H   0  0  0  0  0  0  0  0  0  0  0  0
  5  6  2  0  0  0  0
  5  7  1  0  0  0  0
  2  3  1  0  0  0  0
  2  4  1  0  0  0  0
  2  5  1  0  0  0  0
  1  2  1  0  0  0  0
 20 21  2  0  0  0  0
 20 22  1  0  0  0  0
 17 18  1  0  0  0  0
 17 19  2  0  0  0  0
 14 15  1  0  0  0  0
 14 16  1  0  0  0  0
 14 17  1  0  0  0  0
 11 12  1  0  0  0  0
 11 13  1  0  0  0  0
 11 14  1  0  0  0  0
  9 10  1  0  0  0  0
  9 11  1  0  0  0  0
  9 20  1  0  0  0  0
  7  8  1  0  0  0  0
  7  9  1  0  0  0  0
 24 25  1  0  0  0  0
 24 26  1  0  0  0  0
 24 27  1  0  0  0  0
 22 23  1  0  0  0  0
 22 24  1  0  0  0  0
M  CHG  1  18  -1
M  END
$$$$
default_name
  -OEChem-01062215323D

 27 26  0     1  0  0  0  0  0999 V2000
   -3.2406   -3.5400    1.2326 H   0  0  0  0  0  0  0  0  0  0  0  0
   -3.1436   -2.6190    0.6606 C   0  0  0  0  0  0  0  0  0  0  0  0
   -3.8786   -1.8920    0.9996 H   0  0  0  0  0  0  0  0  0  0  0  0
   -3.2846   -2.8280   -0.3984 H   0  0  0  0  0  0  0  0  0  0  0  0
   -1.7586   -2.0580    0.8686 C   0  0  0  0  0  0  0  0  0  0  0  0
   -0.9666   -2.6340    1.6026 O   0  0  0  0  0  0  0  0  0  0  0  0
   -1.4866   -0.9220    0.2366 N   0  0  0  0  0  0  0  0  0  0  0  0
   -2.2166   -0.4790   -0.2994 H   0  0  0  0  0  0  0  0  0  0  0  0
   -0.1956   -0.2250    0.2596 C   0  0  1  0  0  0  0  0  0  0  0  0
    0.4310   -0.6195   -0.5408 H   0  0  0  0  0  0  0  0  0  0  0  0
   -0.4249    1.2730   -0.0248 C   0  0  0  0  0  0  0  0  0  0  0  0
   -1.1759    1.6375    0.6778 H   0  0  0  0  0  0  0  0  0  0  0  0
    0.5035    1.8189    0.1492 H   0  0  0  0  0  0  0  0  0  0  0  0
   -0.9164    1.5564   -1.4544 C   0  0  0  0  0  0  0  0  0  0  0  0
   -0.1739    1.1890   -2.1669 H   0  0  0  0  0  0  0  0  0  0  0  0
   -1.8429    0.9989   -1.6154 H   0  0  0  0  0  0  0  0  0  0  0  0
   -1.1678    3.0465   -1.7291 C   0  0  0  0  0  0  0  0  0  0  0  0
   -1.0889    3.8486   -0.7716 O   0  5  0  0  0  0  0  0  0  0  0  0
   -1.4141    3.3648   -2.9137 O   0  0  0  0  0  0  0  0  0  0  0  0
    0.5405   -0.4814    1.5912 C   0  0  0  0  0  0  0  0  0  0  0  0
    1.0605    0.4490    2.2106 O   0  0  0  0  0  0  0  0  0  0  0  0
    0.5661   -1.7401    2.0484 N   0  0  0  0  0  0  0  0  0  0  0  0
    0.1667   -2.4570    1.4609 H   0  0  0  0  0  0  0  0  0  0  0  0
    1.2350   -2.1518    3.2798 C   0  0  0  0  0  0  0  0  0  0  0  0
    0.9115   -1.5153    4.1051 H   0  0  0  0  0  0  0  0  0  0  0  0
    0.9971   -3.1920    3.5066 H   0  0  0  0  0  0  0  0  0  0  0  0
    2.3148   -2.0457    3.1583 H   0  0  0  0  0  0  0  0  0  0  0  0
  5  6  2  0  0  0  0
  5  7  1  0  0  0  0
  2  3  1  0  0  0  0
  2  4  1  0  0  0  0
  2  5  1  0  0  0  0
  1  2  1  0  0  0  0
 20 21  2  0  0  0  0
 20 22  1  0  0  0  0
 17 18  1  0  0  0  0
 17 19  2  0  0  0  0
 14 15  1  0  0  0  0
 14 16  1  0  0  0  0
 14 17  1  0  0  0  0
 11 12  1  0  0  0  0
 11 13  1  0  0  0  0
 11 14  1  0  0  0  0
  9 10  1  0  0  0  0
  9 11  1  0  0  0  0
  9 20  1  0  0  0  0
  7  8  1  0  0  0  0
  7  9  1  0  0  0  0
 24 25  1  0  0  0  0
 24 26  1  0  0  0  0
 24 27  1  0  0  0  0
 22 23  1  0  0  0  0
 22 24  1  0  0  0  0
M  CHG  1  18  -1
M  END
$$$$
default_name
  -OEChem-01062215323D

 27 26  0     1  0  0  0  0  0999 V2000
   -3.2406   -3.5400    1.2326 H   0  0  0  0  0  0  0  0  0  0  0  0
   -3.1436   -2.6190    0.6606 C   0  0  0  0  0  0  0  0  0  0  0  0
   -3.8786   -1.8920    0.9996 H   0  0  0  0  0  0  0  0  0  0  0  0
   -3.2846   -2.8280   -0.3984 H   0  0  0  0  0  0  0  0  0  0  0  0
   -1.7586   -2.0580    0.8686 C   0  0  0  0  0  0  0  0  0  0  0  0
   -0.9666   -2.6340    1.6026 O   0  0  0  0  0  0  0  0  0  0  0  0
   -1.4866   -0.9220    0.2366 N   0  0  0  0  0  0  0  0  0  0  0  0
   -2.2166   -0.4790   -0.2994 H   0  0  0  0  0  0  0  0  0  0  0  0
   -0.1956   -0.2250    0.2596 C   0  0  1  0  0  0  0  0  0  0  0  0
    0.4310   -0.6195   -0.5408 H   0  0  0  0  0  0  0  0  0  0  0  0
   -0.4249    1.2730   -0.0248 C   0  0  0  0  0  0  0  0  0  0  0  0
   -1.1759    1.6375    0.6778 H   0  0  0  0  0  0  0  0  0  0  0  0
    0.5035    1.8189    0.1492 H   0  0  0  0  0  0  0  0  0  0  0  0
   -0.9164    1.5564   -1.4544 C   0  0  0  0  0  0  0  0  0  0  0  0
   -0.1739    1.1890   -2.1669 H   0  0  0  0  0  0  0  0  0  0  0  0
   -1.8429    0.9989   -1.6154 H   0  0  0  0  0  0  0  0  0  0  0  0
   -1.1678    3.0465   -1.7291 C   0  0  0  0  0  0  0  0  0  0  0  0
   -1.0889    3.8486   -0.7716 O   0  5  0  0  0  0  0  0  0  0  0  0
   -1.4141    3.3648   -2.9137 O   0  0  0  0  0  0  0  0  0  0  0  0
    0.5405   -0.4814    1.5912 C   0  0  0  0  0  0  0  0  0  0  0  0
    0.8185    0.4534    2.3452 O   0  0  0  0  0  0  0  0  0  0  0  0
    0.8367   -1.7514    1.8966 N   0  0  0  0  0  0  0  0  0  0  0  0
    0.6270   -2.4573    1.2065 H   0  0  0  0  0  0  0  0  0  0  0  0
    1.5455   -2.1599    3.1066 C   0  0  0  0  0  0  0  0  0  0  0  0
    1.0627   -1.7219    3.9818 H   0  0  0  0  0  0  0  0  0  0  0  0
    1.5424   -3.2473    3.1945 H   0  0  0  0  0  0  0  0  0  0  0  0
    2.5764   -1.8035    3.0604 H   0  0  0  0  0  0  0  0  0  0  0  0
  5  6  2  0  0  0  0
  5  7  1  0  0  0  0
  2  3  1  0  0  0  0
  2  4  1  0  0  0  0
  2  5  1  0  0  0  0
  1  2  1  0  0  0  0
 20 21  2  0  0  0  0
 20 22  1  0  0  0  0
 17 18  1  0  0  0  0
 17 19  2  0  0  0  0
 14 15  1  0  0  0  0
 14 16  1  0  0  0  0
 14 17  1  0  0  0  0
 11 12  1  0  0  0  0
 11 13  1  0  0  0  0
 11 14  1  0  0  0  0
  9 10  1  0  0  0  0
  9 11  1  0  0  0  0
  9 20  1  0  0  0  0
  7  8  1  0  0  0  0
  7  9  1  0  0  0  0
 24 25  1  0  0  0  0
 24 26  1  0  0  0  0
 24 27  1  0  0  0  0
 22 23  1  0  0  0  0
 22 24  1  0  0  0  0
M  CHG  1  18  -1
M  END
$$$$
default_name
  -OEChem-01062215323D

 27 26  0     1  0  0  0  0  0999 V2000
   -3.2406   -3.5400    1.2326 H   0  0  0  0  0  0  0  0  0  0  0  0
   -3.1436   -2.6190    0.6606 C   0  0  0  0  0  0  0  0  0  0  0  0
   -3.8786   -1.8920    0.9996 H   0  0  0  0  0  0  0  0  0  0  0  0
   -3.2846   -2.8280   -0.3984 H   0  0  0  0  0  0  0  0  0  0  0  0
   -1.7586   -2.0580    0.8686 C   0  0  0  0  0  0  0  0  0  0  0  0
   -0.9666   -2.6340    1.6026 O   0  0  0  0  0  0  0  0  0  0  0  0
   -1.4866   -0.9220    0.2366 N   0  0  0  0  0  0  0  0  0  0  0  0
   -2.2166   -0.4790   -0.2994 H   0  0  0  0  0  0  0  0  0  0  0  0
   -0.1956   -0.2250    0.2596 C   0  0  1  0  0  0  0  0  0  0  0  0
    0.4310   -0.6195   -0.5408 H   0  0  0  0  0  0  0  0  0  0  0  0
   -0.4249    1.2730   -0.0248 C   0  0  0  0  0  0  0  0  0  0  0  0
   -1.1759    1.6375    0.6778 H   0  0  0  0  0  0  0  0  0  0  0  0
    0.5035    1.8189    0.1492 H   0  0  0  0  0  0  0  0  0  0  0  0
   -0.9164    1.5564   -1.4544 C   0  0  0  0  0  0  0  0  0  0  0  0
   -0.1739    1.1890   -2.1669 H   0  0  0  0  0  0  0  0  0  0  0  0
   -1.8429    0.9989   -1.6154 H   0  0  0  0  0  0  0  0  0  0  0  0
   -1.1678    3.0465   -1.7291 C   0  0  0  0  0  0  0  0  0  0  0  0
   -1.0889    3.8486   -0.7716 O   0  5  0  0  0  0  0  0  0  0  0  0
   -1.4141    3.3648   -2.9137 O   0  0  0  0  0  0  0  0  0  0  0  0
    0.5405   -0.4814    1.5912 C   0  0  0  0  0  0  0  0  0  0  0  0
    0.5780    0.3870    2.4654 O   0  0  0  0  0  0  0  0  0  0  0  0
    1.1072   -1.6831    1.7602 N   0  0  0  0  0  0  0  0  0  0  0  0
    1.0825   -2.3233    0.9804 H   0  0  0  0  0  0  0  0  0  0  0  0
    1.8546   -2.0771    2.9517 C   0  0  0  0  0  0  0  0  0  0  0  0
    1.2601   -1.8724    3.8437 H   0  0  0  0  0  0  0  0  0  0  0  0
    2.0949   -3.1404    2.9097 H   0  0  0  0  0  0  0  0  0  0  0  0
    2.7791   -1.4991    3.0069 H   0  0  0  0  0  0  0  0  0  0  0  0
  5  6  2  0  0  0  0
  5  7  1  0  0  0  0
  2  3  1  0  0  0  0
  2  4  1  0  0  0  0
  2  5  1  0  0  0  0
  1  2  1  0  0  0  0
 20 21  2  0  0  0  0
 20 22  1  0  0  0  0
 17 18  1  0  0  0  0
 17 19  2  0  0  0  0
 14 15  1  0  0  0  0
 14 16  1  0  0  0  0
 14 17  1  0  0  0  0
 11 12  1  0  0  0  0
 11 13  1  0  0  0  0
 11 14  1  0  0  0  0
  9 10  1  0  0  0  0
  9 11  1  0  0  0  0
  9 20  1  0  0  0  0
  7  8  1  0  0  0  0
  7  9  1  0  0  0  0
 24 25  1  0  0  0  0
 24 26  1  0  0  0  0
 24 27  1  0  0  0  0
 22 23  1  0  0  0  0
 22 24  1  0  0  0  0
M  CHG  1  18  -1
M  END
$$$$
default_name
  -OEChem-01062215323D

 27 26  0     1  0  0  0  0  0999 V2000
   -3.2406   -3.5400    1.2326 H   0  0  0  0  0  0  0  0  0  0  0  0
   -3.1436   -2.6190    0.6606 C   0  0  0  0  0  0  0  0  0  0  0  0
   -3.8786   -1.8920    0.9996 H   0  0  0  0  0  0  0  0  0  0  0  0
   -3.2846   -2.8280   -0.3984 H   0  0  0  0  0  0  0  0  0  0  0  0
   -1.7586   -2.0580    0.8686 C   0  0  0  0  0  0  0  0  0  0  0  0
   -0.9666   -2.6340    1.6026 O   0  0  0  0  0  0  0  0  0  0  0  0
   -1.4866   -0.9220    0.2366 N   0  0  0  0  0  0  0  0  0  0  0  0
   -2.2166   -0.4790   -0.2994 H   0  0  0  0  0  0  0  0  0  0  0  0
   -0.1956   -0.2250    0.2596 C   0  0  1  0  0  0  0  0  0  0  0  0
    0.4310   -0.6195   -0.5408 H   0  0  0  0  0  0  0  0  0  0  0  0
   -0.4249    1.2730   -0.0248 C   0  0  0  0  0  0  0  0  0  0  0  0
   -1.1759    1.6375    0.6778 H   0  0  0  0  0  0  0  0  0  0  0  0
    0.5035    1.8189    0.1492 H   0  0  0  0  0  0  0  0  0  0  0  0
   -0.9164    1.5564   -1.4544 C   0  0  0  0  0  0  0  0  0  0  0  0
   -0.1739    1.1890   -2.1669 H   0  0  0  0  0  0  0  0  0  0  0  0
   -1.8429    0.9989   -1.6154 H   0  0  0  0  0  0  0  0  0  0  0  0
   -1.1678    3.0465   -1.7291 C   0  0  0  0  0  0  0  0  0  0  0  0
   -1.0889    3.8486   -0.7716 O   0  5  0  0  0  0  0  0  0  0  0  0
   -1.4141    3.3648   -2.9137 O   0  0  0  0  0  0  0  0  0  0  0  0
    0.5405   -0.4814    1.5912 C   0  0  0  0  0  0  0  0  0  0  0  0
    0.3554    0.2543    2.5629 O   0  0  0  0  0  0  0  0  0  0  0  0
    1.3591   -1.5400    1.6485 N   0  0  0  0  0  0  0  0  0  0  0  0
    1.5024   -2.0643    0.7982 H   0  0  0  0  0  0  0  0  0  0  0  0
    2.1414   -1.9089    2.8255 C   0  0  0  0  0  0  0  0  0  0  0  0
    1.4904   -1.9566    3.7002 H   0  0  0  0  0  0  0  0  0  0  0  0
    2.6169   -2.8785    2.6715 H   0  0  0  0  0  0  0  0  0  0  0  0
    2.9093   -1.1531    3.0016 H   0  0  0  0  0  0  0  0  0  0  0  0
  5  6  2  0  0  0  0
  5  7  1  0  0  0  0
  2  3  1  0  0  0  0
  2  4  1  0  0  0  0
  2  5  1  0  0  0  0
  1  2  1  0  0  0  0
 20 21  2  0  0  0  0
 20 22  1  0  0  0  0
 17 18  1  0  0  0  0
 17 19  2  0  0  0  0
 14 15  1  0  0  0  0
 14 16  1  0  0  0  0
 14 17  1  0  0  0  0
 11 12  1  0  0  0  0
 11 13  1  0  0  0  0
 11 14  1  0  0  0  0
  9 10  1  0  0  0  0
  9 11  1  0  0  0  0
  9 20  1  0  0  0  0
  7  8  1  0  0  0  0
  7  9  1  0  0  0  0
 24 25  1  0  0  0  0
 24 26  1  0  0  0  0
 24 27  1  0  0  0  0
 22 23  1  0  0  0  0
 22 24  1  0  0  0  0
M  CHG  1  18  -1
M  END
$$$$
default_name
  -OEChem-01062215323D

 27 26  0     1  0  0  0  0  0999 V2000
   -3.2406   -3.5400    1.2326 H   0  0  0  0  0  0  0  0  0  0  0  0
   -3.1436   -2.6190    0.6606 C   0  0  0  0  0  0  0  0  0  0  0  0
   -3.8786   -1.8920    0.9996 H   0  0  0  0  0  0  0  0  0  0  0  0
   -3.2846   -2.8280   -0.3984 H   0  0  0  0  0  0  0  0  0  0  0  0
   -1.7586   -2.0580    0.8686 C   0  0  0  0  0  0  0  0  0  0  0  0
   -0.9666   -2.6340    1.6026 O   0  0  0  0  0  0  0  0  0  0  0  0
   -1.4866   -0.9220    0.2366 N   0  0  0  0  0  0  0  0  0  0  0  0
   -2.2166   -0.4790   -0.2994 H   0  0  0  0  0  0  0  0  0  0  0  0
   -0.1956   -0.2250    0.2596 C   0  0  1  0  0  0  0  0  0  0  0  0
    0.4310   -0.6195   -0.5408 H   0  0  0  0  0  0  0  0  0  0  0  0
   -0.4249    1.2730   -0.0248 C   0  0  0  0  0  0  0  0  0  0  0  0
   -1.1759    1.6375    0.6778 H   0  0  0  0  0  0  0  0  0  0  0  0
    0.5035    1.8189    0.1492 H   0  0  0  0  0  0  0  0  0  0  0  0
   -0.9164    1.5564   -1.4544 C   0  0  0  0  0  0  0  0  0  0  0  0
   -0.1739    1.1890   -2.1669 H   0  0  0  0  0  0  0  0  0  0  0  0
   -1.8429    0.9989   -1.6154 H   0  0  0  0  0  0  0  0  0  0  0  0
   -1.1678    3.0465   -1.7291 C   0  0  0  0  0  0  0  0  0  0  0  0
   -1.0889    3.8486   -0.7716 O   0  5  0  0  0  0  0  0  0  0  0  0
   -1.4141    3.3648   -2.9137 O   0  0  0  0  0  0  0  0  0  0  0  0
    0.5405   -0.4814    1.5912 C   0  0  0  0  0  0  0  0  0  0  0  0
    0.1658    0.0644    2.6311 O   0  0  0  0  0  0  0  0  0  0  0  0
    1.5752   -1.3316    1.5692 N   0  0  0  0  0  0  0  0  0  0  0  0
    1.8579   -1.6978    0.6722 H   0  0  0  0  0  0  0  0  0  0  0  0
    2.3862   -1.6668    2.7368 C   0  0  0  0  0  0  0  0  0  0  0  0
    1.7378   -1.9688    3.5610 H   0  0  0  0  0  0  0  0  0  0  0  0
    3.0729   -2.4796    2.4962 H   0  0  0  0  0  0  0  0  0  0  0  0
    2.9579   -0.7892    3.0447 H   0  0  0  0  0  0  0  0  0  0  0  0
  5  6  2  0  0  0  0
  5  7  1  0  0  0  0
  2  3  1  0  0  0  0
  2  4  1  0  0  0  0
  2  5  1  0  0  0  0
  1  2  1  0  0  0  0
 20 21  2  0  0  0  0
 20 22  1  0  0  0  0
 17 18  1  0  0  0  0
 17 19  2  0  0  0  0
 14 15  1  0  0  0  0
 14 16  1  0  0  0  0
 14 17  1  0  0  0  0
 11 12  1  0  0  0  0
 11 13  1  0  0  0  0
 11 14  1  0  0  0  0
  9 10  1  0  0  0  0
  9 11  1  0  0  0  0
  9 20  1  0  0  0  0
  7  8  1  0  0  0  0
  7  9  1  0  0  0  0
 24 25  1  0  0  0  0
 24 26  1  0  0  0  0
 24 27  1  0  0  0  0
 22 23  1  0  0  0  0
 22 24  1  0  0  0  0
M  CHG  1  18  -1
M  END
$$$$
default_name
  -OEChem-01062215323D

 27 26  0     1  0  0  0  0  0999 V2000
   -3.2406   -3.5400    1.2326 H   0  0  0  0  0  0  0  0  0  0  0  0
   -3.1436   -2.6190    0.6606 C   0  0  0  0  0  0  0  0  0  0  0  0
   -3.8786   -1.8920    0.9996 H   0  0  0  0  0  0  0  0  0  0  0  0
   -3.2846   -2.8280   -0.3984 H   0  0  0  0  0  0  0  0  0  0  0  0
   -1.7586   -2.0580    0.8686 C   0  0  0  0  0  0  0  0  0  0  0  0
   -0.9666   -2.6340    1.6026 O   0  0  0  0  0  0  0  0  0  0  0  0
   -1.4866   -0.9220    0.2366 N   0  0  0  0  0  0  0  0  0  0  0  0
   -2.2166   -0.4790   -0.2994 H   0  0  0  0  0  0  0  0  0  0  0  0
   -0.1956   -0.2250    0.2596 C   0  0  1  0  0  0  0  0  0  0  0  0
    0.4310   -0.6195   -0.5408 H   0  0  0  0  0  0  0  0  0  0  0  0
   -0.4249    1.2730   -0.0248 C   0  0  0  0  0  0  0  0  0  0  0  0
   -1.1759    1.6375    0.6778 H   0  0  0  0  0  0  0  0  0  0  0  0
    0.5035    1.8189    0.1492 H   0  0  0  0  0  0  0  0  0  0  0  0
   -0.9164    1.5564   -1.4544 C   0  0  0  0  0  0  0  0  0  0  0  0
   -0.1739    1.1890   -2.1669 H   0  0  0  0  0  0  0  0  0  0  0  0
   -1.8429    0.9989   -1.6154 H   0  0  0  0  0  0  0  0  0  0  0  0
   -1.1678    3.0465   -1.7291 C   0  0  0  0  0  0  0  0  0  0  0  0
   -1.0889    3.8486   -0.7716 O   0  5  0  0  0  0  0  0  0  0  0  0
   -1.4141    3.3648   -2.9137 O   0  0  0  0  0  0  0  0  0  0  0  0
    0.5405   -0.4814    1.5912 C   0  0  0  0  0  0  0  0  0  0  0  0
    0.0222   -0.1699    2.6654 O   0  0  0  0  0  0  0  0  0  0  0  0
    1.7408   -1.0723    1.5275 N   0  0  0  0  0  0  0  0  0  0  0  0
    2.1248   -1.2488    0.6111 H   0  0  0  0  0  0  0  0  0  0  0  0
    2.5724   -1.3673    2.6915 C   0  0  0  0  0  0  0  0  0  0  0  0
    1.9855   -1.9082    3.4358 H   0  0  0  0  0  0  0  0  0  0  0  0
    3.4317   -1.9707    2.3958 H   0  0  0  0  0  0  0  0  0  0  0  0
    2.9218   -0.4321    3.1334 H   0  0  0  0  0  0  0  0  0  0  0  0
  5  6  2  0  0  0  0
  5  7  1  0  0  0  0
  2  3  1  0  0  0  0
  2  4  1  0  0  0  0
  2  5  1  0  0  0  0
  1  2  1  0  0  0  0
 20 21  2  0  0  0  0
 20 22  1  0  0  0  0
 17 18  1  0  0  0  0
 17 19  2  0  0  0  0
 14 15  1  0  0  0  0
 14 16  1  0  0  0  0
 14 17  1  0  0  0  0
 11 12  1  0  0  0  0
 11 13  1  0  0  0  0
 11 14  1  0  0  0  0
  9 10  1  0  0  0  0
  9 11  1  0  0  0  0
  9 20  1  0  0  0  0
  7  8  1  0  0  0  0
  7  9  1  0  0  0  0
 24 25  1  0  0  0  0
 24 26  1  0  0  0  0
 24 27  1  0  0  0  0
 22 23  1  0  0  0  0
 22 24  1  0  0  0  0
M  CHG  1  18  -1
M  END
$$$$
default_name
  -OEChem-01062215323D

 27 26  0     1  0  0  0  0  0999 V2000
   -3.2406   -3.5400    1.2326 H   0  0  0  0  0  0  0  0  0  0  0  0
   -3.1436   -2.6190    0.6606 C   0  0  0  0  0  0  0  0  0  0  0  0
   -3.8786   -1.8920    0.9996 H   0  0  0  0  0  0  0  0  0  0  0  0
   -3.2846   -2.8280   -0.3984 H   0  0  0  0  0  0  0  0  0  0  0  0
   -1.7586   -2.0580    0.8686 C   0  0  0  0  0  0  0  0  0  0  0  0
   -0.9666   -2.6340    1.6026 O   0  0  0  0  0  0  0  0  0  0  0  0
   -1.4866   -0.9220    0.2366 N   0  0  0  0  0  0  0  0  0  0  0  0
   -2.2166   -0.4790   -0.2994 H   0  0  0  0  0  0  0  0  0  0  0  0
   -0.1956   -0.2250    0.2596 C   0  0  1  0  0  0  0  0  0  0  0  0
    0.4310   -0.6195   -0.5408 H   0  0  0  0  0  0  0  0  0  0  0  0
   -0.4249    1.2730   -0.0248 C   0  0  0  0  0  0  0  0  0  0  0  0
   -1.1759    1.6375    0.6778 H   0  0  0  0  0  0  0  0  0  0  0  0
    0.5035    1.8189    0.1492 H   0  0  0  0  0  0  0  0  0  0  0  0
   -0.9164    1.5564   -1.4544 C   0  0  0  0  0  0  0  0  0  0  0  0
   -0.1739    1.1890   -2.1669 H   0  0  0  0  0  0  0  0  0  0  0  0
   -1.8429    0.9989   -1.6154 H   0  0  0  0  0  0  0  0  0  0  0  0
   -1.1678    3.0465   -1.7291 C   0  0  0  0  0  0  0  0  0  0  0  0
   -1.0889    3.8486   -0.7716 O   0  5  0  0  0  0  0  0  0  0  0  0
   -1.4141    3.3648   -2.9137 O   0  0  0  0  0  0  0  0  0  0  0  0
    0.5405   -0.4814    1.5912 C   0  0  0  0  0  0  0  0  0  0  0  0
   -0.0657   -0.4325    2.6635 O   0  0  0  0  0  0  0  0  0  0  0  0
    1.8447   -0.7797    1.5264 N   0  0  0  0  0  0  0  0  0  0  0  0
    2.2850   -0.7480    0.6189 H   0  0  0  0  0  0  0  0  0  0  0  0
    2.6873   -1.0308    2.6928 C   0  0  0  0  0  0  0  0  0  0  0  0
    2.2166   -1.7788    3.3329 H   0  0  0  0  0  0  0  0  0  0  0  0
    3.6690   -1.3867    2.3771 H   0  0  0  0  0  0  0  0  0  0  0  0
    2.8033   -0.1062    3.2617 H   0  0  0  0  0  0  0  0  0  0  0  0
  5  6  2  0  0  0  0
  5  7  1  0  0  0  0
  2  3  1  0  0  0  0
  2  4  1  0  0  0  0
  2  5  1  0  0  0  0
  1  2  1  0  0  0  0
 20 21  2  0  0  0  0
 20 22  1  0  0  0  0
 17 18  1  0  0  0  0
 17 19  2  0  0  0  0
 14 15  1  0  0  0  0
 14 16  1  0  0  0  0
 14 17  1  0  0  0  0
 11 12  1  0  0  0  0
 11 13  1  0  0  0  0
 11 14  1  0  0  0  0
  9 10  1  0  0  0  0
  9 11  1  0  0  0  0
  9 20  1  0  0  0  0
  7  8  1  0  0  0  0
  7  9  1  0  0  0  0
 24 25  1  0  0  0  0
 24 26  1  0  0  0  0
 24 27  1  0  0  0  0
 22 23  1  0  0  0  0
 22 24  1  0  0  0  0
M  CHG  1  18  -1
M  END
$$$$
default_name
  -OEChem-01062215323D

 27 26  0     1  0  0  0  0  0999 V2000
   -3.2406   -3.5400    1.2326 H   0  0  0  0  0  0  0  0  0  0  0  0
   -3.1436   -2.6190    0.6606 C   0  0  0  0  0  0  0  0  0  0  0  0
   -3.8786   -1.8920    0.9996 H   0  0  0  0  0  0  0  0  0  0  0  0
   -3.2846   -2.8280   -0.3984 H   0  0  0  0  0  0  0  0  0  0  0  0
   -1.7586   -2.0580    0.8686 C   0  0  0  0  0  0  0  0  0  0  0  0
   -0.9666   -2.6340    1.6026 O   0  0  0  0  0  0  0  0  0  0  0  0
   -1.4866   -0.9220    0.2366 N   0  0  0  0  0  0  0  0  0  0  0  0
   -2.2166   -0.4790   -0.2994 H   0  0  0  0  0  0  0  0  0  0  0  0
   -0.1956   -0.2250    0.2596 C   0  0  1  0  0  0  0  0  0  0  0  0
    0.4310   -0.6195   -0.5408 H   0  0  0  0  0  0  0  0  0  0  0  0
   -0.4249    1.2730   -0.0248 C   0  0  0  0  0  0  0  0  0  0  0  0
   -1.1759    1.6375    0.6778 H   0  0  0  0  0  0  0  0  0  0  0  0
    0.5035    1.8189    0.1492 H   0  0  0  0  0  0  0  0  0  0  0  0
   -0.9164    1.5564   -1.4544 C   0  0  0  0  0  0  0  0  0  0  0  0
   -0.1739    1.1890   -2.1669 H   0  0  0  0  0  0  0  0  0  0  0  0
   -1.8429    0.9989   -1.6154 H   0  0  0  0  0  0  0  0  0  0  0  0
   -1.1678    3.0465   -1.7291 C   0  0  0  0  0  0  0  0  0  0  0  0
   -1.0889    3.8486   -0.7716 O   0  5  0  0  0  0  0  0  0  0  0  0
   -1.4141    3.3648   -2.9137 O   0  0  0  0  0  0  0  0  0  0  0  0
    0.5405   -0.4814    1.5912 C   0  0  0  0  0  0  0  0  0  0  0  0
   -0.0919   -0.7055    2.6254 O   0  0  0  0  0  0  0  0  0  0  0  0
    1.8797   -0.4737    1.5660 N   0  0  0  0  0  0  0  0  0  0  0  0
    2.3276   -0.2294    0.6952 H   0  0  0  0  0  0  0  0  0  0  0  0
    2.7231   -0.6802    2.7405 C   0  0  0  0  0  0  0  0  0  0  0  0
    2.4154   -1.5896    3.2595 H   0  0  0  0  0  0  0  0  0  0  0  0
    3.7686   -0.7672    2.4413 H   0  0  0  0  0  0  0  0  0  0  0  0
    2.6106    0.1662    3.4207 H   0  0  0  0  0  0  0  0  0  0  0  0
  5  6  2  0  0  0  0
  5  7  1  0  0  0  0
  2  3  1  0  0  0  0
  2  4  1  0  0  0  0
  2  5  1  0  0  0  0
  1  2  1  0  0  0  0
 20 21  2  0  0  0  0
 20 22  1  0  0  0  0
 17 18  1  0  0  0  0
 17 19  2  0  0  0  0
 14 15  1  0  0  0  0
 14 16  1  0  0  0  0
 14 17  1  0  0  0  0
 11 12  1  0  0  0  0
 11 13  1  0  0  0  0
 11 14  1  0  0  0  0
  9 10  1  0  0  0  0
  9 11  1  0  0  0  0
  9 20  1  0  0  0  0
  7  8  1  0  0  0  0
  7  9  1  0  0  0  0
 24 25  1  0  0  0  0
 24 26  1  0  0  0  0
 24 27  1  0  0  0  0
 22 23  1  0  0  0  0
 22 24  1  0  0  0  0
M  CHG  1  18  -1
M  END
$$$$
default_name
  -OEChem-01062215323D

 27 26  0     1  0  0  0  0  0999 V2000
   -3.2406   -3.5400    1.2326 H   0  0  0  0  0  0  0  0  0  0  0  0
   -3.1436   -2.6190    0.6606 C   0  0  0  0  0  0  0  0  0  0  0  0
   -3.8786   -1.8920    0.9996 H   0  0  0  0  0  0  0  0  0  0  0  0
   -3.2846   -2.8280   -0.3984 H   0  0  0  0  0  0  0  0  0  0  0  0
   -1.7586   -2.0580    0.8686 C   0  0  0  0  0  0  0  0  0  0  0  0
   -0.9666   -2.6340    1.6026 O   0  0  0  0  0  0  0  0  0  0  0  0
   -1.4866   -0.9220    0.2366 N   0  0  0  0  0  0  0  0  0  0  0  0
   -2.2166   -0.4790   -0.2994 H   0  0  0  0  0  0  0  0  0  0  0  0
   -0.1956   -0.2250    0.2596 C   0  0  1  0  0  0  0  0  0  0  0  0
    0.4310   -0.6195   -0.5408 H   0  0  0  0  0  0  0  0  0  0  0  0
   -0.4249    1.2730   -0.0248 C   0  0  0  0  0  0  0  0  0  0  0  0
   -1.1759    1.6375    0.6778 H   0  0  0  0  0  0  0  0  0  0  0  0
    0.5035    1.8189    0.1492 H   0  0  0  0  0  0  0  0  0  0  0  0
   -0.9164    1.5564   -1.4544 C   0  0  0  0  0  0  0  0  0  0  0  0
   -0.1739    1.1890   -2.1669 H   0  0  0  0  0  0  0  0  0  0  0  0
   -1.8429    0.9989   -1.6154 H   0  0  0  0  0  0  0  0  0  0  0  0
   -1.1678    3.0465   -1.7291 C   0  0  0  0  0  0  0  0  0  0  0  0
   -1.0889    3.8486   -0.7716 O   0  5  0  0  0  0  0  0  0  0  0  0
   -1.4141    3.3648   -2.9137 O   0  0  0  0  0  0  0  0  0  0  0  0
    0.5405   -0.4814    1.5912 C   0  0  0  0  0  0  0  0  0  0  0  0
   -0.0545   -0.9704    2.5537 O   0  0  0  0  0  0  0  0  0  0  0  0
    1.8434   -0.1752    1.6435 N   0  0  0  0  0  0  0  0  0  0  0  0
    2.2495    0.2716    0.8348 H   0  0  0  0  0  0  0  0  0  0  0  0
    2.6773   -0.3396    2.8313 C   0  0  0  0  0  0  0  0  0  0  0  0
    2.5682   -1.3533    3.2205 H   0  0  0  0  0  0  0  0  0  0  0  0
    3.7236   -0.1545    2.5841 H   0  0  0  0  0  0  0  0  0  0  0  0
    2.3567    0.3667    3.5996 H   0  0  0  0  0  0  0  0  0  0  0  0
  5  6  2  0  0  0  0
  5  7  1  0  0  0  0
  2  3  1  0  0  0  0
  2  4  1  0  0  0  0
  2  5  1  0  0  0  0
  1  2  1  0  0  0  0
 20 21  2  0  0  0  0
 20 22  1  0  0  0  0
 17 18  1  0  0  0  0
 17 19  2  0  0  0  0
 14 15  1  0  0  0  0
 14 16  1  0  0  0  0
 14 17  1  0  0  0  0
 11 12  1  0  0  0  0
 11 13  1  0  0  0  0
 11 14  1  0  0  0  0
  9 10  1  0  0  0  0
  9 11  1  0  0  0  0
  9 20  1  0  0  0  0
  7  8  1  0  0  0  0
  7  9  1  0  0  0  0
 24 25  1  0  0  0  0
 24 26  1  0  0  0  0
 24 27  1  0  0  0  0
 22 23  1  0  0  0  0
 22 24  1  0  0  0  0
M  CHG  1  18  -1
M  END
$$$$
default_name
  -OEChem-01062215323D

 27 26  0     1  0  0  0  0  0999 V2000
   -3.2406   -3.5400    1.2326 H   0  0  0  0  0  0  0  0  0  0  0  0
   -3.1436   -2.6190    0.6606 C   0  0  0  0  0  0  0  0  0  0  0  0
   -3.8786   -1.8920    0.9996 H   0  0  0  0  0  0  0  0  0  0  0  0
   -3.2846   -2.8280   -0.3984 H   0  0  0  0  0  0  0  0  0  0  0  0
   -1.7586   -2.0580    0.8686 C   0  0  0  0  0  0  0  0  0  0  0  0
   -0.9666   -2.6340    1.6026 O   0  0  0  0  0  0  0  0  0  0  0  0
   -1.4866   -0.9220    0.2366 N   0  0  0  0  0  0  0  0  0  0  0  0
   -2.2166   -0.4790   -0.2994 H   0  0  0  0  0  0  0  0  0  0  0  0
   -0.1956   -0.2250    0.2596 C   0  0  1  0  0  0  0  0  0  0  0  0
    0.3234   -0.4155   -0.6802 H   0  0  0  0  0  0  0  0  0  0  0  0
   -0.4430    1.2940    0.3545 C   0  0  0  0  0  0  0  0  0  0  0  0
   -1.0978    1.4753    1.2082 H   0  0  0  0  0  0  0  0  0  0  0  0
    0.5053    1.8029    0.5333 H   0  0  0  0  0  0  0  0  0  0  0  0
   -1.1042    1.8861   -0.9016 C   0  0  0  0  0  0  0  0  0  0  0  0
   -0.4591    1.7041   -1.7645 H   0  0  0  0  0  0  0  0  0  0  0  0
   -2.0491    1.3630   -1.0708 H   0  0  0  0  0  0  0  0  0  0  0  0
   -1.3724    3.3947   -0.7964 C   0  0  0  0  0  0  0  0  0  0  0  0
   -1.1678    3.9594    0.3017 O   0  5  0  0  0  0  0  0  0  0  0  0
   -1.7598    3.9696   -1.8380 O   0  0  0  0  0  0  0  0  0  0  0  0
    0.6966   -0.7640    1.3972 C   0  0  0  0  0  0  0  0  0  0  0  0
    0.3027   -1.6777    2.1251 O   0  0  0  0  0  0  0  0  0  0  0  0
    1.9112   -0.2175    1.5389 N   0  0  0  0  0  0  0  0  0  0  0  0
    2.1434    0.5623    0.9418 H   0  0  0  0  0  0  0  0  0  0  0  0
    2.8671   -0.6008    2.5746 C   0  0  0  0  0  0  0  0  0  0  0  0
    2.9992   -1.6841    2.5712 H   0  0  0  0  0  0  0  0  0  0  0  0
    3.8279   -0.1157    2.3968 H   0  0  0  0  0  0  0  0  0  0  0  0
    2.4841   -0.2980    3.5511 H   0  0  0  0  0  0  0  0  0  0  0  0
  5  6  2  0  0  0  0
  5  7  1  0  0  0  0
  2  3  1  0  0  0  0
  2  4  1  0  0  0  0
  2  5  1  0  0  0  0
  1  2  1  0  0  0  0
 20 21  2  0  0  0  0
 20 22  1  0  0  0  0
 17 18  1  0  0  0  0
 17 19  2  0  0  0  0
 14 15  1  0  0  0  0
 14 16  1  0  0  0  0
 14 17  1  0  0  0  0
 11 12  1  0  0  0  0
 11 13  1  0  0  0  0
 11 14  1  0  0  0  0
  9 10  1  0  0  0  0
  9 11  1  0  0  0  0
  9 20  1  0  0  0  0
  7  8  1  0  0  0  0
  7  9  1  0  0  0  0
 24 25  1  0  0  0  0
 24 26  1  0  0  0  0
 24 27  1  0  0  0  0
 22 23  1  0  0  0  0
 22 24  1  0  0  0  0
M  CHG  1  18  -1
M  END
$$$$
default_name
  -OEChem-01062215323D

 27 26  0     1  0  0  0  0  0999 V2000
   -3.2406   -3.5400    1.2326 H   0  0  0  0  0  0  0  0  0  0  0  0
   -3.1436   -2.6190    0.6606 C   0  0  0  0  0  0  0  0  0  0  0  0
   -3.8786   -1.8920    0.9996 H   0  0  0  0  0  0  0  0  0  0  0  0
   -3.2846   -2.8280   -0.3984 H   0  0  0  0  0  0  0  0  0  0  0  0
   -1.7586   -2.0580    0.8686 C   0  0  0  0  0  0  0  0  0  0  0  0
   -0.9666   -2.6340    1.6026 O   0  0  0  0  0  0  0  0  0  0  0  0
   -1.4866   -0.9220    0.2366 N   0  0  0  0  0  0  0  0  0  0  0  0
   -2.2166   -0.4790   -0.2994 H   0  0  0  0  0  0  0  0  0  0  0  0
   -0.1956   -0.2250    0.2596 C   0  0  1  0  0  0  0  0  0  0  0  0
    0.3234   -0.4155   -0.6802 H   0  0  0  0  0  0  0  0  0  0  0  0
   -0.4430    1.2940    0.3545 C   0  0  0  0  0  0  0  0  0  0  0  0
   -1.0978    1.4753    1.2082 H   0  0  0  0  0  0  0  0  0  0  0  0
    0.5053    1.8029    0.5333 H   0  0  0  0  0  0  0  0  0  0  0  0
   -1.1042    1.8861   -0.9016 C   0  0  0  0  0  0  0  0  0  0  0  0
   -0.4591    1.7041   -1.7645 H   0  0  0  0  0  0  0  0  0  0  0  0
   -2.0491    1.3630   -1.0708 H   0  0  0  0  0  0  0  0  0  0  0  0
   -1.3724    3.3947   -0.7964 C   0  0  0  0  0  0  0  0  0  0  0  0
   -1.1678    3.9594    0.3017 O   0  5  0  0  0  0  0  0  0  0  0  0
   -1.7598    3.9696   -1.8380 O   0  0  0  0  0  0  0  0  0  0  0  0
    0.6966   -0.7640    1.3972 C   0  0  0  0  0  0  0  0  0  0  0  0
    0.4371   -1.8381    1.9437 O   0  0  0  0  0  0  0  0  0  0  0  0
    1.7648   -0.0329    1.7412 N   0  0  0  0  0  0  0  0  0  0  0  0
    1.8829    0.8609    1.2876 H   0  0  0  0  0  0  0  0  0  0  0  0
    2.6962   -0.3929    2.8071 C   0  0  0  0  0  0  0  0  0  0  0  0
    3.0398   -1.4190    2.6649 H   0  0  0  0  0  0  0  0  0  0  0  0
    3.5529    0.2825    2.8012 H   0  0  0  0  0  0  0  0  0  0  0  0
    2.1879   -0.3243    3.7708 H   0  0  0  0  0  0  0  0  0  0  0  0
  5  6  2  0  0  0  0
  5  7  1  0  0  0  0
  2  3  1  0  0  0  0
  2  4  1  0  0  0  0
  2  5  1  0  0  0  0
  1  2  1  0  0  0  0
 20 21  2  0  0  0  0
 20 22  1  0  0  0  0
 17 18  1  0  0  0  0
 17 19  2  0  0  0  0
 14 15  1  0  0  0  0
 14 16  1  0  0  0  0
 14 17  1  0  0  0  0
 11 12  1  0  0  0  0
 11 13  1  0  0  0  0
 11 14  1  0  0  0  0
  9 10  1  0  0  0  0
  9 11  1  0  0  0  0
  9 20  1  0  0  0  0
  7  8  1  0  0  0  0
  7  9  1  0  0  0  0
 24 25  1  0  0  0  0
 24 26  1  0  0  0  0
 24 27  1  0  0  0  0
 22 23  1  0  0  0  0
 22 24  1  0  0  0  0
M  CHG  1  18  -1
M  END
$$$$
default_name
  -OEChem-01062215323D

 27 26  0     1  0  0  0  0  0999 V2000
   -3.2406   -3.5400    1.2326 H   0  0  0  0  0  0  0  0  0  0  0  0
   -3.1436   -2.6190    0.6606 C   0  0  0  0  0  0  0  0  0  0  0  0
   -3.8786   -1.8920    0.9996 H   0  0  0  0  0  0  0  0  0  0  0  0
   -3.2846   -2.8280   -0.3984 H   0  0  0  0  0  0  0  0  0  0  0  0
   -1.7586   -2.0580    0.8686 C   0  0  0  0  0  0  0  0  0  0  0  0
   -0.9666   -2.6340    1.6026 O   0  0  0  0  0  0  0  0  0  0  0  0
   -1.4866   -0.9220    0.2366 N   0  0  0  0  0  0  0  0  0  0  0  0
   -2.2166   -0.4790   -0.2994 H   0  0  0  0  0  0  0  0  0  0  0  0
   -0.1956   -0.2250    0.2596 C   0  0  1  0  0  0  0  0  0  0  0  0
    0.3234   -0.4155   -0.6802 H   0  0  0  0  0  0  0  0  0  0  0  0
   -0.4430    1.2940    0.3545 C   0  0  0  0  0  0  0  0  0  0  0  0
   -1.0978    1.4753    1.2082 H   0  0  0  0  0  0  0  0  0  0  0  0
    0.5053    1.8029    0.5333 H   0  0  0  0  0  0  0  0  0  0  0  0
   -1.1042    1.8861   -0.9016 C   0  0  0  0  0  0  0  0  0  0  0  0
   -0.4591    1.7041   -1.7645 H   0  0  0  0  0  0  0  0  0  0  0  0
   -2.0491    1.3630   -1.0708 H   0  0  0  0  0  0  0  0  0  0  0  0
   -1.3724    3.3947   -0.7964 C   0  0  0  0  0  0  0  0  0  0  0  0
   -1.1678    3.9594    0.3017 O   0  5  0  0  0  0  0  0  0  0  0  0
   -1.7598    3.9696   -1.8380 O   0  0  0  0  0  0  0  0  0  0  0  0
    0.6966   -0.7640    1.3972 C   0  0  0  0  0  0  0  0  0  0  0  0
    0.6138   -1.9403    1.7566 O   0  0  0  0  0  0  0  0  0  0  0  0
    1.5699    0.0873    1.9509 N   0  0  0  0  0  0  0  0  0  0  0  0
    1.5431    1.0479    1.6427 H   0  0  0  0  0  0  0  0  0  0  0  0
    2.4705   -0.2596    3.0473 C   0  0  0  0  0  0  0  0  0  0  0  0
    3.0199   -1.1692    2.7988 H   0  0  0  0  0  0  0  0  0  0  0  0
    3.1746    0.5542    3.2266 H   0  0  0  0  0  0  0  0  0  0  0  0
    1.8871   -0.4392    3.9524 H   0  0  0  0  0  0  0  0  0  0  0  0
  5  6  2  0  0  0  0
  5  7  1  0  0  0  0
  2  3  1  0  0  0  0
  2  4  1  0  0  0  0
  2  5  1  0  0  0  0
  1  2  1  0  0  0  0
 20 21  2  0  0  0  0
 20 22  1  0  0  0  0
 17 18  1  0  0  0  0
 17 19  2  0  0  0  0
 14 15  1  0  0  0  0
 14 16  1  0  0  0  0
 14 17  1  0  0  0  0
 11 12  1  0  0  0  0
 11 13  1  0  0  0  0
 11 14  1  0  0  0  0
  9 10  1  0  0  0  0
  9 11  1  0  0  0  0
  9 20  1  0  0  0  0
  7  8  1  0  0  0  0
  7  9  1  0  0  0  0
 24 25  1  0  0  0  0
 24 26  1  0  0  0  0
 24 27  1  0  0  0  0
 22 23  1  0  0  0  0
 22 24  1  0  0  0  0
M  CHG  1  18  -1
M  END
$$$$
default_name
  -OEChem-01062215323D

 27 26  0     1  0  0  0  0  0999 V2000
   -3.2406   -3.5400    1.2326 H   0  0  0  0  0  0  0  0  0  0  0  0
   -3.1436   -2.6190    0.6606 C   0  0  0  0  0  0  0  0  0  0  0  0
   -3.8786   -1.8920    0.9996 H   0  0  0  0  0  0  0  0  0  0  0  0
   -3.2846   -2.8280   -0.3984 H   0  0  0  0  0  0  0  0  0  0  0  0
   -1.7586   -2.0580    0.8686 C   0  0  0  0  0  0  0  0  0  0  0  0
   -0.9666   -2.6340    1.6026 O   0  0  0  0  0  0  0  0  0  0  0  0
   -1.4866   -0.9220    0.2366 N   0  0  0  0  0  0  0  0  0  0  0  0
   -2.2166   -0.4790   -0.2994 H   0  0  0  0  0  0  0  0  0  0  0  0
   -0.1956   -0.2250    0.2596 C   0  0  1  0  0  0  0  0  0  0  0  0
    0.3234   -0.4155   -0.6802 H   0  0  0  0  0  0  0  0  0  0  0  0
   -0.4430    1.2940    0.3545 C   0  0  0  0  0  0  0  0  0  0  0  0
   -1.0978    1.4753    1.2082 H   0  0  0  0  0  0  0  0  0  0  0  0
    0.5053    1.8029    0.5333 H   0  0  0  0  0  0  0  0  0  0  0  0
   -1.1042    1.8861   -0.9016 C   0  0  0  0  0  0  0  0  0  0  0  0
   -0.4591    1.7041   -1.7645 H   0  0  0  0  0  0  0  0  0  0  0  0
   -2.0491    1.3630   -1.0708 H   0  0  0  0  0  0  0  0  0  0  0  0
   -1.3724    3.3947   -0.7964 C   0  0  0  0  0  0  0  0  0  0  0  0
   -1.1678    3.9594    0.3017 O   0  5  0  0  0  0  0  0  0  0  0  0
   -1.7598    3.9696   -1.8380 O   0  0  0  0  0  0  0  0  0  0  0  0
    0.6966   -0.7640    1.3972 C   0  0  0  0  0  0  0  0  0  0  0  0
    0.8210   -1.9773    1.5767 O   0  0  0  0  0  0  0  0  0  0  0  0
    1.3398    0.1348    2.1539 N   0  0  0  0  0  0  0  0  0  0  0  0
    1.1470    1.1105    1.9829 H   0  0  0  0  0  0  0  0  0  0  0  0
    2.2053   -0.2097    3.2789 C   0  0  0  0  0  0  0  0  0  0  0  0
    2.9410   -0.9517    2.9638 H   0  0  0  0  0  0  0  0  0  0  0  0
    2.7190    0.6808    3.6439 H   0  0  0  0  0  0  0  0  0  0  0  0
    1.6019   -0.6347    4.0833 H   0  0  0  0  0  0  0  0  0  0  0  0
  5  6  2  0  0  0  0
  5  7  1  0  0  0  0
  2  3  1  0  0  0  0
  2  4  1  0  0  0  0
  2  5  1  0  0  0  0
  1  2  1  0  0  0  0
 20 21  2  0  0  0  0
 20 22  1  0  0  0  0
 17 18  1  0  0  0  0
 17 19  2  0  0  0  0
 14 15  1  0  0  0  0
 14 16  1  0  0  0  0
 14 17  1  0  0  0  0
 11 12  1  0  0  0  0
 11 13  1  0  0  0  0
 11 14  1  0  0  0  0
  9 10  1  0  0  0  0
  9 11  1  0  0  0  0
  9 20  1  0  0  0  0
  7  8  1  0  0  0  0
  7  9  1  0  0  0  0
 24 25  1  0  0  0  0
 24 26  1  0  0  0  0
 24 27  1  0  0  0  0
 22 23  1  0  0  0  0
 22 24  1  0  0  0  0
M  CHG  1  18  -1
M  END
$$$$
default_name
  -OEChem-01062215323D

 27 26  0     1  0  0  0  0  0999 V2000
   -3.2406   -3.5400    1.2326 H   0  0  0  0  0  0  0  0  0  0  0  0
   -3.1436   -2.6190    0.6606 C   0  0  0  0  0  0  0  0  0  0  0  0
   -3.8786   -1.8920    0.9996 H   0  0  0  0  0  0  0  0  0  0  0  0
   -3.2846   -2.8280   -0.3984 H   0  0  0  0  0  0  0  0  0  0  0  0
   -1.7586   -2.0580    0.8686 C   0  0  0  0  0  0  0  0  0  0  0  0
   -0.9666   -2.6340    1.6026 O   0  0  0  0  0  0  0  0  0  0  0  0
   -1.4866   -0.9220    0.2366 N   0  0  0  0  0  0  0  0  0  0  0  0
   -2.2166   -0.4790   -0.2994 H   0  0  0  0  0  0  0  0  0  0  0  0
   -0.1956   -0.2250    0.2596 C   0  0  1  0  0  0  0  0  0  0  0  0
    0.3234   -0.4155   -0.6802 H   0  0  0  0  0  0  0  0  0  0  0  0
   -0.4430    1.2940    0.3545 C   0  0  0  0  0  0  0  0  0  0  0  0
   -1.0978    1.4753    1.2082 H   0  0  0  0  0  0  0  0  0  0  0  0
    0.5053    1.8029    0.5333 H   0  0  0  0  0  0  0  0  0  0  0  0
   -1.1042    1.8861   -0.9016 C   0  0  0  0  0  0  0  0  0  0  0  0
   -0.4591    1.7041   -1.7645 H   0  0  0  0  0  0  0  0  0  0  0  0
   -2.0491    1.3630   -1.0708 H   0  0  0  0  0  0  0  0  0  0  0  0
   -1.3724    3.3947   -0.7964 C   0  0  0  0  0  0  0  0  0  0  0  0
   -1.1678    3.9594    0.3017 O   0  5  0  0  0  0  0  0  0  0  0  0
   -1.7598    3.9696   -1.8380 O   0  0  0  0  0  0  0  0  0  0  0  0
    0.6966   -0.7640    1.3972 C   0  0  0  0  0  0  0  0  0  0  0  0
    1.0445   -1.9465    1.4160 O   0  0  0  0  0  0  0  0  0  0  0  0
    1.0901    0.1063    2.3362 N   0  0  0  0  0  0  0  0  0  0  0  0
    0.7217    1.0445    2.2852 H   0  0  0  0  0  0  0  0  0  0  0  0
    1.9188   -0.2469    3.4860 C   0  0  0  0  0  0  0  0  0  0  0  0
    2.8083   -0.7814    3.1485 H   0  0  0  0  0  0  0  0  0  0  0  0
    2.2170    0.6537    4.0247 H   0  0  0  0  0  0  0  0  0  0  0  0
    1.3520   -0.8976    4.1548 H   0  0  0  0  0  0  0  0  0  0  0  0
  5  6  2  0  0  0  0
  5  7  1  0  0  0  0
  2  3  1  0  0  0  0
  2  4  1  0  0  0  0
  2  5  1  0  0  0  0
  1  2  1  0  0  0  0
 20 21  2  0  0  0  0
 20 22  1  0  0  0  0
 17 18  1  0  0  0  0
 17 19  2  0  0  0  0
 14 15  1  0  0  0  0
 14 16  1  0  0  0  0
 14 17  1  0  0  0  0
 11 12  1  0  0  0  0
 11 13  1  0  0  0  0
 11 14  1  0  0  0  0
  9 10  1  0  0  0  0
  9 11  1  0  0  0  0
  9 20  1  0  0  0  0
  7  8  1  0  0  0  0
  7  9  1  0  0  0  0
 24 25  1  0  0  0  0
 24 26  1  0  0  0  0
 24 27  1  0  0  0  0
 22 23  1  0  0  0  0
 22 24  1  0  0  0  0
M  CHG  1  18  -1
M  END
$$$$
default_name
  -OEChem-01062215323D

 27 26  0     1  0  0  0  0  0999 V2000
   -3.2406   -3.5400    1.2326 H   0  0  0  0  0  0  0  0  0  0  0  0
   -3.1436   -2.6190    0.6606 C   0  0  0  0  0  0  0  0  0  0  0  0
   -3.8786   -1.8920    0.9996 H   0  0  0  0  0  0  0  0  0  0  0  0
   -3.2846   -2.8280   -0.3984 H   0  0  0  0  0  0  0  0  0  0  0  0
   -1.7586   -2.0580    0.8686 C   0  0  0  0  0  0  0  0  0  0  0  0
   -0.9666   -2.6340    1.6026 O   0  0  0  0  0  0  0  0  0  0  0  0
   -1.4866   -0.9220    0.2366 N   0  0  0  0  0  0  0  0  0  0  0  0
   -2.2166   -0.4790   -0.2994 H   0  0  0  0  0  0  0  0  0  0  0  0
   -0.1956   -0.2250    0.2596 C   0  0  1  0  0  0  0  0  0  0  0  0
    0.3234   -0.4155   -0.6802 H   0  0  0  0  0  0  0  0  0  0  0  0
   -0.4430    1.2940    0.3545 C   0  0  0  0  0  0  0  0  0  0  0  0
   -1.0978    1.4753    1.2082 H   0  0  0  0  0  0  0  0  0  0  0  0
    0.5053    1.8029    0.5333 H   0  0  0  0  0  0  0  0  0  0  0  0
   -1.1042    1.8861   -0.9016 C   0  0  0  0  0  0  0  0  0  0  0  0
   -0.4591    1.7041   -1.7645 H   0  0  0  0  0  0  0  0  0  0  0  0
   -2.0491    1.3630   -1.0708 H   0  0  0  0  0  0  0  0  0  0  0  0
   -1.3724    3.3947   -0.7964 C   0  0  0  0  0  0  0  0  0  0  0  0
   -1.1678    3.9594    0.3017 O   0  5  0  0  0  0  0  0  0  0  0  0
   -1.7598    3.9696   -1.8380 O   0  0  0  0  0  0  0  0  0  0  0  0
    0.6966   -0.7640    1.3972 C   0  0  0  0  0  0  0  0  0  0  0  0
    1.2689   -1.8501    1.2856 O   0  0  0  0  0  0  0  0  0  0  0  0
    0.8378    0.0039    2.4855 N   0  0  0  0  0  0  0  0  0  0  0  0
    0.2962    0.8543    2.5288 H   0  0  0  0  0  0  0  0  0  0  0  0
    1.6303   -0.3685    3.6546 C   0  0  0  0  0  0  0  0  0  0  0  0
    2.6310   -0.6699    3.3404 H   0  0  0  0  0  0  0  0  0  0  0  0
    1.7028    0.4747    4.3431 H   0  0  0  0  0  0  0  0  0  0  0  0
    1.1543   -1.2099    4.1619 H   0  0  0  0  0  0  0  0  0  0  0  0
  5  6  2  0  0  0  0
  5  7  1  0  0  0  0
  2  3  1  0  0  0  0
  2  4  1  0  0  0  0
  2  5  1  0  0  0  0
  1  2  1  0  0  0  0
 20 21  2  0  0  0  0
 20 22  1  0  0  0  0
 17 18  1  0  0  0  0
 17 19  2  0  0  0  0
 14 15  1  0  0  0  0
 14 16  1  0  0  0  0
 14 17  1  0  0  0  0
 11 12  1  0  0  0  0
 11 13  1  0  0  0  0
 11 14  1  0  0  0  0
  9 10  1  0  0  0  0
  9 11  1  0  0  0  0
  9 20  1  0  0  0  0
  7  8  1  0  0  0  0
  7  9  1  0  0  0  0
 24 25  1  0  0  0  0
 24 26  1  0  0  0  0
 24 27  1  0  0  0  0
 22 23  1  0  0  0  0
 22 24  1  0  0  0  0
M  CHG  1  18  -1
M  END
$$$$
default_name
  -OEChem-01062215323D

 27 26  0     1  0  0  0  0  0999 V2000
   -3.2406   -3.5400    1.2326 H   0  0  0  0  0  0  0  0  0  0  0  0
   -3.1436   -2.6190    0.6606 C   0  0  0  0  0  0  0  0  0  0  0  0
   -3.8786   -1.8920    0.9996 H   0  0  0  0  0  0  0  0  0  0  0  0
   -3.2846   -2.8280   -0.3984 H   0  0  0  0  0  0  0  0  0  0  0  0
   -1.7586   -2.0580    0.8686 C   0  0  0  0  0  0  0  0  0  0  0  0
   -0.9666   -2.6340    1.6026 O   0  0  0  0  0  0  0  0  0  0  0  0
   -1.4866   -0.9220    0.2366 N   0  0  0  0  0  0  0  0  0  0  0  0
   -2.2166   -0.4790   -0.2994 H   0  0  0  0  0  0  0  0  0  0  0  0
   -0.1956   -0.2250    0.2596 C   0  0  1  0  0  0  0  0  0  0  0  0
    0.3234   -0.4155   -0.6802 H   0  0  0  0  0  0  0  0  0  0  0  0
   -0.4430    1.2940    0.3545 C   0  0  0  0  0  0  0  0  0  0  0  0
   -1.0978    1.4753    1.2082 H   0  0  0  0  0  0  0  0  0  0  0  0
    0.5053    1.8029    0.5333 H   0  0  0  0  0  0  0  0  0  0  0  0
   -1.1042    1.8861   -0.9016 C   0  0  0  0  0  0  0  0  0  0  0  0
   -0.4591    1.7041   -1.7645 H   0  0  0  0  0  0  0  0  0  0  0  0
   -2.0491    1.3630   -1.0708 H   0  0  0  0  0  0  0  0  0  0  0  0
   -1.3724    3.3947   -0.7964 C   0  0  0  0  0  0  0  0  0  0  0  0
   -1.1678    3.9594    0.3017 O   0  5  0  0  0  0  0  0  0  0  0  0
   -1.7598    3.9696   -1.8380 O   0  0  0  0  0  0  0  0  0  0  0  0
    0.6966   -0.7640    1.3972 C   0  0  0  0  0  0  0  0  0  0  0  0
    1.4792   -1.6946    1.1944 O   0  0  0  0  0  0  0  0  0  0  0  0
    0.6002   -0.1655    2.5916 N   0  0  0  0  0  0  0  0  0  0  0  0
   -0.1006    0.5530    2.6971 H   0  0  0  0  0  0  0  0  0  0  0  0
    1.3596   -0.5662    3.7732 C   0  0  0  0  0  0  0  0  0  0  0  0
    2.4210   -0.6247    3.5264 H   0  0  0  0  0  0  0  0  0  0  0  0
    1.2115    0.1560    4.5774 H   0  0  0  0  0  0  0  0  0  0  0  0
    1.0223   -1.5504    4.1041 H   0  0  0  0  0  0  0  0  0  0  0  0
  5  6  2  0  0  0  0
  5  7  1  0  0  0  0
  2  3  1  0  0  0  0
  2  4  1  0  0  0  0
  2  5  1  0  0  0  0
  1  2  1  0  0  0  0
 20 21  2  0  0  0  0
 20 22  1  0  0  0  0
 17 18  1  0  0  0  0
 17 19  2  0  0  0  0
 14 15  1  0  0  0  0
 14 16  1  0  0  0  0
 14 17  1  0  0  0  0
 11 12  1  0  0  0  0
 11 13  1  0  0  0  0
 11 14  1  0  0  0  0
  9 10  1  0  0  0  0
  9 11  1  0  0  0  0
  9 20  1  0  0  0  0
  7  8  1  0  0  0  0
  7  9  1  0  0  0  0
 24 25  1  0  0  0  0
 24 26  1  0  0  0  0
 24 27  1  0  0  0  0
 22 23  1  0  0  0  0
 22 24  1  0  0  0  0
M  CHG  1  18  -1
M  END
$$$$
default_name
  -OEChem-01062215323D

 27 26  0     1  0  0  0  0  0999 V2000
   -3.2406   -3.5400    1.2326 H   0  0  0  0  0  0  0  0  0  0  0  0
   -3.1436   -2.6190    0.6606 C   0  0  0  0  0  0  0  0  0  0  0  0
   -3.8786   -1.8920    0.9996 H   0  0  0  0  0  0  0  0  0  0  0  0
   -3.2846   -2.8280   -0.3984 H   0  0  0  0  0  0  0  0  0  0  0  0
   -1.7586   -2.0580    0.8686 C   0  0  0  0  0  0  0  0  0  0  0  0
   -0.9666   -2.6340    1.6026 O   0  0  0  0  0  0  0  0  0  0  0  0
   -1.4866   -0.9220    0.2366 N   0  0  0  0  0  0  0  0  0  0  0  0
   -2.2166   -0.4790   -0.2994 H   0  0  0  0  0  0  0  0  0  0  0  0
   -0.1956   -0.2250    0.2596 C   0  0  1  0  0  0  0  0  0  0  0  0
    0.3234   -0.4155   -0.6802 H   0  0  0  0  0  0  0  0  0  0  0  0
   -0.4430    1.2940    0.3545 C   0  0  0  0  0  0  0  0  0  0  0  0
   -1.0978    1.4753    1.2082 H   0  0  0  0  0  0  0  0  0  0  0  0
    0.5053    1.8029    0.5333 H   0  0  0  0  0  0  0  0  0  0  0  0
   -1.1042    1.8861   -0.9016 C   0  0  0  0  0  0  0  0  0  0  0  0
   -0.4591    1.7041   -1.7645 H   0  0  0  0  0  0  0  0  0  0  0  0
   -2.0491    1.3630   -1.0708 H   0  0  0  0  0  0  0  0  0  0  0  0
   -1.3724    3.3947   -0.7964 C   0  0  0  0  0  0  0  0  0  0  0  0
   -1.1678    3.9594    0.3017 O   0  5  0  0  0  0  0  0  0  0  0  0
   -1.7598    3.9696   -1.8380 O   0  0  0  0  0  0  0  0  0  0  0  0
    0.6966   -0.7640    1.3972 C   0  0  0  0  0  0  0  0  0  0  0  0
    1.6608   -1.4907    1.1486 O   0  0  0  0  0  0  0  0  0  0  0  0
    0.3934   -0.3904    2.6472 N   0  0  0  0  0  0  0  0  0  0  0  0
   -0.4415    0.1610    2.7788 H   0  0  0  0  0  0  0  0  0  0  0  0
    1.1252   -0.8266    3.8337 C   0  0  0  0  0  0  0  0  0  0  0  0
    2.1928   -0.6490    3.6939 H   0  0  0  0  0  0  0  0  0  0  0  0
    0.7766   -0.2806    4.7116 H   0  0  0  0  0  0  0  0  0  0  0  0
    0.9650   -1.8958    3.9854 H   0  0  0  0  0  0  0  0  0  0  0  0
  5  6  2  0  0  0  0
  5  7  1  0  0  0  0
  2  3  1  0  0  0  0
  2  4  1  0  0  0  0
  2  5  1  0  0  0  0
  1  2  1  0  0  0  0
 20 21  2  0  0  0  0
 20 22  1  0  0  0  0
 17 18  1  0  0  0  0
 17 19  2  0  0  0  0
 14 15  1  0  0  0  0
 14 16  1  0  0  0  0
 14 17  1  0  0  0  0
 11 12  1  0  0  0  0
 11 13  1  0  0  0  0
 11 14  1  0  0  0  0
  9 10  1  0  0  0  0
  9 11  1  0  0  0  0
  9 20  1  0  0  0  0
  7  8  1  0  0  0  0
  7  9  1  0  0  0  0
 24 25  1  0  0  0  0
 24 26  1  0  0  0  0
 24 27  1  0  0  0  0
 22 23  1  0  0  0  0
 22 24  1  0  0  0  0
M  CHG  1  18  -1
M  END
$$$$
default_name
  -OEChem-01062215323D

 27 26  0     1  0  0  0  0  0999 V2000
   -3.2406   -3.5400    1.2326 H   0  0  0  0  0  0  0  0  0  0  0  0
   -3.1436   -2.6190    0.6606 C   0  0  0  0  0  0  0  0  0  0  0  0
   -3.8786   -1.8920    0.9996 H   0  0  0  0  0  0  0  0  0  0  0  0
   -3.2846   -2.8280   -0.3984 H   0  0  0  0  0  0  0  0  0  0  0  0
   -1.7586   -2.0580    0.8686 C   0  0  0  0  0  0  0  0  0  0  0  0
   -0.9666   -2.6340    1.6026 O   0  0  0  0  0  0  0  0  0  0  0  0
   -1.4866   -0.9220    0.2366 N   0  0  0  0  0  0  0  0  0  0  0  0
   -2.2166   -0.4790   -0.2994 H   0  0  0  0  0  0  0  0  0  0  0  0
   -0.1956   -0.2250    0.2596 C   0  0  1  0  0  0  0  0  0  0  0  0
    0.3234   -0.4155   -0.6802 H   0  0  0  0  0  0  0  0  0  0  0  0
   -0.4430    1.2940    0.3545 C   0  0  0  0  0  0  0  0  0  0  0  0
   -1.0978    1.4753    1.2082 H   0  0  0  0  0  0  0  0  0  0  0  0
    0.5053    1.8029    0.5333 H   0  0  0  0  0  0  0  0  0  0  0  0
   -1.1042    1.8861   -0.9016 C   0  0  0  0  0  0  0  0  0  0  0  0
   -0.4591    1.7041   -1.7645 H   0  0  0  0  0  0  0  0  0  0  0  0
   -2.0491    1.3630   -1.0708 H   0  0  0  0  0  0  0  0  0  0  0  0
   -1.3724    3.3947   -0.7964 C   0  0  0  0  0  0  0  0  0  0  0  0
   -1.1678    3.9594    0.3017 O   0  5  0  0  0  0  0  0  0  0  0  0
   -1.7598    3.9696   -1.8380 O   0  0  0  0  0  0  0  0  0  0  0  0
    0.6966   -0.7640    1.3972 C   0  0  0  0  0  0  0  0  0  0  0  0
    1.8015   -1.2522    1.1513 O   0  0  0  0  0  0  0  0  0  0  0  0
    0.2316   -0.6553    2.6486 N   0  0  0  0  0  0  0  0  0  0  0  0
   -0.7034   -0.2949    2.7682 H   0  0  0  0  0  0  0  0  0  0  0  0
    0.9429   -1.1319    3.8320 C   0  0  0  0  0  0  0  0  0  0  0  0
    1.9619   -0.7411    3.8314 H   0  0  0  0  0  0  0  0  0  0  0  0
    0.4277   -0.8055    4.7365 H   0  0  0  0  0  0  0  0  0  0  0  0
    0.9863   -2.2226    3.8139 H   0  0  0  0  0  0  0  0  0  0  0  0
  5  6  2  0  0  0  0
  5  7  1  0  0  0  0
  2  3  1  0  0  0  0
  2  4  1  0  0  0  0
  2  5  1  0  0  0  0
  1  2  1  0  0  0  0
 20 21  2  0  0  0  0
 20 22  1  0  0  0  0
 17 18  1  0  0  0  0
 17 19  2  0  0  0  0
 14 15  1  0  0  0  0
 14 16  1  0  0  0  0
 14 17  1  0  0  0  0
 11 12  1  0  0  0  0
 11 13  1  0  0  0  0
 11 14  1  0  0  0  0
  9 10  1  0  0  0  0
  9 11  1  0  0  0  0
  9 20  1  0  0  0  0
  7  8  1  0  0  0  0
  7  9  1  0  0  0  0
 24 25  1  0  0  0  0
 24 26  1  0  0  0  0
 24 27  1  0  0  0  0
 22 23  1  0  0  0  0
 22 24  1  0  0  0  0
M  CHG  1  18  -1
M  END
$$$$
default_name
  -OEChem-01062215323D

 27 26  0     1  0  0  0  0  0999 V2000
   -3.2406   -3.5400    1.2326 H   0  0  0  0  0  0  0  0  0  0  0  0
   -3.1436   -2.6190    0.6606 C   0  0  0  0  0  0  0  0  0  0  0  0
   -3.8786   -1.8920    0.9996 H   0  0  0  0  0  0  0  0  0  0  0  0
   -3.2846   -2.8280   -0.3984 H   0  0  0  0  0  0  0  0  0  0  0  0
   -1.7586   -2.0580    0.8686 C   0  0  0  0  0  0  0  0  0  0  0  0
   -0.9666   -2.6340    1.6026 O   0  0  0  0  0  0  0  0  0  0  0  0
   -1.4866   -0.9220    0.2366 N   0  0  0  0  0  0  0  0  0  0  0  0
   -2.2166   -0.4790   -0.2994 H   0  0  0  0  0  0  0  0  0  0  0  0
   -0.1956   -0.2250    0.2596 C   0  0  1  0  0  0  0  0  0  0  0  0
    0.3234   -0.4155   -0.6802 H   0  0  0  0  0  0  0  0  0  0  0  0
   -0.4430    1.2940    0.3545 C   0  0  0  0  0  0  0  0  0  0  0  0
   -1.0978    1.4753    1.2082 H   0  0  0  0  0  0  0  0  0  0  0  0
    0.5053    1.8029    0.5333 H   0  0  0  0  0  0  0  0  0  0  0  0
   -1.1042    1.8861   -0.9016 C   0  0  0  0  0  0  0  0  0  0  0  0
   -0.4591    1.7041   -1.7645 H   0  0  0  0  0  0  0  0  0  0  0  0
   -2.0491    1.3630   -1.0708 H   0  0  0  0  0  0  0  0  0  0  0  0
   -1.3724    3.3947   -0.7964 C   0  0  0  0  0  0  0  0  0  0  0  0
   -1.1678    3.9594    0.3017 O   0  5  0  0  0  0  0  0  0  0  0  0
   -1.7598    3.9696   -1.8380 O   0  0  0  0  0  0  0  0  0  0  0  0
    0.6966   -0.7640    1.3972 C   0  0  0  0  0  0  0  0  0  0  0  0
    1.8916   -0.9954    1.2023 O   0  0  0  0  0  0  0  0  0  0  0  0
    0.1257   -0.9424    2.5957 N   0  0  0  0  0  0  0  0  0  0  0  0
   -0.8685   -0.7836    2.6661 H   0  0  0  0  0  0  0  0  0  0  0  0
    0.8253   -1.4613    3.7682 C   0  0  0  0  0  0  0  0  0  0  0  0
    1.7439   -0.8947    3.9295 H   0  0  0  0  0  0  0  0  0  0  0  0
    0.1886   -1.3827    4.6506 H   0  0  0  0  0  0  0  0  0  0  0  0
    1.0847   -2.5085    3.6012 H   0  0  0  0  0  0  0  0  0  0  0  0
  5  6  2  0  0  0  0
  5  7  1  0  0  0  0
  2  3  1  0  0  0  0
  2  4  1  0  0  0  0
  2  5  1  0  0  0  0
  1  2  1  0  0  0  0
 20 21  2  0  0  0  0
 20 22  1  0  0  0  0
 17 18  1  0  0  0  0
 17 19  2  0  0  0  0
 14 15  1  0  0  0  0
 14 16  1  0  0  0  0
 14 17  1  0  0  0  0
 11 12  1  0  0  0  0
 11 13  1  0  0  0  0
 11 14  1  0  0  0  0
  9 10  1  0  0  0  0
  9 11  1  0  0  0  0
  9 20  1  0  0  0  0
  7  8  1  0  0  0  0
  7  9  1  0  0  0  0
 24 25  1  0  0  0  0
 24 26  1  0  0  0  0
 24 27  1  0  0  0  0
 22 23  1  0  0  0  0
 22 24  1  0  0  0  0
M  CHG  1  18  -1
M  END
$$$$
default_name
  -OEChem-01062215323D

 27 26  0     1  0  0  0  0  0999 V2000
   -3.2406   -3.5400    1.2326 H   0  0  0  0  0  0  0  0  0  0  0  0
   -3.1436   -2.6190    0.6606 C   0  0  0  0  0  0  0  0  0  0  0  0
   -3.8786   -1.8920    0.9996 H   0  0  0  0  0  0  0  0  0  0  0  0
   -3.2846   -2.8280   -0.3984 H   0  0  0  0  0  0  0  0  0  0  0  0
   -1.7586   -2.0580    0.8686 C   0  0  0  0  0  0  0  0  0  0  0  0
   -0.9666   -2.6340    1.6026 O   0  0  0  0  0  0  0  0  0  0  0  0
   -1.4866   -0.9220    0.2366 N   0  0  0  0  0  0  0  0  0  0  0  0
   -2.2166   -0.4790   -0.2994 H   0  0  0  0  0  0  0  0  0  0  0  0
   -0.1956   -0.2250    0.2596 C   0  0  1  0  0  0  0  0  0  0  0  0
    0.3234   -0.4155   -0.6802 H   0  0  0  0  0  0  0  0  0  0  0  0
   -0.4430    1.2940    0.3545 C   0  0  0  0  0  0  0  0  0  0  0  0
   -1.0978    1.4753    1.2082 H   0  0  0  0  0  0  0  0  0  0  0  0
    0.5053    1.8029    0.5333 H   0  0  0  0  0  0  0  0  0  0  0  0
   -1.1042    1.8861   -0.9016 C   0  0  0  0  0  0  0  0  0  0  0  0
   -0.4591    1.7041   -1.7645 H   0  0  0  0  0  0  0  0  0  0  0  0
   -2.0491    1.3630   -1.0708 H   0  0  0  0  0  0  0  0  0  0  0  0
   -1.3724    3.3947   -0.7964 C   0  0  0  0  0  0  0  0  0  0  0  0
   -1.1678    3.9594    0.3017 O   0  5  0  0  0  0  0  0  0  0  0  0
   -1.7598    3.9696   -1.8380 O   0  0  0  0  0  0  0  0  0  0  0  0
    0.6966   -0.7640    1.3972 C   0  0  0  0  0  0  0  0  0  0  0  0
    1.9251   -0.7378    1.2981 O   0  0  0  0  0  0  0  0  0  0  0  0
    0.0830   -1.2319    2.4920 N   0  0  0  0  0  0  0  0  0  0  0  0
   -0.9254   -1.2720    2.4794 H   0  0  0  0  0  0  0  0  0  0  0  0
    0.7803   -1.7924    3.6466 C   0  0  0  0  0  0  0  0  0  0  0  0
    1.5538   -1.0993    3.9817 H   0  0  0  0  0  0  0  0  0  0  0  0
    0.0756   -1.9731    4.4595 H   0  0  0  0  0  0  0  0  0  0  0  0
    1.2536   -2.7341    3.3619 H   0  0  0  0  0  0  0  0  0  0  0  0
  5  6  2  0  0  0  0
  5  7  1  0  0  0  0
  2  3  1  0  0  0  0
  2  4  1  0  0  0  0
  2  5  1  0  0  0  0
  1  2  1  0  0  0  0
 20 21  2  0  0  0  0
 20 22  1  0  0  0  0
 17 18  1  0  0  0  0
 17 19  2  0  0  0  0
 14 15  1  0  0  0  0
 14 16  1  0  0  0  0
 14 17  1  0  0  0  0
 11 12  1  0  0  0  0
 11 13  1  0  0  0  0
 11 14  1  0  0  0  0
  9 10  1  0  0  0  0
  9 11  1  0  0  0  0
  9 20  1  0  0  0  0
  7  8  1  0  0  0  0
  7  9  1  0  0  0  0
 24 25  1  0  0  0  0
 24 26  1  0  0  0  0
 24 27  1  0  0  0  0
 22 23  1  0  0  0  0
 22 24  1  0  0  0  0
M  CHG  1  18  -1
M  END
$$$$
default_name
  -OEChem-01062215323D

 27 26  0     1  0  0  0  0  0999 V2000
   -3.2406   -3.5400    1.2326 H   0  0  0  0  0  0  0  0  0  0  0  0
   -3.1436   -2.6190    0.6606 C   0  0  0  0  0  0  0  0  0  0  0  0
   -3.8786   -1.8920    0.9996 H   0  0  0  0  0  0  0  0  0  0  0  0
   -3.2846   -2.8280   -0.3984 H   0  0  0  0  0  0  0  0  0  0  0  0
   -1.7586   -2.0580    0.8686 C   0  0  0  0  0  0  0  0  0  0  0  0
   -0.9666   -2.6340    1.6026 O   0  0  0  0  0  0  0  0  0  0  0  0
   -1.4866   -0.9220    0.2366 N   0  0  0  0  0  0  0  0  0  0  0  0
   -2.2166   -0.4790   -0.2994 H   0  0  0  0  0  0  0  0  0  0  0  0
   -0.1956   -0.2250    0.2596 C   0  0  1  0  0  0  0  0  0  0  0  0
    0.3234   -0.4155   -0.6802 H   0  0  0  0  0  0  0  0  0  0  0  0
   -0.4430    1.2940    0.3545 C   0  0  0  0  0  0  0  0  0  0  0  0
   -1.0978    1.4753    1.2082 H   0  0  0  0  0  0  0  0  0  0  0  0
    0.5053    1.8029    0.5333 H   0  0  0  0  0  0  0  0  0  0  0  0
   -1.1042    1.8861   -0.9016 C   0  0  0  0  0  0  0  0  0  0  0  0
   -0.4591    1.7041   -1.7645 H   0  0  0  0  0  0  0  0  0  0  0  0
   -2.0491    1.3630   -1.0708 H   0  0  0  0  0  0  0  0  0  0  0  0
   -1.3724    3.3947   -0.7964 C   0  0  0  0  0  0  0  0  0  0  0  0
   -1.1678    3.9594    0.3017 O   0  5  0  0  0  0  0  0  0  0  0  0
   -1.7598    3.9696   -1.8380 O   0  0  0  0  0  0  0  0  0  0  0  0
    0.6966   -0.7640    1.3972 C   0  0  0  0  0  0  0  0  0  0  0  0
    1.8995   -0.4969    1.4323 O   0  0  0  0  0  0  0  0  0  0  0  0
    0.1063   -1.5043    2.3447 N   0  0  0  0  0  0  0  0  0  0  0  0
   -0.8703   -1.7266    2.2208 H   0  0  0  0  0  0  0  0  0  0  0  0
    0.8110   -2.1026    3.4755 C   0  0  0  0  0  0  0  0  0  0  0  0
    1.4045   -1.3410    3.9842 H   0  0  0  0  0  0  0  0  0  0  0  0
    0.0964   -2.5363    4.1764 H   0  0  0  0  0  0  0  0  0  0  0  0
    1.4814   -2.8840    3.1123 H   0  0  0  0  0  0  0  0  0  0  0  0
  5  6  2  0  0  0  0
  5  7  1  0  0  0  0
  2  3  1  0  0  0  0
  2  4  1  0  0  0  0
  2  5  1  0  0  0  0
  1  2  1  0  0  0  0
 20 21  2  0  0  0  0
 20 22  1  0  0  0  0
 17 18  1  0  0  0  0
 17 19  2  0  0  0  0
 14 15  1  0  0  0  0
 14 16  1  0  0  0  0
 14 17  1  0  0  0  0
 11 12  1  0  0  0  0
 11 13  1  0  0  0  0
 11 14  1  0  0  0  0
  9 10  1  0  0  0  0
  9 11  1  0  0  0  0
  9 20  1  0  0  0  0
  7  8  1  0  0  0  0
  7  9  1  0  0  0  0
 24 25  1  0  0  0  0
 24 26  1  0  0  0  0
 24 27  1  0  0  0  0
 22 23  1  0  0  0  0
 22 24  1  0  0  0  0
M  CHG  1  18  -1
M  END
$$$$
default_name
  -OEChem-01062215323D

 27 26  0     1  0  0  0  0  0999 V2000
   -3.2406   -3.5400    1.2326 H   0  0  0  0  0  0  0  0  0  0  0  0
   -3.1436   -2.6190    0.6606 C   0  0  0  0  0  0  0  0  0  0  0  0
   -3.8786   -1.8920    0.9996 H   0  0  0  0  0  0  0  0  0  0  0  0
   -3.2846   -2.8280   -0.3984 H   0  0  0  0  0  0  0  0  0  0  0  0
   -1.7586   -2.0580    0.8686 C   0  0  0  0  0  0  0  0  0  0  0  0
   -0.9666   -2.6340    1.6026 O   0  0  0  0  0  0  0  0  0  0  0  0
   -1.4866   -0.9220    0.2366 N   0  0  0  0  0  0  0  0  0  0  0  0
   -2.2166   -0.4790   -0.2994 H   0  0  0  0  0  0  0  0  0  0  0  0
   -0.1956   -0.2250    0.2596 C   0  0  1  0  0  0  0  0  0  0  0  0
    0.3234   -0.4155   -0.6802 H   0  0  0  0  0  0  0  0  0  0  0  0
   -0.4430    1.2940    0.3545 C   0  0  0  0  0  0  0  0  0  0  0  0
   -1.0978    1.4753    1.2082 H   0  0  0  0  0  0  0  0  0  0  0  0
    0.5053    1.8029    0.5333 H   0  0  0  0  0  0  0  0  0  0  0  0
   -1.1042    1.8861   -0.9016 C   0  0  0  0  0  0  0  0  0  0  0  0
   -0.4591    1.7041   -1.7645 H   0  0  0  0  0  0  0  0  0  0  0  0
   -2.0491    1.3630   -1.0708 H   0  0  0  0  0  0  0  0  0  0  0  0
   -1.3724    3.3947   -0.7964 C   0  0  0  0  0  0  0  0  0  0  0  0
   -1.1678    3.9594    0.3017 O   0  5  0  0  0  0  0  0  0  0  0  0
   -1.7598    3.9696   -1.8380 O   0  0  0  0  0  0  0  0  0  0  0  0
    0.6966   -0.7640    1.3972 C   0  0  0  0  0  0  0  0  0  0  0  0
    1.8168   -0.2891    1.5956 O   0  0  0  0  0  0  0  0  0  0  0  0
    0.1942   -1.7408    2.1637 N   0  0  0  0  0  0  0  0  0  0  0  0
   -0.7069   -2.1165    1.9079 H   0  0  0  0  0  0  0  0  0  0  0  0
    0.9154   -2.3707    3.2666 C   0  0  0  0  0  0  0  0  0  0  0  0
    1.3063   -1.6034    3.9370 H   0  0  0  0  0  0  0  0  0  0  0  0
    0.2495   -3.0340    3.8205 H   0  0  0  0  0  0  0  0  0  0  0  0
    1.7526   -2.9479    2.8693 H   0  0  0  0  0  0  0  0  0  0  0  0
  5  6  2  0  0  0  0
  5  7  1  0  0  0  0
  2  3  1  0  0  0  0
  2  4  1  0  0  0  0
  2  5  1  0  0  0  0
  1  2  1  0  0  0  0
 20 21  2  0  0  0  0
 20 22  1  0  0  0  0
 17 18  1  0  0  0  0
 17 19  2  0  0  0  0
 14 15  1  0  0  0  0
 14 16  1  0  0  0  0
 14 17  1  0  0  0  0
 11 12  1  0  0  0  0
 11 13  1  0  0  0  0
 11 14  1  0  0  0  0
  9 10  1  0  0  0  0
  9 11  1  0  0  0  0
  9 20  1  0  0  0  0
  7  8  1  0  0  0  0
  7  9  1  0  0  0  0
 24 25  1  0  0  0  0
 24 26  1  0  0  0  0
 24 27  1  0  0  0  0
 22 23  1  0  0  0  0
 22 24  1  0  0  0  0
M  CHG  1  18  -1
M  END
$$$$
default_name
  -OEChem-01062215323D

 27 26  0     1  0  0  0  0  0999 V2000
   -3.2406   -3.5400    1.2326 H   0  0  0  0  0  0  0  0  0  0  0  0
   -3.1436   -2.6190    0.6606 C   0  0  0  0  0  0  0  0  0  0  0  0
   -3.8786   -1.8920    0.9996 H   0  0  0  0  0  0  0  0  0  0  0  0
   -3.2846   -2.8280   -0.3984 H   0  0  0  0  0  0  0  0  0  0  0  0
   -1.7586   -2.0580    0.8686 C   0  0  0  0  0  0  0  0  0  0  0  0
   -0.9666   -2.6340    1.6026 O   0  0  0  0  0  0  0  0  0  0  0  0
   -1.4866   -0.9220    0.2366 N   0  0  0  0  0  0  0  0  0  0  0  0
   -2.2166   -0.4790   -0.2994 H   0  0  0  0  0  0  0  0  0  0  0  0
   -0.1956   -0.2250    0.2596 C   0  0  1  0  0  0  0  0  0  0  0  0
    0.3234   -0.4155   -0.6802 H   0  0  0  0  0  0  0  0  0  0  0  0
   -0.4430    1.2940    0.3545 C   0  0  0  0  0  0  0  0  0  0  0  0
   -1.0978    1.4753    1.2082 H   0  0  0  0  0  0  0  0  0  0  0  0
    0.5053    1.8029    0.5333 H   0  0  0  0  0  0  0  0  0  0  0  0
   -1.1042    1.8861   -0.9016 C   0  0  0  0  0  0  0  0  0  0  0  0
   -0.4591    1.7041   -1.7645 H   0  0  0  0  0  0  0  0  0  0  0  0
   -2.0491    1.3630   -1.0708 H   0  0  0  0  0  0  0  0  0  0  0  0
   -1.3724    3.3947   -0.7964 C   0  0  0  0  0  0  0  0  0  0  0  0
   -1.1678    3.9594    0.3017 O   0  5  0  0  0  0  0  0  0  0  0  0
   -1.7598    3.9696   -1.8380 O   0  0  0  0  0  0  0  0  0  0  0  0
    0.6966   -0.7640    1.3972 C   0  0  0  0  0  0  0  0  0  0  0  0
    1.6824   -0.1287    1.7770 O   0  0  0  0  0  0  0  0  0  0  0  0
    0.3405   -1.9254    1.9615 N   0  0  0  0  0  0  0  0  0  0  0  0
   -0.4464   -2.4151    1.5622 H   0  0  0  0  0  0  0  0  0  0  0  0
    1.0862   -2.5786    3.0342 C   0  0  0  0  0  0  0  0  0  0  0  0
    1.2657   -1.8685    3.8432 H   0  0  0  0  0  0  0  0  0  0  0  0
    0.5245   -3.4322    3.4161 H   0  0  0  0  0  0  0  0  0  0  0  0
    2.0487   -2.9215    2.6496 H   0  0  0  0  0  0  0  0  0  0  0  0
  5  6  2  0  0  0  0
  5  7  1  0  0  0  0
  2  3  1  0  0  0  0
  2  4  1  0  0  0  0
  2  5  1  0  0  0  0
  1  2  1  0  0  0  0
 20 21  2  0  0  0  0
 20 22  1  0  0  0  0
 17 18  1  0  0  0  0
 17 19  2  0  0  0  0
 14 15  1  0  0  0  0
 14 16  1  0  0  0  0
 14 17  1  0  0  0  0
 11 12  1  0  0  0  0
 11 13  1  0  0  0  0
 11 14  1  0  0  0  0
  9 10  1  0  0  0  0
  9 11  1  0  0  0  0
  9 20  1  0  0  0  0
  7  8  1  0  0  0  0
  7  9  1  0  0  0  0
 24 25  1  0  0  0  0
 24 26  1  0  0  0  0
 24 27  1  0  0  0  0
 22 23  1  0  0  0  0
 22 24  1  0  0  0  0
M  CHG  1  18  -1
M  END
$$$$
default_name
  -OEChem-01062215323D

 27 26  0     1  0  0  0  0  0999 V2000
   -3.2406   -3.5400    1.2326 H   0  0  0  0  0  0  0  0  0  0  0  0
   -3.1436   -2.6190    0.6606 C   0  0  0  0  0  0  0  0  0  0  0  0
   -3.8786   -1.8920    0.9996 H   0  0  0  0  0  0  0  0  0  0  0  0
   -3.2846   -2.8280   -0.3984 H   0  0  0  0  0  0  0  0  0  0  0  0
   -1.7586   -2.0580    0.8686 C   0  0  0  0  0  0  0  0  0  0  0  0
   -0.9666   -2.6340    1.6026 O   0  0  0  0  0  0  0  0  0  0  0  0
   -1.4866   -0.9220    0.2366 N   0  0  0  0  0  0  0  0  0  0  0  0
   -2.2166   -0.4790   -0.2994 H   0  0  0  0  0  0  0  0  0  0  0  0
   -0.1956   -0.2250    0.2596 C   0  0  1  0  0  0  0  0  0  0  0  0
    0.3234   -0.4155   -0.6802 H   0  0  0  0  0  0  0  0  0  0  0  0
   -0.4430    1.2940    0.3545 C   0  0  0  0  0  0  0  0  0  0  0  0
   -1.0978    1.4753    1.2082 H   0  0  0  0  0  0  0  0  0  0  0  0
    0.5053    1.8029    0.5333 H   0  0  0  0  0  0  0  0  0  0  0  0
   -1.1042    1.8861   -0.9016 C   0  0  0  0  0  0  0  0  0  0  0  0
   -0.4591    1.7041   -1.7645 H   0  0  0  0  0  0  0  0  0  0  0  0
   -2.0491    1.3630   -1.0708 H   0  0  0  0  0  0  0  0  0  0  0  0
   -1.3724    3.3947   -0.7964 C   0  0  0  0  0  0  0  0  0  0  0  0
   -1.1678    3.9594    0.3017 O   0  5  0  0  0  0  0  0  0  0  0  0
   -1.7598    3.9696   -1.8380 O   0  0  0  0  0  0  0  0  0  0  0  0
    0.6966   -0.7640    1.3972 C   0  0  0  0  0  0  0  0  0  0  0  0
    1.5056   -0.0265    1.9640 O   0  0  0  0  0  0  0  0  0  0  0  0
    0.5354   -2.0456    1.7517 N   0  0  0  0  0  0  0  0  0  0  0  0
   -0.1066   -2.6021    1.2071 H   0  0  0  0  0  0  0  0  0  0  0  0
    1.3120   -2.7119    2.7940 C   0  0  0  0  0  0  0  0  0  0  0  0
    1.2855   -2.1183    3.7093 H   0  0  0  0  0  0  0  0  0  0  0  0
    0.9028   -3.7039    2.9908 H   0  0  0  0  0  0  0  0  0  0  0  0
    2.3496   -2.8067    2.4680 H   0  0  0  0  0  0  0  0  0  0  0  0
  5  6  2  0  0  0  0
  5  7  1  0  0  0  0
  2  3  1  0  0  0  0
  2  4  1  0  0  0  0
  2  5  1  0  0  0  0
  1  2  1  0  0  0  0
 20 21  2  0  0  0  0
 20 22  1  0  0  0  0
 17 18  1  0  0  0  0
 17 19  2  0  0  0  0
 14 15  1  0  0  0  0
 14 16  1  0  0  0  0
 14 17  1  0  0  0  0
 11 12  1  0  0  0  0
 11 13  1  0  0  0  0
 11 14  1  0  0  0  0
  9 10  1  0  0  0  0
  9 11  1  0  0  0  0
  9 20  1  0  0  0  0
  7  8  1  0  0  0  0
  7  9  1  0  0  0  0
 24 25  1  0  0  0  0
 24 26  1  0  0  0  0
 24 27  1  0  0  0  0
 22 23  1  0  0  0  0
 22 24  1  0  0  0  0
M  CHG  1  18  -1
M  END
$$$$
default_name
  -OEChem-01062215323D

 27 26  0     1  0  0  0  0  0999 V2000
   -3.2406   -3.5400    1.2326 H   0  0  0  0  0  0  0  0  0  0  0  0
   -3.1436   -2.6190    0.6606 C   0  0  0  0  0  0  0  0  0  0  0  0
   -3.8786   -1.8920    0.9996 H   0  0  0  0  0  0  0  0  0  0  0  0
   -3.2846   -2.8280   -0.3984 H   0  0  0  0  0  0  0  0  0  0  0  0
   -1.7586   -2.0580    0.8686 C   0  0  0  0  0  0  0  0  0  0  0  0
   -0.9666   -2.6340    1.6026 O   0  0  0  0  0  0  0  0  0  0  0  0
   -1.4866   -0.9220    0.2366 N   0  0  0  0  0  0  0  0  0  0  0  0
   -2.2166   -0.4790   -0.2994 H   0  0  0  0  0  0  0  0  0  0  0  0
   -0.1956   -0.2250    0.2596 C   0  0  1  0  0  0  0  0  0  0  0  0
    0.3234   -0.4155   -0.6802 H   0  0  0  0  0  0  0  0  0  0  0  0
   -0.4430    1.2940    0.3545 C   0  0  0  0  0  0  0  0  0  0  0  0
   -1.0978    1.4753    1.2082 H   0  0  0  0  0  0  0  0  0  0  0  0
    0.5053    1.8029    0.5333 H   0  0  0  0  0  0  0  0  0  0  0  0
   -1.1042    1.8861   -0.9016 C   0  0  0  0  0  0  0  0  0  0  0  0
   -0.4591    1.7041   -1.7645 H   0  0  0  0  0  0  0  0  0  0  0  0
   -2.0491    1.3630   -1.0708 H   0  0  0  0  0  0  0  0  0  0  0  0
   -1.3724    3.3947   -0.7964 C   0  0  0  0  0  0  0  0  0  0  0  0
   -1.1678    3.9594    0.3017 O   0  5  0  0  0  0  0  0  0  0  0  0
   -1.7598    3.9696   -1.8380 O   0  0  0  0  0  0  0  0  0  0  0  0
    0.6966   -0.7640    1.3972 C   0  0  0  0  0  0  0  0  0  0  0  0
    1.2984    0.0105    2.1440 O   0  0  0  0  0  0  0  0  0  0  0  0
    0.7656   -2.0930    1.5488 N   0  0  0  0  0  0  0  0  0  0  0  0
    0.2895   -2.6647    0.8668 H   0  0  0  0  0  0  0  0  0  0  0  0
    1.5771   -2.7618    2.5624 C   0  0  0  0  0  0  0  0  0  0  0  0
    1.3645   -2.3357    3.5444 H   0  0  0  0  0  0  0  0  0  0  0  0
    1.3584   -3.8305    2.5735 H   0  0  0  0  0  0  0  0  0  0  0  0
    2.6347   -2.6111    2.3371 H   0  0  0  0  0  0  0  0  0  0  0  0
  5  6  2  0  0  0  0
  5  7  1  0  0  0  0
  2  3  1  0  0  0  0
  2  4  1  0  0  0  0
  2  5  1  0  0  0  0
  1  2  1  0  0  0  0
 20 21  2  0  0  0  0
 20 22  1  0  0  0  0
 17 18  1  0  0  0  0
 17 19  2  0  0  0  0
 14 15  1  0  0  0  0
 14 16  1  0  0  0  0
 14 17  1  0  0  0  0
 11 12  1  0  0  0  0
 11 13  1  0  0  0  0
 11 14  1  0  0  0  0
  9 10  1  0  0  0  0
  9 11  1  0  0  0  0
  9 20  1  0  0  0  0
  7  8  1  0  0  0  0
  7  9  1  0  0  0  0
 24 25  1  0  0  0  0
 24 26  1  0  0  0  0
 24 27  1  0  0  0  0
 22 23  1  0  0  0  0
 22 24  1  0  0  0  0
M  CHG  1  18  -1
M  END
$$$$
default_name
  -OEChem-01062215323D

 27 26  0     1  0  0  0  0  0999 V2000
   -3.2406   -3.5400    1.2326 H   0  0  0  0  0  0  0  0  0  0  0  0
   -3.1436   -2.6190    0.6606 C   0  0  0  0  0  0  0  0  0  0  0  0
   -3.8786   -1.8920    0.9996 H   0  0  0  0  0  0  0  0  0  0  0  0
   -3.2846   -2.8280   -0.3984 H   0  0  0  0  0  0  0  0  0  0  0  0
   -1.7586   -2.0580    0.8686 C   0  0  0  0  0  0  0  0  0  0  0  0
   -0.9666   -2.6340    1.6026 O   0  0  0  0  0  0  0  0  0  0  0  0
   -1.4866   -0.9220    0.2366 N   0  0  0  0  0  0  0  0  0  0  0  0
   -2.2166   -0.4790   -0.2994 H   0  0  0  0  0  0  0  0  0  0  0  0
   -0.1956   -0.2250    0.2596 C   0  0  1  0  0  0  0  0  0  0  0  0
    0.3234   -0.4155   -0.6802 H   0  0  0  0  0  0  0  0  0  0  0  0
   -0.4430    1.2940    0.3545 C   0  0  0  0  0  0  0  0  0  0  0  0
   -1.0978    1.4753    1.2082 H   0  0  0  0  0  0  0  0  0  0  0  0
    0.5053    1.8029    0.5333 H   0  0  0  0  0  0  0  0  0  0  0  0
   -1.1042    1.8861   -0.9016 C   0  0  0  0  0  0  0  0  0  0  0  0
   -0.4591    1.7041   -1.7645 H   0  0  0  0  0  0  0  0  0  0  0  0
   -2.0491    1.3630   -1.0708 H   0  0  0  0  0  0  0  0  0  0  0  0
   -1.3724    3.3947   -0.7964 C   0  0  0  0  0  0  0  0  0  0  0  0
   -1.1678    3.9594    0.3017 O   0  5  0  0  0  0  0  0  0  0  0  0
   -1.7598    3.9696   -1.8380 O   0  0  0  0  0  0  0  0  0  0  0  0
    0.6966   -0.7640    1.3972 C   0  0  0  0  0  0  0  0  0  0  0  0
    1.0750   -0.0203    2.3046 O   0  0  0  0  0  0  0  0  0  0  0  0
    1.0153   -2.0646    1.3664 N   0  0  0  0  0  0  0  0  0  0  0  0
    0.7148   -2.5987    0.5646 H   0  0  0  0  0  0  0  0  0  0  0  0
    1.8637   -2.7246    2.3553 C   0  0  0  0  0  0  0  0  0  0  0  0
    1.4971   -2.5060    3.3597 H   0  0  0  0  0  0  0  0  0  0  0  0
    1.8605   -3.8033    2.1927 H   0  0  0  0  0  0  0  0  0  0  0  0
    2.8846   -2.3482    2.2656 H   0  0  0  0  0  0  0  0  0  0  0  0
  5  6  2  0  0  0  0
  5  7  1  0  0  0  0
  2  3  1  0  0  0  0
  2  4  1  0  0  0  0
  2  5  1  0  0  0  0
  1  2  1  0  0  0  0
 20 21  2  0  0  0  0
 20 22  1  0  0  0  0
 17 18  1  0  0  0  0
 17 19  2  0  0  0  0
 14 15  1  0  0  0  0
 14 16  1  0  0  0  0
 14 17  1  0  0  0  0
 11 12  1  0  0  0  0
 11 13  1  0  0  0  0
 11 14  1  0  0  0  0
  9 10  1  0  0  0  0
  9 11  1  0  0  0  0
  9 20  1  0  0  0  0
  7  8  1  0  0  0  0
  7  9  1  0  0  0  0
 24 25  1  0  0  0  0
 24 26  1  0  0  0  0
 24 27  1  0  0  0  0
 22 23  1  0  0  0  0
 22 24  1  0  0  0  0
M  CHG  1  18  -1
M  END
$$$$
default_name
  -OEChem-01062215323D

 27 26  0     1  0  0  0  0  0999 V2000
   -3.2406   -3.5400    1.2326 H   0  0  0  0  0  0  0  0  0  0  0  0
   -3.1436   -2.6190    0.6606 C   0  0  0  0  0  0  0  0  0  0  0  0
   -3.8786   -1.8920    0.9996 H   0  0  0  0  0  0  0  0  0  0  0  0
   -3.2846   -2.8280   -0.3984 H   0  0  0  0  0  0  0  0  0  0  0  0
   -1.7586   -2.0580    0.8686 C   0  0  0  0  0  0  0  0  0  0  0  0
   -0.9666   -2.6340    1.6026 O   0  0  0  0  0  0  0  0  0  0  0  0
   -1.4866   -0.9220    0.2366 N   0  0  0  0  0  0  0  0  0  0  0  0
   -2.2166   -0.4790   -0.2994 H   0  0  0  0  0  0  0  0  0  0  0  0
   -0.1956   -0.2250    0.2596 C   0  0  1  0  0  0  0  0  0  0  0  0
    0.3234   -0.4155   -0.6802 H   0  0  0  0  0  0  0  0  0  0  0  0
   -0.4430    1.2940    0.3545 C   0  0  0  0  0  0  0  0  0  0  0  0
   -1.0978    1.4753    1.2082 H   0  0  0  0  0  0  0  0  0  0  0  0
    0.5053    1.8029    0.5333 H   0  0  0  0  0  0  0  0  0  0  0  0
   -1.1042    1.8861   -0.9016 C   0  0  0  0  0  0  0  0  0  0  0  0
   -0.4591    1.7041   -1.7645 H   0  0  0  0  0  0  0  0  0  0  0  0
   -2.0491    1.3630   -1.0708 H   0  0  0  0  0  0  0  0  0  0  0  0
   -1.3724    3.3947   -0.7964 C   0  0  0  0  0  0  0  0  0  0  0  0
   -1.1678    3.9594    0.3017 O   0  5  0  0  0  0  0  0  0  0  0  0
   -1.7598    3.9696   -1.8380 O   0  0  0  0  0  0  0  0  0  0  0  0
    0.6966   -0.7640    1.3972 C   0  0  0  0  0  0  0  0  0  0  0  0
    0.8505   -0.1167    2.4350 O   0  0  0  0  0  0  0  0  0  0  0  0
    1.2675   -1.9622    1.2171 N   0  0  0  0  0  0  0  0  0  0  0  0
    1.1403   -2.4085    0.3210 H   0  0  0  0  0  0  0  0  0  0  0  0
    2.1522   -2.6030    2.1867 C   0  0  0  0  0  0  0  0  0  0  0  0
    1.6745   -2.6175    3.1677 H   0  0  0  0  0  0  0  0  0  0  0  0
    2.3746   -3.6243    1.8743 H   0  0  0  0  0  0  0  0  0  0  0  0
    3.0823   -2.0359    2.2585 H   0  0  0  0  0  0  0  0  0  0  0  0
  5  6  2  0  0  0  0
  5  7  1  0  0  0  0
  2  3  1  0  0  0  0
  2  4  1  0  0  0  0
  2  5  1  0  0  0  0
  1  2  1  0  0  0  0
 20 21  2  0  0  0  0
 20 22  1  0  0  0  0
 17 18  1  0  0  0  0
 17 19  2  0  0  0  0
 14 15  1  0  0  0  0
 14 16  1  0  0  0  0
 14 17  1  0  0  0  0
 11 12  1  0  0  0  0
 11 13  1  0  0  0  0
 11 14  1  0  0  0  0
  9 10  1  0  0  0  0
  9 11  1  0  0  0  0
  9 20  1  0  0  0  0
  7  8  1  0  0  0  0
  7  9  1  0  0  0  0
 24 25  1  0  0  0  0
 24 26  1  0  0  0  0
 24 27  1  0  0  0  0
 22 23  1  0  0  0  0
 22 24  1  0  0  0  0
M  CHG  1  18  -1
M  END
$$$$
default_name
  -OEChem-01062215323D

 27 26  0     1  0  0  0  0  0999 V2000
   -3.2406   -3.5400    1.2326 H   0  0  0  0  0  0  0  0  0  0  0  0
   -3.1436   -2.6190    0.6606 C   0  0  0  0  0  0  0  0  0  0  0  0
   -3.8786   -1.8920    0.9996 H   0  0  0  0  0  0  0  0  0  0  0  0
   -3.2846   -2.8280   -0.3984 H   0  0  0  0  0  0  0  0  0  0  0  0
   -1.7586   -2.0580    0.8686 C   0  0  0  0  0  0  0  0  0  0  0  0
   -0.9666   -2.6340    1.6026 O   0  0  0  0  0  0  0  0  0  0  0  0
   -1.4866   -0.9220    0.2366 N   0  0  0  0  0  0  0  0  0  0  0  0
   -2.2166   -0.4790   -0.2994 H   0  0  0  0  0  0  0  0  0  0  0  0
   -0.1956   -0.2250    0.2596 C   0  0  1  0  0  0  0  0  0  0  0  0
    0.3234   -0.4155   -0.6802 H   0  0  0  0  0  0  0  0  0  0  0  0
   -0.4430    1.2940    0.3545 C   0  0  0  0  0  0  0  0  0  0  0  0
   -1.0978    1.4753    1.2082 H   0  0  0  0  0  0  0  0  0  0  0  0
    0.5053    1.8029    0.5333 H   0  0  0  0  0  0  0  0  0  0  0  0
   -1.1042    1.8861   -0.9016 C   0  0  0  0  0  0  0  0  0  0  0  0
   -0.4591    1.7041   -1.7645 H   0  0  0  0  0  0  0  0  0  0  0  0
   -2.0491    1.3630   -1.0708 H   0  0  0  0  0  0  0  0  0  0  0  0
   -1.3724    3.3947   -0.7964 C   0  0  0  0  0  0  0  0  0  0  0  0
   -1.1678    3.9594    0.3017 O   0  5  0  0  0  0  0  0  0  0  0  0
   -1.7598    3.9696   -1.8380 O   0  0  0  0  0  0  0  0  0  0  0  0
    0.6966   -0.7640    1.3972 C   0  0  0  0  0  0  0  0  0  0  0  0
    0.6403   -0.2722    2.5262 O   0  0  0  0  0  0  0  0  0  0  0  0
    1.5051   -1.7928    1.1110 N   0  0  0  0  0  0  0  0  0  0  0  0
    1.5370   -2.1072    0.1526 H   0  0  0  0  0  0  0  0  0  0  0  0
    2.4229   -2.4053    2.0681 C   0  0  0  0  0  0  0  0  0  0  0  0
    1.8844   -2.6627    2.9817 H   0  0  0  0  0  0  0  0  0  0  0  0
    2.8659   -3.3057    1.6400 H   0  0  0  0  0  0  0  0  0  0  0  0
    3.2143   -1.6955    2.3163 H   0  0  0  0  0  0  0  0  0  0  0  0
  5  6  2  0  0  0  0
  5  7  1  0  0  0  0
  2  3  1  0  0  0  0
  2  4  1  0  0  0  0
  2  5  1  0  0  0  0
  1  2  1  0  0  0  0
 20 21  2  0  0  0  0
 20 22  1  0  0  0  0
 17 18  1  0  0  0  0
 17 19  2  0  0  0  0
 14 15  1  0  0  0  0
 14 16  1  0  0  0  0
 14 17  1  0  0  0  0
 11 12  1  0  0  0  0
 11 13  1  0  0  0  0
 11 14  1  0  0  0  0
  9 10  1  0  0  0  0
  9 11  1  0  0  0  0
  9 20  1  0  0  0  0
  7  8  1  0  0  0  0
  7  9  1  0  0  0  0
 24 25  1  0  0  0  0
 24 26  1  0  0  0  0
 24 27  1  0  0  0  0
 22 23  1  0  0  0  0
 22 24  1  0  0  0  0
M  CHG  1  18  -1
M  END
$$$$
default_name
  -OEChem-01062215323D

 27 26  0     1  0  0  0  0  0999 V2000
   -3.2406   -3.5400    1.2326 H   0  0  0  0  0  0  0  0  0  0  0  0
   -3.1436   -2.6190    0.6606 C   0  0  0  0  0  0  0  0  0  0  0  0
   -3.8786   -1.8920    0.9996 H   0  0  0  0  0  0  0  0  0  0  0  0
   -3.2846   -2.8280   -0.3984 H   0  0  0  0  0  0  0  0  0  0  0  0
   -1.7586   -2.0580    0.8686 C   0  0  0  0  0  0  0  0  0  0  0  0
   -0.9666   -2.6340    1.6026 O   0  0  0  0  0  0  0  0  0  0  0  0
   -1.4866   -0.9220    0.2366 N   0  0  0  0  0  0  0  0  0  0  0  0
   -2.2166   -0.4790   -0.2994 H   0  0  0  0  0  0  0  0  0  0  0  0
   -0.1956   -0.2250    0.2596 C   0  0  1  0  0  0  0  0  0  0  0  0
    0.3234   -0.4155   -0.6802 H   0  0  0  0  0  0  0  0  0  0  0  0
   -0.4430    1.2940    0.3545 C   0  0  0  0  0  0  0  0  0  0  0  0
   -1.0978    1.4753    1.2082 H   0  0  0  0  0  0  0  0  0  0  0  0
    0.5053    1.8029    0.5333 H   0  0  0  0  0  0  0  0  0  0  0  0
   -1.1042    1.8861   -0.9016 C   0  0  0  0  0  0  0  0  0  0  0  0
   -0.4591    1.7041   -1.7645 H   0  0  0  0  0  0  0  0  0  0  0  0
   -2.0491    1.3630   -1.0708 H   0  0  0  0  0  0  0  0  0  0  0  0
   -1.3724    3.3947   -0.7964 C   0  0  0  0  0  0  0  0  0  0  0  0
   -1.1678    3.9594    0.3017 O   0  5  0  0  0  0  0  0  0  0  0  0
   -1.7598    3.9696   -1.8380 O   0  0  0  0  0  0  0  0  0  0  0  0
    0.6966   -0.7640    1.3972 C   0  0  0  0  0  0  0  0  0  0  0  0
    0.4587   -0.4761    2.5721 O   0  0  0  0  0  0  0  0  0  0  0  0
    1.7119   -1.5679    1.0554 N   0  0  0  0  0  0  0  0  0  0  0  0
    1.8780   -1.7152    0.0709 H   0  0  0  0  0  0  0  0  0  0  0  0
    2.6573   -2.1449    2.0076 C   0  0  0  0  0  0  0  0  0  0  0  0
    2.1126   -2.6384    2.8142 H   0  0  0  0  0  0  0  0  0  0  0  0
    3.3008   -2.8690    1.5058 H   0  0  0  0  0  0  0  0  0  0  0  0
    3.2716   -1.3501    2.4350 H   0  0  0  0  0  0  0  0  0  0  0  0
  5  6  2  0  0  0  0
  5  7  1  0  0  0  0
  2  3  1  0  0  0  0
  2  4  1  0  0  0  0
  2  5  1  0  0  0  0
  1  2  1  0  0  0  0
 20 21  2  0  0  0  0
 20 22  1  0  0  0  0
 17 18  1  0  0  0  0
 17 19  2  0  0  0  0
 14 15  1  0  0  0  0
 14 16  1  0  0  0  0
 14 17  1  0  0  0  0
 11 12  1  0  0  0  0
 11 13  1  0  0  0  0
 11 14  1  0  0  0  0
  9 10  1  0  0  0  0
  9 11  1  0  0  0  0
  9 20  1  0  0  0  0
  7  8  1  0  0  0  0
  7  9  1  0  0  0  0
 24 25  1  0  0  0  0
 24 26  1  0  0  0  0
 24 27  1  0  0  0  0
 22 23  1  0  0  0  0
 22 24  1  0  0  0  0
M  CHG  1  18  -1
M  END
$$$$
default_name
  -OEChem-01062215323D

 27 26  0     1  0  0  0  0  0999 V2000
   -3.2406   -3.5400    1.2326 H   0  0  0  0  0  0  0  0  0  0  0  0
   -3.1436   -2.6190    0.6606 C   0  0  0  0  0  0  0  0  0  0  0  0
   -3.8786   -1.8920    0.9996 H   0  0  0  0  0  0  0  0  0  0  0  0
   -3.2846   -2.8280   -0.3984 H   0  0  0  0  0  0  0  0  0  0  0  0
   -1.7586   -2.0580    0.8686 C   0  0  0  0  0  0  0  0  0  0  0  0
   -0.9666   -2.6340    1.6026 O   0  0  0  0  0  0  0  0  0  0  0  0
   -1.4866   -0.9220    0.2366 N   0  0  0  0  0  0  0  0  0  0  0  0
   -2.2166   -0.4790   -0.2994 H   0  0  0  0  0  0  0  0  0  0  0  0
   -0.1956   -0.2250    0.2596 C   0  0  1  0  0  0  0  0  0  0  0  0
    0.3234   -0.4155   -0.6802 H   0  0  0  0  0  0  0  0  0  0  0  0
   -0.4430    1.2940    0.3545 C   0  0  0  0  0  0  0  0  0  0  0  0
   -1.0978    1.4753    1.2082 H   0  0  0  0  0  0  0  0  0  0  0  0
    0.5053    1.8029    0.5333 H   0  0  0  0  0  0  0  0  0  0  0  0
   -1.1042    1.8861   -0.9016 C   0  0  0  0  0  0  0  0  0  0  0  0
   -0.4591    1.7041   -1.7645 H   0  0  0  0  0  0  0  0  0  0  0  0
   -2.0491    1.3630   -1.0708 H   0  0  0  0  0  0  0  0  0  0  0  0
   -1.3724    3.3947   -0.7964 C   0  0  0  0  0  0  0  0  0  0  0  0
   -1.1678    3.9594    0.3017 O   0  5  0  0  0  0  0  0  0  0  0  0
   -1.7598    3.9696   -1.8380 O   0  0  0  0  0  0  0  0  0  0  0  0
    0.6966   -0.7640    1.3972 C   0  0  0  0  0  0  0  0  0  0  0  0
    0.3180   -0.7146    2.5694 O   0  0  0  0  0  0  0  0  0  0  0  0
    1.8738   -1.3029    1.0540 N   0  0  0  0  0  0  0  0  0  0  0  0
    2.1399   -1.2593    0.0815 H   0  0  0  0  0  0  0  0  0  0  0  0
    2.8396   -1.8396    2.0093 C   0  0  0  0  0  0  0  0  0  0  0  0
    2.3436   -2.5463    2.6767 H   0  0  0  0  0  0  0  0  0  0  0  0
    3.6497   -2.3442    1.4808 H   0  0  0  0  0  0  0  0  0  0  0  0
    3.2504   -1.0233    2.6065 H   0  0  0  0  0  0  0  0  0  0  0  0
  5  6  2  0  0  0  0
  5  7  1  0  0  0  0
  2  3  1  0  0  0  0
  2  4  1  0  0  0  0
  2  5  1  0  0  0  0
  1  2  1  0  0  0  0
 20 21  2  0  0  0  0
 20 22  1  0  0  0  0
 17 18  1  0  0  0  0
 17 19  2  0  0  0  0
 14 15  1  0  0  0  0
 14 16  1  0  0  0  0
 14 17  1  0  0  0  0
 11 12  1  0  0  0  0
 11 13  1  0  0  0  0
 11 14  1  0  0  0  0
  9 10  1  0  0  0  0
  9 11  1  0  0  0  0
  9 20  1  0  0  0  0
  7  8  1  0  0  0  0
  7  9  1  0  0  0  0
 24 25  1  0  0  0  0
 24 26  1  0  0  0  0
 24 27  1  0  0  0  0
 22 23  1  0  0  0  0
 22 24  1  0  0  0  0
M  CHG  1  18  -1
M  END
$$$$
default_name
  -OEChem-01062215323D

 27 26  0     1  0  0  0  0  0999 V2000
   -3.2406   -3.5400    1.2326 H   0  0  0  0  0  0  0  0  0  0  0  0
   -3.1436   -2.6190    0.6606 C   0  0  0  0  0  0  0  0  0  0  0  0
   -3.8786   -1.8920    0.9996 H   0  0  0  0  0  0  0  0  0  0  0  0
   -3.2846   -2.8280   -0.3984 H   0  0  0  0  0  0  0  0  0  0  0  0
   -1.7586   -2.0580    0.8686 C   0  0  0  0  0  0  0  0  0  0  0  0
   -0.9666   -2.6340    1.6026 O   0  0  0  0  0  0  0  0  0  0  0  0
   -1.4866   -0.9220    0.2366 N   0  0  0  0  0  0  0  0  0  0  0  0
   -2.2166   -0.4790   -0.2994 H   0  0  0  0  0  0  0  0  0  0  0  0
   -0.1956   -0.2250    0.2596 C   0  0  1  0  0  0  0  0  0  0  0  0
    0.3234   -0.4155   -0.6802 H   0  0  0  0  0  0  0  0  0  0  0  0
   -0.4430    1.2940    0.3545 C   0  0  0  0  0  0  0  0  0  0  0  0
   -1.0978    1.4753    1.2082 H   0  0  0  0  0  0  0  0  0  0  0  0
    0.5053    1.8029    0.5333 H   0  0  0  0  0  0  0  0  0  0  0  0
   -1.1042    1.8861   -0.9016 C   0  0  0  0  0  0  0  0  0  0  0  0
   -0.4591    1.7041   -1.7645 H   0  0  0  0  0  0  0  0  0  0  0  0
   -2.0491    1.3630   -1.0708 H   0  0  0  0  0  0  0  0  0  0  0  0
   -1.3724    3.3947   -0.7964 C   0  0  0  0  0  0  0  0  0  0  0  0
   -1.1678    3.9594    0.3017 O   0  5  0  0  0  0  0  0  0  0  0  0
   -1.7598    3.9696   -1.8380 O   0  0  0  0  0  0  0  0  0  0  0  0
    0.6966   -0.7640    1.3972 C   0  0  0  0  0  0  0  0  0  0  0  0
    0.2278   -0.9714    2.5184 O   0  0  0  0  0  0  0  0  0  0  0  0
    1.9797   -1.0159    1.1070 N   0  0  0  0  0  0  0  0  0  0  0  0
    2.3049   -0.7705    0.1837 H   0  0  0  0  0  0  0  0  0  0  0  0
    2.9572   -1.5102    2.0731 C   0  0  0  0  0  0  0  0  0  0  0  0
    2.5615   -2.3928    2.5786 H   0  0  0  0  0  0  0  0  0  0  0  0
    3.8888   -1.7670    1.5668 H   0  0  0  0  0  0  0  0  0  0  0  0
    3.1519   -0.7373    2.8192 H   0  0  0  0  0  0  0  0  0  0  0  0
  5  6  2  0  0  0  0
  5  7  1  0  0  0  0
  2  3  1  0  0  0  0
  2  4  1  0  0  0  0
  2  5  1  0  0  0  0
  1  2  1  0  0  0  0
 20 21  2  0  0  0  0
 20 22  1  0  0  0  0
 17 18  1  0  0  0  0
 17 19  2  0  0  0  0
 14 15  1  0  0  0  0
 14 16  1  0  0  0  0
 14 17  1  0  0  0  0
 11 12  1  0  0  0  0
 11 13  1  0  0  0  0
 11 14  1  0  0  0  0
  9 10  1  0  0  0  0
  9 11  1  0  0  0  0
  9 20  1  0  0  0  0
  7  8  1  0  0  0  0
  7  9  1  0  0  0  0
 24 25  1  0  0  0  0
 24 26  1  0  0  0  0
 24 27  1  0  0  0  0
 22 23  1  0  0  0  0
 22 24  1  0  0  0  0
M  CHG  1  18  -1
M  END
$$$$
default_name
  -OEChem-01062215323D

 27 26  0     1  0  0  0  0  0999 V2000
   -3.2406   -3.5400    1.2326 H   0  0  0  0  0  0  0  0  0  0  0  0
   -3.1436   -2.6190    0.6606 C   0  0  0  0  0  0  0  0  0  0  0  0
   -3.8786   -1.8920    0.9996 H   0  0  0  0  0  0  0  0  0  0  0  0
   -3.2846   -2.8280   -0.3984 H   0  0  0  0  0  0  0  0  0  0  0  0
   -1.7586   -2.0580    0.8686 C   0  0  0  0  0  0  0  0  0  0  0  0
   -0.9666   -2.6340    1.6026 O   0  0  0  0  0  0  0  0  0  0  0  0
   -1.4866   -0.9220    0.2366 N   0  0  0  0  0  0  0  0  0  0  0  0
   -2.2166   -0.4790   -0.2994 H   0  0  0  0  0  0  0  0  0  0  0  0
   -0.1956   -0.2250    0.2596 C   0  0  1  0  0  0  0  0  0  0  0  0
    0.3234   -0.4155   -0.6802 H   0  0  0  0  0  0  0  0  0  0  0  0
   -0.4430    1.2940    0.3545 C   0  0  0  0  0  0  0  0  0  0  0  0
   -1.0978    1.4753    1.2082 H   0  0  0  0  0  0  0  0  0  0  0  0
    0.5053    1.8029    0.5333 H   0  0  0  0  0  0  0  0  0  0  0  0
   -1.1042    1.8861   -0.9016 C   0  0  0  0  0  0  0  0  0  0  0  0
   -0.4591    1.7041   -1.7645 H   0  0  0  0  0  0  0  0  0  0  0  0
   -2.0491    1.3630   -1.0708 H   0  0  0  0  0  0  0  0  0  0  0  0
   -1.3724    3.3947   -0.7964 C   0  0  0  0  0  0  0  0  0  0  0  0
   -1.1678    3.9594    0.3017 O   0  5  0  0  0  0  0  0  0  0  0  0
   -1.7598    3.9696   -1.8380 O   0  0  0  0  0  0  0  0  0  0  0  0
    0.6966   -0.7640    1.3972 C   0  0  0  0  0  0  0  0  0  0  0  0
    0.1944   -1.2290    2.4225 O   0  0  0  0  0  0  0  0  0  0  0  0
    2.0224   -0.7263    1.2106 N   0  0  0  0  0  0  0  0  0  0  0  0
    2.3618   -0.2822    0.3704 H   0  0  0  0  0  0  0  0  0  0  0  0
    3.0022   -1.1791    2.1947 C   0  0  0  0  0  0  0  0  0  0  0  0
    2.7516   -2.1881    2.5265 H   0  0  0  0  0  0  0  0  0  0  0  0
    4.0018   -1.1766    1.7579 H   0  0  0  0  0  0  0  0  0  0  0  0
    2.9831   -0.5118    3.0585 H   0  0  0  0  0  0  0  0  0  0  0  0
  5  6  2  0  0  0  0
  5  7  1  0  0  0  0
  2  3  1  0  0  0  0
  2  4  1  0  0  0  0
  2  5  1  0  0  0  0
  1  2  1  0  0  0  0
 20 21  2  0  0  0  0
 20 22  1  0  0  0  0
 17 18  1  0  0  0  0
 17 19  2  0  0  0  0
 14 15  1  0  0  0  0
 14 16  1  0  0  0  0
 14 17  1  0  0  0  0
 11 12  1  0  0  0  0
 11 13  1  0  0  0  0
 11 14  1  0  0  0  0
  9 10  1  0  0  0  0
  9 11  1  0  0  0  0
  9 20  1  0  0  0  0
  7  8  1  0  0  0  0
  7  9  1  0  0  0  0
 24 25  1  0  0  0  0
 24 26  1  0  0  0  0
 24 27  1  0  0  0  0
 22 23  1  0  0  0  0
 22 24  1  0  0  0  0
M  CHG  1  18  -1
M  END
$$$$
default_name
  -OEChem-01062215323D

 27 26  0     1  0  0  0  0  0999 V2000
   -3.2406   -3.5400    1.2326 H   0  0  0  0  0  0  0  0  0  0  0  0
   -3.1436   -2.6190    0.6606 C   0  0  0  0  0  0  0  0  0  0  0  0
   -3.8786   -1.8920    0.9996 H   0  0  0  0  0  0  0  0  0  0  0  0
   -3.2846   -2.8280   -0.3984 H   0  0  0  0  0  0  0  0  0  0  0  0
   -1.7586   -2.0580    0.8686 C   0  0  0  0  0  0  0  0  0  0  0  0
   -0.9666   -2.6340    1.6026 O   0  0  0  0  0  0  0  0  0  0  0  0
   -1.4866   -0.9220    0.2366 N   0  0  0  0  0  0  0  0  0  0  0  0
   -2.2166   -0.4790   -0.2994 H   0  0  0  0  0  0  0  0  0  0  0  0
   -0.1956   -0.2250    0.2596 C   0  0  1  0  0  0  0  0  0  0  0  0
    0.3234   -0.4155   -0.6802 H   0  0  0  0  0  0  0  0  0  0  0  0
   -0.4430    1.2940    0.3545 C   0  0  0  0  0  0  0  0  0  0  0  0
   -1.0978    1.4753    1.2082 H   0  0  0  0  0  0  0  0  0  0  0  0
    0.5053    1.8029    0.5333 H   0  0  0  0  0  0  0  0  0  0  0  0
   -1.1042    1.8861   -0.9016 C   0  0  0  0  0  0  0  0  0  0  0  0
   -0.4591    1.7041   -1.7645 H   0  0  0  0  0  0  0  0  0  0  0  0
   -2.0491    1.3630   -1.0708 H   0  0  0  0  0  0  0  0  0  0  0  0
   -1.3724    3.3947   -0.7964 C   0  0  0  0  0  0  0  0  0  0  0  0
   -1.1678    3.9594    0.3017 O   0  5  0  0  0  0  0  0  0  0  0  0
   -1.7598    3.9696   -1.8380 O   0  0  0  0  0  0  0  0  0  0  0  0
    0.6966   -0.7640    1.3972 C   0  0  0  0  0  0  0  0  0  0  0  0
    0.2199   -1.4699    2.2884 O   0  0  0  0  0  0  0  0  0  0  0  0
    1.9990   -0.4540    1.3580 N   0  0  0  0  0  0  0  0  0  0  0  0
    2.3067    0.1724    0.6290 H   0  0  0  0  0  0  0  0  0  0  0  0
    2.9714   -0.8689    2.3658 C   0  0  0  0  0  0  0  0  0  0  0  0
    2.9009   -1.9464    2.5239 H   0  0  0  0  0  0  0  0  0  0  0  0
    3.9810   -0.6134    2.0410 H   0  0  0  0  0  0  0  0  0  0  0  0
    2.7553   -0.3619    3.3081 H   0  0  0  0  0  0  0  0  0  0  0  0
  5  6  2  0  0  0  0
  5  7  1  0  0  0  0
  2  3  1  0  0  0  0
  2  4  1  0  0  0  0
  2  5  1  0  0  0  0
  1  2  1  0  0  0  0
 20 21  2  0  0  0  0
 20 22  1  0  0  0  0
 17 18  1  0  0  0  0
 17 19  2  0  0  0  0
 14 15  1  0  0  0  0
 14 16  1  0  0  0  0
 14 17  1  0  0  0  0
 11 12  1  0  0  0  0
 11 13  1  0  0  0  0
 11 14  1  0  0  0  0
  9 10  1  0  0  0  0
  9 11  1  0  0  0  0
  9 20  1  0  0  0  0
  7  8  1  0  0  0  0
  7  9  1  0  0  0  0
 24 25  1  0  0  0  0
 24 26  1  0  0  0  0
 24 27  1  0  0  0  0
 22 23  1  0  0  0  0
 22 24  1  0  0  0  0
M  CHG  1  18  -1
M  END
$$$$
default_name
  -OEChem-01062215323D

 27 26  0     1  0  0  0  0  0999 V2000
   -3.2406   -3.5400    1.2326 H   0  0  0  0  0  0  0  0  0  0  0  0
   -3.1436   -2.6190    0.6606 C   0  0  0  0  0  0  0  0  0  0  0  0
   -3.8786   -1.8920    0.9996 H   0  0  0  0  0  0  0  0  0  0  0  0
   -3.2846   -2.8280   -0.3984 H   0  0  0  0  0  0  0  0  0  0  0  0
   -1.7586   -2.0580    0.8686 C   0  0  0  0  0  0  0  0  0  0  0  0
   -0.9666   -2.6340    1.6026 O   0  0  0  0  0  0  0  0  0  0  0  0
   -1.4866   -0.9220    0.2366 N   0  0  0  0  0  0  0  0  0  0  0  0
   -2.2166   -0.4790   -0.2994 H   0  0  0  0  0  0  0  0  0  0  0  0
   -0.1956   -0.2250    0.2596 C   0  0  1  0  0  0  0  0  0  0  0  0
    0.2014   -0.1872   -0.7552 H   0  0  0  0  0  0  0  0  0  0  0  0
   -0.4139    1.2278    0.7278 C   0  0  0  0  0  0  0  0  0  0  0  0
   -0.9565    1.1982    1.6740 H   0  0  0  0  0  0  0  0  0  0  0  0
    0.5544    1.6999    0.9005 H   0  0  0  0  0  0  0  0  0  0  0  0
   -1.2191    2.0779   -0.2694 C   0  0  0  0  0  0  0  0  0  0  0  0
   -0.6873    2.1088   -1.2235 H   0  0  0  0  0  0  0  0  0  0  0  0
   -2.1829    1.5898   -0.4364 H   0  0  0  0  0  0  0  0  0  0  0  0
   -1.4568    3.5179    0.2089 C   0  0  0  0  0  0  0  0  0  0  0  0
   -1.1125    3.8216    1.3732 O   0  5  0  0  0  0  0  0  0  0  0  0
   -1.9639    4.3074   -0.6187 O   0  0  0  0  0  0  0  0  0  0  0  0
    0.8246   -0.9922    1.1263 C   0  0  0  0  0  0  0  0  0  0  0  0
    0.5143   -2.0546    1.6693 O   0  0  0  0  0  0  0  0  0  0  0  0
    2.0529   -0.4701    1.2391 N   0  0  0  0  0  0  0  0  0  0  0  0
    2.2176    0.4291    0.8116 H   0  0  0  0  0  0  0  0  0  0  0  0
    3.1254   -1.0614    2.0350 C   0  0  0  0  0  0  0  0  0  0  0  0
    3.2450   -2.1129    1.7685 H   0  0  0  0  0  0  0  0  0  0  0  0
    4.0618   -0.5311    1.8562 H   0  0  0  0  0  0  0  0  0  0  0  0
    2.8689   -0.9957    3.0942 H   0  0  0  0  0  0  0  0  0  0  0  0
  5  6  2  0  0  0  0
  5  7  1  0  0  0  0
  2  3  1  0  0  0  0
  2  4  1  0  0  0  0
  2  5  1  0  0  0  0
  1  2  1  0  0  0  0
 20 21  2  0  0  0  0
 20 22  1  0  0  0  0
 17 18  1  0  0  0  0
 17 19  2  0  0  0  0
 14 15  1  0  0  0  0
 14 16  1  0  0  0  0
 14 17  1  0  0  0  0
 11 12  1  0  0  0  0
 11 13  1  0  0  0  0
 11 14  1  0  0  0  0
  9 10  1  0  0  0  0
  9 11  1  0  0  0  0
  9 20  1  0  0  0  0
  7  8  1  0  0  0  0
  7  9  1  0  0  0  0
 24 25  1  0  0  0  0
 24 26  1  0  0  0  0
 24 27  1  0  0  0  0
 22 23  1  0  0  0  0
 22 24  1  0  0  0  0
M  CHG  1  18  -1
M  END
$$$$
default_name
  -OEChem-01062215323D

 27 26  0     1  0  0  0  0  0999 V2000
   -3.2406   -3.5400    1.2326 H   0  0  0  0  0  0  0  0  0  0  0  0
   -3.1436   -2.6190    0.6606 C   0  0  0  0  0  0  0  0  0  0  0  0
   -3.8786   -1.8920    0.9996 H   0  0  0  0  0  0  0  0  0  0  0  0
   -3.2846   -2.8280   -0.3984 H   0  0  0  0  0  0  0  0  0  0  0  0
   -1.7586   -2.0580    0.8686 C   0  0  0  0  0  0  0  0  0  0  0  0
   -0.9666   -2.6340    1.6026 O   0  0  0  0  0  0  0  0  0  0  0  0
   -1.4866   -0.9220    0.2366 N   0  0  0  0  0  0  0  0  0  0  0  0
   -2.2166   -0.4790   -0.2994 H   0  0  0  0  0  0  0  0  0  0  0  0
   -0.1956   -0.2250    0.2596 C   0  0  1  0  0  0  0  0  0  0  0  0
    0.2014   -0.1872   -0.7552 H   0  0  0  0  0  0  0  0  0  0  0  0
   -0.4139    1.2278    0.7278 C   0  0  0  0  0  0  0  0  0  0  0  0
   -0.9565    1.1982    1.6740 H   0  0  0  0  0  0  0  0  0  0  0  0
    0.5544    1.6999    0.9005 H   0  0  0  0  0  0  0  0  0  0  0  0
   -1.2191    2.0779   -0.2694 C   0  0  0  0  0  0  0  0  0  0  0  0
   -0.6873    2.1088   -1.2235 H   0  0  0  0  0  0  0  0  0  0  0  0
   -2.1829    1.5898   -0.4364 H   0  0  0  0  0  0  0  0  0  0  0  0
   -1.4568    3.5179    0.2089 C   0  0  0  0  0  0  0  0  0  0  0  0
   -1.1125    3.8216    1.3732 O   0  5  0  0  0  0  0  0  0  0  0  0
   -1.9639    4.3074   -0.6187 O   0  0  0  0  0  0  0  0  0  0  0  0
    0.8246   -0.9922    1.1263 C   0  0  0  0  0  0  0  0  0  0  0  0
    0.6236   -2.1670    1.4411 O   0  0  0  0  0  0  0  0  0  0  0  0
    1.9345   -0.3391    1.4944 N   0  0  0  0  0  0  0  0  0  0  0  0
    2.0048    0.6364    1.2455 H   0  0  0  0  0  0  0  0  0  0  0  0
    2.9867   -0.9150    2.3279 C   0  0  0  0  0  0  0  0  0  0  0  0
    3.2995   -1.8754    1.9145 H   0  0  0  0  0  0  0  0  0  0  0  0
    3.8428   -0.2404    2.3713 H   0  0  0  0  0  0  0  0  0  0  0  0
    2.6019   -1.0768    3.3367 H   0  0  0  0  0  0  0  0  0  0  0  0
  5  6  2  0  0  0  0
  5  7  1  0  0  0  0
  2  3  1  0  0  0  0
  2  4  1  0  0  0  0
  2  5  1  0  0  0  0
  1  2  1  0  0  0  0
 20 21  2  0  0  0  0
 20 22  1  0  0  0  0
 17 18  1  0  0  0  0
 17 19  2  0  0  0  0
 14 15  1  0  0  0  0
 14 16  1  0  0  0  0
 14 17  1  0  0  0  0
 11 12  1  0  0  0  0
 11 13  1  0  0  0  0
 11 14  1  0  0  0  0
  9 10  1  0  0  0  0
  9 11  1  0  0  0  0
  9 20  1  0  0  0  0
  7  8  1  0  0  0  0
  7  9  1  0  0  0  0
 24 25  1  0  0  0  0
 24 26  1  0  0  0  0
 24 27  1  0  0  0  0
 22 23  1  0  0  0  0
 22 24  1  0  0  0  0
M  CHG  1  18  -1
M  END
$$$$
default_name
  -OEChem-01062215323D

 27 26  0     1  0  0  0  0  0999 V2000
   -3.2406   -3.5400    1.2326 H   0  0  0  0  0  0  0  0  0  0  0  0
   -3.1436   -2.6190    0.6606 C   0  0  0  0  0  0  0  0  0  0  0  0
   -3.8786   -1.8920    0.9996 H   0  0  0  0  0  0  0  0  0  0  0  0
   -3.2846   -2.8280   -0.3984 H   0  0  0  0  0  0  0  0  0  0  0  0
   -1.7586   -2.0580    0.8686 C   0  0  0  0  0  0  0  0  0  0  0  0
   -0.9666   -2.6340    1.6026 O   0  0  0  0  0  0  0  0  0  0  0  0
   -1.4866   -0.9220    0.2366 N   0  0  0  0  0  0  0  0  0  0  0  0
   -2.2166   -0.4790   -0.2994 H   0  0  0  0  0  0  0  0  0  0  0  0
   -0.1956   -0.2250    0.2596 C   0  0  1  0  0  0  0  0  0  0  0  0
    0.2014   -0.1872   -0.7552 H   0  0  0  0  0  0  0  0  0  0  0  0
   -0.4139    1.2278    0.7278 C   0  0  0  0  0  0  0  0  0  0  0  0
   -0.9565    1.1982    1.6740 H   0  0  0  0  0  0  0  0  0  0  0  0
    0.5544    1.6999    0.9005 H   0  0  0  0  0  0  0  0  0  0  0  0
   -1.2191    2.0779   -0.2694 C   0  0  0  0  0  0  0  0  0  0  0  0
   -0.6873    2.1088   -1.2235 H   0  0  0  0  0  0  0  0  0  0  0  0
   -2.1829    1.5898   -0.4364 H   0  0  0  0  0  0  0  0  0  0  0  0
   -1.4568    3.5179    0.2089 C   0  0  0  0  0  0  0  0  0  0  0  0
   -1.1125    3.8216    1.3732 O   0  5  0  0  0  0  0  0  0  0  0  0
   -1.9639    4.3074   -0.6187 O   0  0  0  0  0  0  0  0  0  0  0  0
    0.8246   -0.9922    1.1263 C   0  0  0  0  0  0  0  0  0  0  0  0
    0.7749   -2.2207    1.2155 O   0  0  0  0  0  0  0  0  0  0  0  0
    1.7682   -0.2734    1.7483 N   0  0  0  0  0  0  0  0  0  0  0  0
    1.7133    0.7315    1.6728 H   0  0  0  0  0  0  0  0  0  0  0  0
    2.7937   -0.8440    2.6179 C   0  0  0  0  0  0  0  0  0  0  0  0
    3.2989   -1.6630    2.1033 H   0  0  0  0  0  0  0  0  0  0  0  0
    3.5228   -0.0796    2.8904 H   0  0  0  0  0  0  0  0  0  0  0  0
    2.3246   -1.2354    3.5227 H   0  0  0  0  0  0  0  0  0  0  0  0
  5  6  2  0  0  0  0
  5  7  1  0  0  0  0
  2  3  1  0  0  0  0
  2  4  1  0  0  0  0
  2  5  1  0  0  0  0
  1  2  1  0  0  0  0
 20 21  2  0  0  0  0
 20 22  1  0  0  0  0
 17 18  1  0  0  0  0
 17 19  2  0  0  0  0
 14 15  1  0  0  0  0
 14 16  1  0  0  0  0
 14 17  1  0  0  0  0
 11 12  1  0  0  0  0
 11 13  1  0  0  0  0
 11 14  1  0  0  0  0
  9 10  1  0  0  0  0
  9 11  1  0  0  0  0
  9 20  1  0  0  0  0
  7  8  1  0  0  0  0
  7  9  1  0  0  0  0
 24 25  1  0  0  0  0
 24 26  1  0  0  0  0
 24 27  1  0  0  0  0
 22 23  1  0  0  0  0
 22 24  1  0  0  0  0
M  CHG  1  18  -1
M  END
$$$$
default_name
  -OEChem-01062215323D

 27 26  0     1  0  0  0  0  0999 V2000
   -3.2406   -3.5400    1.2326 H   0  0  0  0  0  0  0  0  0  0  0  0
   -3.1436   -2.6190    0.6606 C   0  0  0  0  0  0  0  0  0  0  0  0
   -3.8786   -1.8920    0.9996 H   0  0  0  0  0  0  0  0  0  0  0  0
   -3.2846   -2.8280   -0.3984 H   0  0  0  0  0  0  0  0  0  0  0  0
   -1.7586   -2.0580    0.8686 C   0  0  0  0  0  0  0  0  0  0  0  0
   -0.9666   -2.6340    1.6026 O   0  0  0  0  0  0  0  0  0  0  0  0
   -1.4866   -0.9220    0.2366 N   0  0  0  0  0  0  0  0  0  0  0  0
   -2.2166   -0.4790   -0.2994 H   0  0  0  0  0  0  0  0  0  0  0  0
   -0.1956   -0.2250    0.2596 C   0  0  1  0  0  0  0  0  0  0  0  0
    0.2014   -0.1872   -0.7552 H   0  0  0  0  0  0  0  0  0  0  0  0
   -0.4139    1.2278    0.7278 C   0  0  0  0  0  0  0  0  0  0  0  0
   -0.9565    1.1982    1.6740 H   0  0  0  0  0  0  0  0  0  0  0  0
    0.5544    1.6999    0.9005 H   0  0  0  0  0  0  0  0  0  0  0  0
   -1.2191    2.0779   -0.2694 C   0  0  0  0  0  0  0  0  0  0  0  0
   -0.6873    2.1088   -1.2235 H   0  0  0  0  0  0  0  0  0  0  0  0
   -2.1829    1.5898   -0.4364 H   0  0  0  0  0  0  0  0  0  0  0  0
   -1.4568    3.5179    0.2089 C   0  0  0  0  0  0  0  0  0  0  0  0
   -1.1125    3.8216    1.3732 O   0  5  0  0  0  0  0  0  0  0  0  0
   -1.9639    4.3074   -0.6187 O   0  0  0  0  0  0  0  0  0  0  0  0
    0.8246   -0.9922    1.1263 C   0  0  0  0  0  0  0  0  0  0  0  0
    0.9579   -2.2120    1.0078 O   0  0  0  0  0  0  0  0  0  0  0  0
    1.5654   -0.2775    1.9833 N   0  0  0  0  0  0  0  0  0  0  0  0
    1.3629    0.7078    2.0643 H   0  0  0  0  0  0  0  0  0  0  0  0
    2.5596   -0.8530    2.8854 C   0  0  0  0  0  0  0  0  0  0  0  0
    3.2431   -1.4902    2.3218 H   0  0  0  0  0  0  0  0  0  0  0  0
    3.1234   -0.0596    3.3781 H   0  0  0  0  0  0  0  0  0  0  0  0
    2.0558   -1.4608    3.6395 H   0  0  0  0  0  0  0  0  0  0  0  0
  5  6  2  0  0  0  0
  5  7  1  0  0  0  0
  2  3  1  0  0  0  0
  2  4  1  0  0  0  0
  2  5  1  0  0  0  0
  1  2  1  0  0  0  0
 20 21  2  0  0  0  0
 20 22  1  0  0  0  0
 17 18  1  0  0  0  0
 17 19  2  0  0  0  0
 14 15  1  0  0  0  0
 14 16  1  0  0  0  0
 14 17  1  0  0  0  0
 11 12  1  0  0  0  0
 11 13  1  0  0  0  0
 11 14  1  0  0  0  0
  9 10  1  0  0  0  0
  9 11  1  0  0  0  0
  9 20  1  0  0  0  0
  7  8  1  0  0  0  0
  7  9  1  0  0  0  0
 24 25  1  0  0  0  0
 24 26  1  0  0  0  0
 24 27  1  0  0  0  0
 22 23  1  0  0  0  0
 22 24  1  0  0  0  0
M  CHG  1  18  -1
M  END
$$$$
default_name
  -OEChem-01062215323D

 27 26  0     1  0  0  0  0  0999 V2000
   -3.2406   -3.5400    1.2326 H   0  0  0  0  0  0  0  0  0  0  0  0
   -3.1436   -2.6190    0.6606 C   0  0  0  0  0  0  0  0  0  0  0  0
   -3.8786   -1.8920    0.9996 H   0  0  0  0  0  0  0  0  0  0  0  0
   -3.2846   -2.8280   -0.3984 H   0  0  0  0  0  0  0  0  0  0  0  0
   -1.7586   -2.0580    0.8686 C   0  0  0  0  0  0  0  0  0  0  0  0
   -0.9666   -2.6340    1.6026 O   0  0  0  0  0  0  0  0  0  0  0  0
   -1.4866   -0.9220    0.2366 N   0  0  0  0  0  0  0  0  0  0  0  0
   -2.2166   -0.4790   -0.2994 H   0  0  0  0  0  0  0  0  0  0  0  0
   -0.1956   -0.2250    0.2596 C   0  0  1  0  0  0  0  0  0  0  0  0
    0.2014   -0.1872   -0.7552 H   0  0  0  0  0  0  0  0  0  0  0  0
   -0.4139    1.2278    0.7278 C   0  0  0  0  0  0  0  0  0  0  0  0
   -0.9565    1.1982    1.6740 H   0  0  0  0  0  0  0  0  0  0  0  0
    0.5544    1.6999    0.9005 H   0  0  0  0  0  0  0  0  0  0  0  0
   -1.2191    2.0779   -0.2694 C   0  0  0  0  0  0  0  0  0  0  0  0
   -0.6873    2.1088   -1.2235 H   0  0  0  0  0  0  0  0  0  0  0  0
   -2.1829    1.5898   -0.4364 H   0  0  0  0  0  0  0  0  0  0  0  0
   -1.4568    3.5179    0.2089 C   0  0  0  0  0  0  0  0  0  0  0  0
   -1.1125    3.8216    1.3732 O   0  5  0  0  0  0  0  0  0  0  0  0
   -1.9639    4.3074   -0.6187 O   0  0  0  0  0  0  0  0  0  0  0  0
    0.8246   -0.9922    1.1263 C   0  0  0  0  0  0  0  0  0  0  0  0
    1.1601   -2.1414    0.8323 O   0  0  0  0  0  0  0  0  0  0  0  0
    1.3398   -0.3513    2.1836 N   0  0  0  0  0  0  0  0  0  0  0  0
    0.9776    0.5670    2.3932 H   0  0  0  0  0  0  0  0  0  0  0  0
    2.3004   -0.9415    3.1122 C   0  0  0  0  0  0  0  0  0  0  0  0
    3.1360   -1.3689    2.5553 H   0  0  0  0  0  0  0  0  0  0  0  0
    2.6720   -0.1818    3.8013 H   0  0  0  0  0  0  0  0  0  0  0  0
    1.8140   -1.7376    3.6792 H   0  0  0  0  0  0  0  0  0  0  0  0
  5  6  2  0  0  0  0
  5  7  1  0  0  0  0
  2  3  1  0  0  0  0
  2  4  1  0  0  0  0
  2  5  1  0  0  0  0
  1  2  1  0  0  0  0
 20 21  2  0  0  0  0
 20 22  1  0  0  0  0
 17 18  1  0  0  0  0
 17 19  2  0  0  0  0
 14 15  1  0  0  0  0
 14 16  1  0  0  0  0
 14 17  1  0  0  0  0
 11 12  1  0  0  0  0
 11 13  1  0  0  0  0
 11 14  1  0  0  0  0
  9 10  1  0  0  0  0
  9 11  1  0  0  0  0
  9 20  1  0  0  0  0
  7  8  1  0  0  0  0
  7  9  1  0  0  0  0
 24 25  1  0  0  0  0
 24 26  1  0  0  0  0
 24 27  1  0  0  0  0
 22 23  1  0  0  0  0
 22 24  1  0  0  0  0
M  CHG  1  18  -1
M  END
$$$$
default_name
  -OEChem-01062215323D

 27 26  0     1  0  0  0  0  0999 V2000
   -3.2406   -3.5400    1.2326 H   0  0  0  0  0  0  0  0  0  0  0  0
   -3.1436   -2.6190    0.6606 C   0  0  0  0  0  0  0  0  0  0  0  0
   -3.8786   -1.8920    0.9996 H   0  0  0  0  0  0  0  0  0  0  0  0
   -3.2846   -2.8280   -0.3984 H   0  0  0  0  0  0  0  0  0  0  0  0
   -1.7586   -2.0580    0.8686 C   0  0  0  0  0  0  0  0  0  0  0  0
   -0.9666   -2.6340    1.6026 O   0  0  0  0  0  0  0  0  0  0  0  0
   -1.4866   -0.9220    0.2366 N   0  0  0  0  0  0  0  0  0  0  0  0
   -2.2166   -0.4790   -0.2994 H   0  0  0  0  0  0  0  0  0  0  0  0
   -0.1956   -0.2250    0.2596 C   0  0  1  0  0  0  0  0  0  0  0  0
    0.2014   -0.1872   -0.7552 H   0  0  0  0  0  0  0  0  0  0  0  0
   -0.4139    1.2278    0.7278 C   0  0  0  0  0  0  0  0  0  0  0  0
   -0.9565    1.1982    1.6740 H   0  0  0  0  0  0  0  0  0  0  0  0
    0.5544    1.6999    0.9005 H   0  0  0  0  0  0  0  0  0  0  0  0
   -1.2191    2.0779   -0.2694 C   0  0  0  0  0  0  0  0  0  0  0  0
   -0.6873    2.1088   -1.2235 H   0  0  0  0  0  0  0  0  0  0  0  0
   -2.1829    1.5898   -0.4364 H   0  0  0  0  0  0  0  0  0  0  0  0
   -1.4568    3.5179    0.2089 C   0  0  0  0  0  0  0  0  0  0  0  0
   -1.1125    3.8216    1.3732 O   0  5  0  0  0  0  0  0  0  0  0  0
   -1.9639    4.3074   -0.6187 O   0  0  0  0  0  0  0  0  0  0  0  0
    0.8246   -0.9922    1.1263 C   0  0  0  0  0  0  0  0  0  0  0  0
    1.3677   -2.0138    0.7009 O   0  0  0  0  0  0  0  0  0  0  0  0
    1.1069   -0.4896    2.3353 N   0  0  0  0  0  0  0  0  0  0  0  0
    0.5834    0.3187    2.6373 H   0  0  0  0  0  0  0  0  0  0  0  0
    2.0338   -1.1035    3.2827 C   0  0  0  0  0  0  0  0  0  0  0  0
    2.9849   -1.3072    2.7878 H   0  0  0  0  0  0  0  0  0  0  0  0
    2.1993   -0.4379    4.1310 H   0  0  0  0  0  0  0  0  0  0  0  0
    1.6155   -2.0469    3.6391 H   0  0  0  0  0  0  0  0  0  0  0  0
  5  6  2  0  0  0  0
  5  7  1  0  0  0  0
  2  3  1  0  0  0  0
  2  4  1  0  0  0  0
  2  5  1  0  0  0  0
  1  2  1  0  0  0  0
 20 21  2  0  0  0  0
 20 22  1  0  0  0  0
 17 18  1  0  0  0  0
 17 19  2  0  0  0  0
 14 15  1  0  0  0  0
 14 16  1  0  0  0  0
 14 17  1  0  0  0  0
 11 12  1  0  0  0  0
 11 13  1  0  0  0  0
 11 14  1  0  0  0  0
  9 10  1  0  0  0  0
  9 11  1  0  0  0  0
  9 20  1  0  0  0  0
  7  8  1  0  0  0  0
  7  9  1  0  0  0  0
 24 25  1  0  0  0  0
 24 26  1  0  0  0  0
 24 27  1  0  0  0  0
 22 23  1  0  0  0  0
 22 24  1  0  0  0  0
M  CHG  1  18  -1
M  END
$$$$
default_name
  -OEChem-01062215323D

 27 26  0     1  0  0  0  0  0999 V2000
   -3.2406   -3.5400    1.2326 H   0  0  0  0  0  0  0  0  0  0  0  0
   -3.1436   -2.6190    0.6606 C   0  0  0  0  0  0  0  0  0  0  0  0
   -3.8786   -1.8920    0.9996 H   0  0  0  0  0  0  0  0  0  0  0  0
   -3.2846   -2.8280   -0.3984 H   0  0  0  0  0  0  0  0  0  0  0  0
   -1.7586   -2.0580    0.8686 C   0  0  0  0  0  0  0  0  0  0  0  0
   -0.9666   -2.6340    1.6026 O   0  0  0  0  0  0  0  0  0  0  0  0
   -1.4866   -0.9220    0.2366 N   0  0  0  0  0  0  0  0  0  0  0  0
   -2.2166   -0.4790   -0.2994 H   0  0  0  0  0  0  0  0  0  0  0  0
   -0.1956   -0.2250    0.2596 C   0  0  1  0  0  0  0  0  0  0  0  0
    0.2014   -0.1872   -0.7552 H   0  0  0  0  0  0  0  0  0  0  0  0
   -0.4139    1.2278    0.7278 C   0  0  0  0  0  0  0  0  0  0  0  0
   -0.9565    1.1982    1.6740 H   0  0  0  0  0  0  0  0  0  0  0  0
    0.5544    1.6999    0.9005 H   0  0  0  0  0  0  0  0  0  0  0  0
   -1.2191    2.0779   -0.2694 C   0  0  0  0  0  0  0  0  0  0  0  0
   -0.6873    2.1088   -1.2235 H   0  0  0  0  0  0  0  0  0  0  0  0
   -2.1829    1.5898   -0.4364 H   0  0  0  0  0  0  0  0  0  0  0  0
   -1.4568    3.5179    0.2089 C   0  0  0  0  0  0  0  0  0  0  0  0
   -1.1125    3.8216    1.3732 O   0  5  0  0  0  0  0  0  0  0  0  0
   -1.9639    4.3074   -0.6187 O   0  0  0  0  0  0  0  0  0  0  0  0
    0.8246   -0.9922    1.1263 C   0  0  0  0  0  0  0  0  0  0  0  0
    1.5667   -1.8379    0.6224 O   0  0  0  0  0  0  0  0  0  0  0  0
    0.8825   -0.6830    2.4283 N   0  0  0  0  0  0  0  0  0  0  0  0
    0.2075   -0.0202    2.7798 H   0  0  0  0  0  0  0  0  0  0  0  0
    1.7778   -1.3279    3.3853 C   0  0  0  0  0  0  0  0  0  0  0  0
    2.8000   -1.3094    3.0035 H   0  0  0  0  0  0  0  0  0  0  0  0
    1.7374   -0.8105    4.3448 H   0  0  0  0  0  0  0  0  0  0  0  0
    1.4739   -2.3676    3.5218 H   0  0  0  0  0  0  0  0  0  0  0  0
  5  6  2  0  0  0  0
  5  7  1  0  0  0  0
  2  3  1  0  0  0  0
  2  4  1  0  0  0  0
  2  5  1  0  0  0  0
  1  2  1  0  0  0  0
 20 21  2  0  0  0  0
 20 22  1  0  0  0  0
 17 18  1  0  0  0  0
 17 19  2  0  0  0  0
 14 15  1  0  0  0  0
 14 16  1  0  0  0  0
 14 17  1  0  0  0  0
 11 12  1  0  0  0  0
 11 13  1  0  0  0  0
 11 14  1  0  0  0  0
  9 10  1  0  0  0  0
  9 11  1  0  0  0  0
  9 20  1  0  0  0  0
  7  8  1  0  0  0  0
  7  9  1  0  0  0  0
 24 25  1  0  0  0  0
 24 26  1  0  0  0  0
 24 27  1  0  0  0  0
 22 23  1  0  0  0  0
 22 24  1  0  0  0  0
M  CHG  1  18  -1
M  END
$$$$
default_name
  -OEChem-01062215323D

 27 26  0     1  0  0  0  0  0999 V2000
   -3.2406   -3.5400    1.2326 H   0  0  0  0  0  0  0  0  0  0  0  0
   -3.1436   -2.6190    0.6606 C   0  0  0  0  0  0  0  0  0  0  0  0
   -3.8786   -1.8920    0.9996 H   0  0  0  0  0  0  0  0  0  0  0  0
   -3.2846   -2.8280   -0.3984 H   0  0  0  0  0  0  0  0  0  0  0  0
   -1.7586   -2.0580    0.8686 C   0  0  0  0  0  0  0  0  0  0  0  0
   -0.9666   -2.6340    1.6026 O   0  0  0  0  0  0  0  0  0  0  0  0
   -1.4866   -0.9220    0.2366 N   0  0  0  0  0  0  0  0  0  0  0  0
   -2.2166   -0.4790   -0.2994 H   0  0  0  0  0  0  0  0  0  0  0  0
   -0.1956   -0.2250    0.2596 C   0  0  1  0  0  0  0  0  0  0  0  0
    0.2014   -0.1872   -0.7552 H   0  0  0  0  0  0  0  0  0  0  0  0
   -0.4139    1.2278    0.7278 C   0  0  0  0  0  0  0  0  0  0  0  0
   -0.9565    1.1982    1.6740 H   0  0  0  0  0  0  0  0  0  0  0  0
    0.5544    1.6999    0.9005 H   0  0  0  0  0  0  0  0  0  0  0  0
   -1.2191    2.0779   -0.2694 C   0  0  0  0  0  0  0  0  0  0  0  0
   -0.6873    2.1088   -1.2235 H   0  0  0  0  0  0  0  0  0  0  0  0
   -2.1829    1.5898   -0.4364 H   0  0  0  0  0  0  0  0  0  0  0  0
   -1.4568    3.5179    0.2089 C   0  0  0  0  0  0  0  0  0  0  0  0
   -1.1125    3.8216    1.3732 O   0  5  0  0  0  0  0  0  0  0  0  0
   -1.9639    4.3074   -0.6187 O   0  0  0  0  0  0  0  0  0  0  0  0
    0.8246   -0.9922    1.1263 C   0  0  0  0  0  0  0  0  0  0  0  0
    1.7433   -1.6256    0.6024 O   0  0  0  0  0  0  0  0  0  0  0  0
    0.6819   -0.9183    2.4561 N   0  0  0  0  0  0  0  0  0  0  0  0
   -0.1248   -0.4267    2.8111 H   0  0  0  0  0  0  0  0  0  0  0  0
    1.5500   -1.5995    3.4131 C   0  0  0  0  0  0  0  0  0  0  0  0
    2.5939   -1.3753    3.1877 H   0  0  0  0  0  0  0  0  0  0  0  0
    1.3180   -1.2740    4.4282 H   0  0  0  0  0  0  0  0  0  0  0  0
    1.3988   -2.6779    3.3355 H   0  0  0  0  0  0  0  0  0  0  0  0
  5  6  2  0  0  0  0
  5  7  1  0  0  0  0
  2  3  1  0  0  0  0
  2  4  1  0  0  0  0
  2  5  1  0  0  0  0
  1  2  1  0  0  0  0
 20 21  2  0  0  0  0
 20 22  1  0  0  0  0
 17 18  1  0  0  0  0
 17 19  2  0  0  0  0
 14 15  1  0  0  0  0
 14 16  1  0  0  0  0
 14 17  1  0  0  0  0
 11 12  1  0  0  0  0
 11 13  1  0  0  0  0
 11 14  1  0  0  0  0
  9 10  1  0  0  0  0
  9 11  1  0  0  0  0
  9 20  1  0  0  0  0
  7  8  1  0  0  0  0
  7  9  1  0  0  0  0
 24 25  1  0  0  0  0
 24 26  1  0  0  0  0
 24 27  1  0  0  0  0
 22 23  1  0  0  0  0
 22 24  1  0  0  0  0
M  CHG  1  18  -1
M  END
$$$$
default_name
  -OEChem-01062215323D

 27 26  0     1  0  0  0  0  0999 V2000
   -3.2406   -3.5400    1.2326 H   0  0  0  0  0  0  0  0  0  0  0  0
   -3.1436   -2.6190    0.6606 C   0  0  0  0  0  0  0  0  0  0  0  0
   -3.8786   -1.8920    0.9996 H   0  0  0  0  0  0  0  0  0  0  0  0
   -3.2846   -2.8280   -0.3984 H   0  0  0  0  0  0  0  0  0  0  0  0
   -1.7586   -2.0580    0.8686 C   0  0  0  0  0  0  0  0  0  0  0  0
   -0.9666   -2.6340    1.6026 O   0  0  0  0  0  0  0  0  0  0  0  0
   -1.4866   -0.9220    0.2366 N   0  0  0  0  0  0  0  0  0  0  0  0
   -2.2166   -0.4790   -0.2994 H   0  0  0  0  0  0  0  0  0  0  0  0
   -0.1956   -0.2250    0.2596 C   0  0  1  0  0  0  0  0  0  0  0  0
    0.2014   -0.1872   -0.7552 H   0  0  0  0  0  0  0  0  0  0  0  0
   -0.4139    1.2278    0.7278 C   0  0  0  0  0  0  0  0  0  0  0  0
   -0.9565    1.1982    1.6740 H   0  0  0  0  0  0  0  0  0  0  0  0
    0.5544    1.6999    0.9005 H   0  0  0  0  0  0  0  0  0  0  0  0
   -1.2191    2.0779   -0.2694 C   0  0  0  0  0  0  0  0  0  0  0  0
   -0.6873    2.1088   -1.2235 H   0  0  0  0  0  0  0  0  0  0  0  0
   -2.1829    1.5898   -0.4364 H   0  0  0  0  0  0  0  0  0  0  0  0
   -1.4568    3.5179    0.2089 C   0  0  0  0  0  0  0  0  0  0  0  0
   -1.1125    3.8216    1.3732 O   0  5  0  0  0  0  0  0  0  0  0  0
   -1.9639    4.3074   -0.6187 O   0  0  0  0  0  0  0  0  0  0  0  0
    0.8246   -0.9922    1.1263 C   0  0  0  0  0  0  0  0  0  0  0  0
    1.8857   -1.3914    0.6422 O   0  0  0  0  0  0  0  0  0  0  0  0
    0.5187   -1.1796    2.4168 N   0  0  0  0  0  0  0  0  0  0  0  0
   -0.3906   -0.8729    2.7290 H   0  0  0  0  0  0  0  0  0  0  0  0
    1.3658   -1.8997    3.3642 C   0  0  0  0  0  0  0  0  0  0  0  0
    2.3808   -1.5004    3.3278 H   0  0  0  0  0  0  0  0  0  0  0  0
    0.9695   -1.7971    4.3754 H   0  0  0  0  0  0  0  0  0  0  0  0
    1.3955   -2.9567    3.0927 H   0  0  0  0  0  0  0  0  0  0  0  0
  5  6  2  0  0  0  0
  5  7  1  0  0  0  0
  2  3  1  0  0  0  0
  2  4  1  0  0  0  0
  2  5  1  0  0  0  0
  1  2  1  0  0  0  0
 20 21  2  0  0  0  0
 20 22  1  0  0  0  0
 17 18  1  0  0  0  0
 17 19  2  0  0  0  0
 14 15  1  0  0  0  0
 14 16  1  0  0  0  0
 14 17  1  0  0  0  0
 11 12  1  0  0  0  0
 11 13  1  0  0  0  0
 11 14  1  0  0  0  0
  9 10  1  0  0  0  0
  9 11  1  0  0  0  0
  9 20  1  0  0  0  0
  7  8  1  0  0  0  0
  7  9  1  0  0  0  0
 24 25  1  0  0  0  0
 24 26  1  0  0  0  0
 24 27  1  0  0  0  0
 22 23  1  0  0  0  0
 22 24  1  0  0  0  0
M  CHG  1  18  -1
M  END
$$$$
default_name
  -OEChem-01062215323D

 27 26  0     1  0  0  0  0  0999 V2000
   -3.2406   -3.5400    1.2326 H   0  0  0  0  0  0  0  0  0  0  0  0
   -3.1436   -2.6190    0.6606 C   0  0  0  0  0  0  0  0  0  0  0  0
   -3.8786   -1.8920    0.9996 H   0  0  0  0  0  0  0  0  0  0  0  0
   -3.2846   -2.8280   -0.3984 H   0  0  0  0  0  0  0  0  0  0  0  0
   -1.7586   -2.0580    0.8686 C   0  0  0  0  0  0  0  0  0  0  0  0
   -0.9666   -2.6340    1.6026 O   0  0  0  0  0  0  0  0  0  0  0  0
   -1.4866   -0.9220    0.2366 N   0  0  0  0  0  0  0  0  0  0  0  0
   -2.2166   -0.4790   -0.2994 H   0  0  0  0  0  0  0  0  0  0  0  0
   -0.1956   -0.2250    0.2596 C   0  0  1  0  0  0  0  0  0  0  0  0
    0.2014   -0.1872   -0.7552 H   0  0  0  0  0  0  0  0  0  0  0  0
   -0.4139    1.2278    0.7278 C   0  0  0  0  0  0  0  0  0  0  0  0
   -0.9565    1.1982    1.6740 H   0  0  0  0  0  0  0  0  0  0  0  0
    0.5544    1.6999    0.9005 H   0  0  0  0  0  0  0  0  0  0  0  0
   -1.2191    2.0779   -0.2694 C   0  0  0  0  0  0  0  0  0  0  0  0
   -0.6873    2.1088   -1.2235 H   0  0  0  0  0  0  0  0  0  0  0  0
   -2.1829    1.5898   -0.4364 H   0  0  0  0  0  0  0  0  0  0  0  0
   -1.4568    3.5179    0.2089 C   0  0  0  0  0  0  0  0  0  0  0  0
   -1.1125    3.8216    1.3732 O   0  5  0  0  0  0  0  0  0  0  0  0
   -1.9639    4.3074   -0.6187 O   0  0  0  0  0  0  0  0  0  0  0  0
    0.8246   -0.9922    1.1263 C   0  0  0  0  0  0  0  0  0  0  0  0
    1.9840   -1.1513    0.7389 O   0  0  0  0  0  0  0  0  0  0  0  0
    0.4042   -1.4490    2.3132 N   0  0  0  0  0  0  0  0  0  0  0  0
   -0.5720   -1.3286    2.5392 H   0  0  0  0  0  0  0  0  0  0  0  0
    1.2378   -2.2081    3.2418 C   0  0  0  0  0  0  0  0  0  0  0  0
    2.1751   -1.6763    3.4143 H   0  0  0  0  0  0  0  0  0  0  0  0
    0.7158   -2.3439    4.1900 H   0  0  0  0  0  0  0  0  0  0  0  0
    1.4640   -3.1849    2.8100 H   0  0  0  0  0  0  0  0  0  0  0  0
  5  6  2  0  0  0  0
  5  7  1  0  0  0  0
  2  3  1  0  0  0  0
  2  4  1  0  0  0  0
  2  5  1  0  0  0  0
  1  2  1  0  0  0  0
 20 21  2  0  0  0  0
 20 22  1  0  0  0  0
 17 18  1  0  0  0  0
 17 19  2  0  0  0  0
 14 15  1  0  0  0  0
 14 16  1  0  0  0  0
 14 17  1  0  0  0  0
 11 12  1  0  0  0  0
 11 13  1  0  0  0  0
 11 14  1  0  0  0  0
  9 10  1  0  0  0  0
  9 11  1  0  0  0  0
  9 20  1  0  0  0  0
  7  8  1  0  0  0  0
  7  9  1  0  0  0  0
 24 25  1  0  0  0  0
 24 26  1  0  0  0  0
 24 27  1  0  0  0  0
 22 23  1  0  0  0  0
 22 24  1  0  0  0  0
M  CHG  1  18  -1
M  END
$$$$
default_name
  -OEChem-01062215323D

 27 26  0     1  0  0  0  0  0999 V2000
   -3.2406   -3.5400    1.2326 H   0  0  0  0  0  0  0  0  0  0  0  0
   -3.1436   -2.6190    0.6606 C   0  0  0  0  0  0  0  0  0  0  0  0
   -3.8786   -1.8920    0.9996 H   0  0  0  0  0  0  0  0  0  0  0  0
   -3.2846   -2.8280   -0.3984 H   0  0  0  0  0  0  0  0  0  0  0  0
   -1.7586   -2.0580    0.8686 C   0  0  0  0  0  0  0  0  0  0  0  0
   -0.9666   -2.6340    1.6026 O   0  0  0  0  0  0  0  0  0  0  0  0
   -1.4866   -0.9220    0.2366 N   0  0  0  0  0  0  0  0  0  0  0  0
   -2.2166   -0.4790   -0.2994 H   0  0  0  0  0  0  0  0  0  0  0  0
   -0.1956   -0.2250    0.2596 C   0  0  1  0  0  0  0  0  0  0  0  0
    0.2014   -0.1872   -0.7552 H   0  0  0  0  0  0  0  0  0  0  0  0
   -0.4139    1.2278    0.7278 C   0  0  0  0  0  0  0  0  0  0  0  0
   -0.9565    1.1982    1.6740 H   0  0  0  0  0  0  0  0  0  0  0  0
    0.5544    1.6999    0.9005 H   0  0  0  0  0  0  0  0  0  0  0  0
   -1.2191    2.0779   -0.2694 C   0  0  0  0  0  0  0  0  0  0  0  0
   -0.6873    2.1088   -1.2235 H   0  0  0  0  0  0  0  0  0  0  0  0
   -2.1829    1.5898   -0.4364 H   0  0  0  0  0  0  0  0  0  0  0  0
   -1.4568    3.5179    0.2089 C   0  0  0  0  0  0  0  0  0  0  0  0
   -1.1125    3.8216    1.3732 O   0  5  0  0  0  0  0  0  0  0  0  0
   -1.9639    4.3074   -0.6187 O   0  0  0  0  0  0  0  0  0  0  0  0
    0.8246   -0.9922    1.1263 C   0  0  0  0  0  0  0  0  0  0  0  0
    2.0317   -0.9216    0.8861 O   0  0  0  0  0  0  0  0  0  0  0  0
    0.3461   -1.7081    2.1523 N   0  0  0  0  0  0  0  0  0  0  0  0
   -0.6565   -1.7626    2.2544 H   0  0  0  0  0  0  0  0  0  0  0  0
    1.1748   -2.5036    3.0544 C   0  0  0  0  0  0  0  0  0  0  0  0
    1.9908   -1.8908    3.4413 H   0  0  0  0  0  0  0  0  0  0  0  0
    0.5740   -2.8773    3.8847 H   0  0  0  0  0  0  0  0  0  0  0  0
    1.5997   -3.3470    2.5067 H   0  0  0  0  0  0  0  0  0  0  0  0
  5  6  2  0  0  0  0
  5  7  1  0  0  0  0
  2  3  1  0  0  0  0
  2  4  1  0  0  0  0
  2  5  1  0  0  0  0
  1  2  1  0  0  0  0
 20 21  2  0  0  0  0
 20 22  1  0  0  0  0
 17 18  1  0  0  0  0
 17 19  2  0  0  0  0
 14 15  1  0  0  0  0
 14 16  1  0  0  0  0
 14 17  1  0  0  0  0
 11 12  1  0  0  0  0
 11 13  1  0  0  0  0
 11 14  1  0  0  0  0
  9 10  1  0  0  0  0
  9 11  1  0  0  0  0
  9 20  1  0  0  0  0
  7  8  1  0  0  0  0
  7  9  1  0  0  0  0
 24 25  1  0  0  0  0
 24 26  1  0  0  0  0
 24 27  1  0  0  0  0
 22 23  1  0  0  0  0
 22 24  1  0  0  0  0
M  CHG  1  18  -1
M  END
$$$$
default_name
  -OEChem-01062215323D

 27 26  0     1  0  0  0  0  0999 V2000
   -3.2406   -3.5400    1.2326 H   0  0  0  0  0  0  0  0  0  0  0  0
   -3.1436   -2.6190    0.6606 C   0  0  0  0  0  0  0  0  0  0  0  0
   -3.8786   -1.8920    0.9996 H   0  0  0  0  0  0  0  0  0  0  0  0
   -3.2846   -2.8280   -0.3984 H   0  0  0  0  0  0  0  0  0  0  0  0
   -1.7586   -2.0580    0.8686 C   0  0  0  0  0  0  0  0  0  0  0  0
   -0.9666   -2.6340    1.6026 O   0  0  0  0  0  0  0  0  0  0  0  0
   -1.4866   -0.9220    0.2366 N   0  0  0  0  0  0  0  0  0  0  0  0
   -2.2166   -0.4790   -0.2994 H   0  0  0  0  0  0  0  0  0  0  0  0
   -0.1956   -0.2250    0.2596 C   0  0  1  0  0  0  0  0  0  0  0  0
    0.2014   -0.1872   -0.7552 H   0  0  0  0  0  0  0  0  0  0  0  0
   -0.4139    1.2278    0.7278 C   0  0  0  0  0  0  0  0  0  0  0  0
   -0.9565    1.1982    1.6740 H   0  0  0  0  0  0  0  0  0  0  0  0
    0.5544    1.6999    0.9005 H   0  0  0  0  0  0  0  0  0  0  0  0
   -1.2191    2.0779   -0.2694 C   0  0  0  0  0  0  0  0  0  0  0  0
   -0.6873    2.1088   -1.2235 H   0  0  0  0  0  0  0  0  0  0  0  0
   -2.1829    1.5898   -0.4364 H   0  0  0  0  0  0  0  0  0  0  0  0
   -1.4568    3.5179    0.2089 C   0  0  0  0  0  0  0  0  0  0  0  0
   -1.1125    3.8216    1.3732 O   0  5  0  0  0  0  0  0  0  0  0  0
   -1.9639    4.3074   -0.6187 O   0  0  0  0  0  0  0  0  0  0  0  0
    0.8246   -0.9922    1.1263 C   0  0  0  0  0  0  0  0  0  0  0  0
    2.0253   -0.7181    1.0738 O   0  0  0  0  0  0  0  0  0  0  0  0
    0.3483   -1.9393    1.9451 N   0  0  0  0  0  0  0  0  0  0  0  0
   -0.6383   -2.1454    1.8943 H   0  0  0  0  0  0  0  0  0  0  0  0
    1.1811   -2.7661    2.8147 C   0  0  0  0  0  0  0  0  0  0  0  0
    1.8405   -2.1295    3.4069 H   0  0  0  0  0  0  0  0  0  0  0  0
    0.5540   -3.3609    3.4803 H   0  0  0  0  0  0  0  0  0  0  0  0
    1.7934   -3.4320    2.2035 H   0  0  0  0  0  0  0  0  0  0  0  0
  5  6  2  0  0  0  0
  5  7  1  0  0  0  0
  2  3  1  0  0  0  0
  2  4  1  0  0  0  0
  2  5  1  0  0  0  0
  1  2  1  0  0  0  0
 20 21  2  0  0  0  0
 20 22  1  0  0  0  0
 17 18  1  0  0  0  0
 17 19  2  0  0  0  0
 14 15  1  0  0  0  0
 14 16  1  0  0  0  0
 14 17  1  0  0  0  0
 11 12  1  0  0  0  0
 11 13  1  0  0  0  0
 11 14  1  0  0  0  0
  9 10  1  0  0  0  0
  9 11  1  0  0  0  0
  9 20  1  0  0  0  0
  7  8  1  0  0  0  0
  7  9  1  0  0  0  0
 24 25  1  0  0  0  0
 24 26  1  0  0  0  0
 24 27  1  0  0  0  0
 22 23  1  0  0  0  0
 22 24  1  0  0  0  0
M  CHG  1  18  -1
M  END
$$$$
default_name
  -OEChem-01062215323D

 27 26  0     1  0  0  0  0  0999 V2000
   -3.2406   -3.5400    1.2326 H   0  0  0  0  0  0  0  0  0  0  0  0
   -3.1436   -2.6190    0.6606 C   0  0  0  0  0  0  0  0  0  0  0  0
   -3.8786   -1.8920    0.9996 H   0  0  0  0  0  0  0  0  0  0  0  0
   -3.2846   -2.8280   -0.3984 H   0  0  0  0  0  0  0  0  0  0  0  0
   -1.7586   -2.0580    0.8686 C   0  0  0  0  0  0  0  0  0  0  0  0
   -0.9666   -2.6340    1.6026 O   0  0  0  0  0  0  0  0  0  0  0  0
   -1.4866   -0.9220    0.2366 N   0  0  0  0  0  0  0  0  0  0  0  0
   -2.2166   -0.4790   -0.2994 H   0  0  0  0  0  0  0  0  0  0  0  0
   -0.1956   -0.2250    0.2596 C   0  0  1  0  0  0  0  0  0  0  0  0
    0.2014   -0.1872   -0.7552 H   0  0  0  0  0  0  0  0  0  0  0  0
   -0.4139    1.2278    0.7278 C   0  0  0  0  0  0  0  0  0  0  0  0
   -0.9565    1.1982    1.6740 H   0  0  0  0  0  0  0  0  0  0  0  0
    0.5544    1.6999    0.9005 H   0  0  0  0  0  0  0  0  0  0  0  0
   -1.2191    2.0779   -0.2694 C   0  0  0  0  0  0  0  0  0  0  0  0
   -0.6873    2.1088   -1.2235 H   0  0  0  0  0  0  0  0  0  0  0  0
   -2.1829    1.5898   -0.4364 H   0  0  0  0  0  0  0  0  0  0  0  0
   -1.4568    3.5179    0.2089 C   0  0  0  0  0  0  0  0  0  0  0  0
   -1.1125    3.8216    1.3732 O   0  5  0  0  0  0  0  0  0  0  0  0
   -1.9639    4.3074   -0.6187 O   0  0  0  0  0  0  0  0  0  0  0  0
    0.8246   -0.9922    1.1263 C   0  0  0  0  0  0  0  0  0  0  0  0
    1.9655   -0.5545    1.2890 O   0  0  0  0  0  0  0  0  0  0  0  0
    0.4107   -2.1268    1.7056 N   0  0  0  0  0  0  0  0  0  0  0  0
   -0.5188   -2.4508    1.4832 H   0  0  0  0  0  0  0  0  0  0  0  0
    1.2561   -2.9778    2.5390 C   0  0  0  0  0  0  0  0  0  0  0  0
    1.7345   -2.3760    3.3136 H   0  0  0  0  0  0  0  0  0  0  0  0
    0.6569   -3.7617    3.0044 H   0  0  0  0  0  0  0  0  0  0  0  0
    2.0319   -3.4340    1.9211 H   0  0  0  0  0  0  0  0  0  0  0  0
  5  6  2  0  0  0  0
  5  7  1  0  0  0  0
  2  3  1  0  0  0  0
  2  4  1  0  0  0  0
  2  5  1  0  0  0  0
  1  2  1  0  0  0  0
 20 21  2  0  0  0  0
 20 22  1  0  0  0  0
 17 18  1  0  0  0  0
 17 19  2  0  0  0  0
 14 15  1  0  0  0  0
 14 16  1  0  0  0  0
 14 17  1  0  0  0  0
 11 12  1  0  0  0  0
 11 13  1  0  0  0  0
 11 14  1  0  0  0  0
  9 10  1  0  0  0  0
  9 11  1  0  0  0  0
  9 20  1  0  0  0  0
  7  8  1  0  0  0  0
  7  9  1  0  0  0  0
 24 25  1  0  0  0  0
 24 26  1  0  0  0  0
 24 27  1  0  0  0  0
 22 23  1  0  0  0  0
 22 24  1  0  0  0  0
M  CHG  1  18  -1
M  END
$$$$
default_name
  -OEChem-01062215323D

 27 26  0     1  0  0  0  0  0999 V2000
   -3.2406   -3.5400    1.2326 H   0  0  0  0  0  0  0  0  0  0  0  0
   -3.1436   -2.6190    0.6606 C   0  0  0  0  0  0  0  0  0  0  0  0
   -3.8786   -1.8920    0.9996 H   0  0  0  0  0  0  0  0  0  0  0  0
   -3.2846   -2.8280   -0.3984 H   0  0  0  0  0  0  0  0  0  0  0  0
   -1.7586   -2.0580    0.8686 C   0  0  0  0  0  0  0  0  0  0  0  0
   -0.9666   -2.6340    1.6026 O   0  0  0  0  0  0  0  0  0  0  0  0
   -1.4866   -0.9220    0.2366 N   0  0  0  0  0  0  0  0  0  0  0  0
   -2.2166   -0.4790   -0.2994 H   0  0  0  0  0  0  0  0  0  0  0  0
   -0.1956   -0.2250    0.2596 C   0  0  1  0  0  0  0  0  0  0  0  0
    0.2014   -0.1872   -0.7552 H   0  0  0  0  0  0  0  0  0  0  0  0
   -0.4139    1.2278    0.7278 C   0  0  0  0  0  0  0  0  0  0  0  0
   -0.9565    1.1982    1.6740 H   0  0  0  0  0  0  0  0  0  0  0  0
    0.5544    1.6999    0.9005 H   0  0  0  0  0  0  0  0  0  0  0  0
   -1.2191    2.0779   -0.2694 C   0  0  0  0  0  0  0  0  0  0  0  0
   -0.6873    2.1088   -1.2235 H   0  0  0  0  0  0  0  0  0  0  0  0
   -2.1829    1.5898   -0.4364 H   0  0  0  0  0  0  0  0  0  0  0  0
   -1.4568    3.5179    0.2089 C   0  0  0  0  0  0  0  0  0  0  0  0
   -1.1125    3.8216    1.3732 O   0  5  0  0  0  0  0  0  0  0  0  0
   -1.9639    4.3074   -0.6187 O   0  0  0  0  0  0  0  0  0  0  0  0
    0.8246   -0.9922    1.1263 C   0  0  0  0  0  0  0  0  0  0  0  0
    1.8562   -0.4420    1.5172 O   0  0  0  0  0  0  0  0  0  0  0  0
    0.5291   -2.2579    1.4502 N   0  0  0  0  0  0  0  0  0  0  0  0
   -0.3060   -2.6582    1.0493 H   0  0  0  0  0  0  0  0  0  0  0  0
    1.3948   -3.1241    2.2461 C   0  0  0  0  0  0  0  0  0  0  0  0
    1.6799   -2.6135    3.1675 H   0  0  0  0  0  0  0  0  0  0  0  0
    0.8759   -4.0524    2.4893 H   0  0  0  0  0  0  0  0  0  0  0  0
    2.2989   -3.3529    1.6786 H   0  0  0  0  0  0  0  0  0  0  0  0
  5  6  2  0  0  0  0
  5  7  1  0  0  0  0
  2  3  1  0  0  0  0
  2  4  1  0  0  0  0
  2  5  1  0  0  0  0
  1  2  1  0  0  0  0
 20 21  2  0  0  0  0
 20 22  1  0  0  0  0
 17 18  1  0  0  0  0
 17 19  2  0  0  0  0
 14 15  1  0  0  0  0
 14 16  1  0  0  0  0
 14 17  1  0  0  0  0
 11 12  1  0  0  0  0
 11 13  1  0  0  0  0
 11 14  1  0  0  0  0
  9 10  1  0  0  0  0
  9 11  1  0  0  0  0
  9 20  1  0  0  0  0
  7  8  1  0  0  0  0
  7  9  1  0  0  0  0
 24 25  1  0  0  0  0
 24 26  1  0  0  0  0
 24 27  1  0  0  0  0
 22 23  1  0  0  0  0
 22 24  1  0  0  0  0
M  CHG  1  18  -1
M  END
$$$$
default_name
  -OEChem-01062215323D

 27 26  0     1  0  0  0  0  0999 V2000
   -3.2406   -3.5400    1.2326 H   0  0  0  0  0  0  0  0  0  0  0  0
   -3.1436   -2.6190    0.6606 C   0  0  0  0  0  0  0  0  0  0  0  0
   -3.8786   -1.8920    0.9996 H   0  0  0  0  0  0  0  0  0  0  0  0
   -3.2846   -2.8280   -0.3984 H   0  0  0  0  0  0  0  0  0  0  0  0
   -1.7586   -2.0580    0.8686 C   0  0  0  0  0  0  0  0  0  0  0  0
   -0.9666   -2.6340    1.6026 O   0  0  0  0  0  0  0  0  0  0  0  0
   -1.4866   -0.9220    0.2366 N   0  0  0  0  0  0  0  0  0  0  0  0
   -2.2166   -0.4790   -0.2994 H   0  0  0  0  0  0  0  0  0  0  0  0
   -0.1956   -0.2250    0.2596 C   0  0  1  0  0  0  0  0  0  0  0  0
    0.2014   -0.1872   -0.7552 H   0  0  0  0  0  0  0  0  0  0  0  0
   -0.4139    1.2278    0.7278 C   0  0  0  0  0  0  0  0  0  0  0  0
   -0.9565    1.1982    1.6740 H   0  0  0  0  0  0  0  0  0  0  0  0
    0.5544    1.6999    0.9005 H   0  0  0  0  0  0  0  0  0  0  0  0
   -1.2191    2.0779   -0.2694 C   0  0  0  0  0  0  0  0  0  0  0  0
   -0.6873    2.1088   -1.2235 H   0  0  0  0  0  0  0  0  0  0  0  0
   -2.1829    1.5898   -0.4364 H   0  0  0  0  0  0  0  0  0  0  0  0
   -1.4568    3.5179    0.2089 C   0  0  0  0  0  0  0  0  0  0  0  0
   -1.1125    3.8216    1.3732 O   0  5  0  0  0  0  0  0  0  0  0  0
   -1.9639    4.3074   -0.6187 O   0  0  0  0  0  0  0  0  0  0  0  0
    0.8246   -0.9922    1.1263 C   0  0  0  0  0  0  0  0  0  0  0  0
    1.7049   -0.3883    1.7429 O   0  0  0  0  0  0  0  0  0  0  0  0
    0.6954   -2.3235    1.1963 N   0  0  0  0  0  0  0  0  0  0  0  0
   -0.0145   -2.7532    0.6220 H   0  0  0  0  0  0  0  0  0  0  0  0
    1.5878   -3.1952    1.9561 C   0  0  0  0  0  0  0  0  0  0  0  0
    1.6806   -2.8259    2.9788 H   0  0  0  0  0  0  0  0  0  0  0  0
    1.1960   -4.2132    1.9702 H   0  0  0  0  0  0  0  0  0  0  0  0
    2.5762   -3.1943    1.4925 H   0  0  0  0  0  0  0  0  0  0  0  0
  5  6  2  0  0  0  0
  5  7  1  0  0  0  0
  2  3  1  0  0  0  0
  2  4  1  0  0  0  0
  2  5  1  0  0  0  0
  1  2  1  0  0  0  0
 20 21  2  0  0  0  0
 20 22  1  0  0  0  0
 17 18  1  0  0  0  0
 17 19  2  0  0  0  0
 14 15  1  0  0  0  0
 14 16  1  0  0  0  0
 14 17  1  0  0  0  0
 11 12  1  0  0  0  0
 11 13  1  0  0  0  0
 11 14  1  0  0  0  0
  9 10  1  0  0  0  0
  9 11  1  0  0  0  0
  9 20  1  0  0  0  0
  7  8  1  0  0  0  0
  7  9  1  0  0  0  0
 24 25  1  0  0  0  0
 24 26  1  0  0  0  0
 24 27  1  0  0  0  0
 22 23  1  0  0  0  0
 22 24  1  0  0  0  0
M  CHG  1  18  -1
M  END
$$$$
default_name
  -OEChem-01062215323D

 27 26  0     1  0  0  0  0  0999 V2000
   -3.2406   -3.5400    1.2326 H   0  0  0  0  0  0  0  0  0  0  0  0
   -3.1436   -2.6190    0.6606 C   0  0  0  0  0  0  0  0  0  0  0  0
   -3.8786   -1.8920    0.9996 H   0  0  0  0  0  0  0  0  0  0  0  0
   -3.2846   -2.8280   -0.3984 H   0  0  0  0  0  0  0  0  0  0  0  0
   -1.7586   -2.0580    0.8686 C   0  0  0  0  0  0  0  0  0  0  0  0
   -0.9666   -2.6340    1.6026 O   0  0  0  0  0  0  0  0  0  0  0  0
   -1.4866   -0.9220    0.2366 N   0  0  0  0  0  0  0  0  0  0  0  0
   -2.2166   -0.4790   -0.2994 H   0  0  0  0  0  0  0  0  0  0  0  0
   -0.1956   -0.2250    0.2596 C   0  0  1  0  0  0  0  0  0  0  0  0
    0.2014   -0.1872   -0.7552 H   0  0  0  0  0  0  0  0  0  0  0  0
   -0.4139    1.2278    0.7278 C   0  0  0  0  0  0  0  0  0  0  0  0
   -0.9565    1.1982    1.6740 H   0  0  0  0  0  0  0  0  0  0  0  0
    0.5544    1.6999    0.9005 H   0  0  0  0  0  0  0  0  0  0  0  0
   -1.2191    2.0779   -0.2694 C   0  0  0  0  0  0  0  0  0  0  0  0
   -0.6873    2.1088   -1.2235 H   0  0  0  0  0  0  0  0  0  0  0  0
   -2.1829    1.5898   -0.4364 H   0  0  0  0  0  0  0  0  0  0  0  0
   -1.4568    3.5179    0.2089 C   0  0  0  0  0  0  0  0  0  0  0  0
   -1.1125    3.8216    1.3732 O   0  5  0  0  0  0  0  0  0  0  0  0
   -1.9639    4.3074   -0.6187 O   0  0  0  0  0  0  0  0  0  0  0  0
    0.8246   -0.9922    1.1263 C   0  0  0  0  0  0  0  0  0  0  0  0
    1.5219   -0.3970    1.9505 O   0  0  0  0  0  0  0  0  0  0  0  0
    0.8982   -2.3194    0.9613 N   0  0  0  0  0  0  0  0  0  0  0  0
    0.3358   -2.7296    0.2306 H   0  0  0  0  0  0  0  0  0  0  0  0
    1.8219   -3.1862    1.6886 C   0  0  0  0  0  0  0  0  0  0  0  0
    1.7363   -2.9986    2.7602 H   0  0  0  0  0  0  0  0  0  0  0  0
    1.5953   -4.2332    1.4824 H   0  0  0  0  0  0  0  0  0  0  0  0
    2.8450   -2.9689    1.3757 H   0  0  0  0  0  0  0  0  0  0  0  0
  5  6  2  0  0  0  0
  5  7  1  0  0  0  0
  2  3  1  0  0  0  0
  2  4  1  0  0  0  0
  2  5  1  0  0  0  0
  1  2  1  0  0  0  0
 20 21  2  0  0  0  0
 20 22  1  0  0  0  0
 17 18  1  0  0  0  0
 17 19  2  0  0  0  0
 14 15  1  0  0  0  0
 14 16  1  0  0  0  0
 14 17  1  0  0  0  0
 11 12  1  0  0  0  0
 11 13  1  0  0  0  0
 11 14  1  0  0  0  0
  9 10  1  0  0  0  0
  9 11  1  0  0  0  0
  9 20  1  0  0  0  0
  7  8  1  0  0  0  0
  7  9  1  0  0  0  0
 24 25  1  0  0  0  0
 24 26  1  0  0  0  0
 24 27  1  0  0  0  0
 22 23  1  0  0  0  0
 22 24  1  0  0  0  0
M  CHG  1  18  -1
M  END
$$$$
default_name
  -OEChem-01062215323D

 27 26  0     1  0  0  0  0  0999 V2000
   -3.2406   -3.5400    1.2326 H   0  0  0  0  0  0  0  0  0  0  0  0
   -3.1436   -2.6190    0.6606 C   0  0  0  0  0  0  0  0  0  0  0  0
   -3.8786   -1.8920    0.9996 H   0  0  0  0  0  0  0  0  0  0  0  0
   -3.2846   -2.8280   -0.3984 H   0  0  0  0  0  0  0  0  0  0  0  0
   -1.7586   -2.0580    0.8686 C   0  0  0  0  0  0  0  0  0  0  0  0
   -0.9666   -2.6340    1.6026 O   0  0  0  0  0  0  0  0  0  0  0  0
   -1.4866   -0.9220    0.2366 N   0  0  0  0  0  0  0  0  0  0  0  0
   -2.2166   -0.4790   -0.2994 H   0  0  0  0  0  0  0  0  0  0  0  0
   -0.1956   -0.2250    0.2596 C   0  0  1  0  0  0  0  0  0  0  0  0
    0.2014   -0.1872   -0.7552 H   0  0  0  0  0  0  0  0  0  0  0  0
   -0.4139    1.2278    0.7278 C   0  0  0  0  0  0  0  0  0  0  0  0
   -0.9565    1.1982    1.6740 H   0  0  0  0  0  0  0  0  0  0  0  0
    0.5544    1.6999    0.9005 H   0  0  0  0  0  0  0  0  0  0  0  0
   -1.2191    2.0779   -0.2694 C   0  0  0  0  0  0  0  0  0  0  0  0
   -0.6873    2.1088   -1.2235 H   0  0  0  0  0  0  0  0  0  0  0  0
   -2.1829    1.5898   -0.4364 H   0  0  0  0  0  0  0  0  0  0  0  0
   -1.4568    3.5179    0.2089 C   0  0  0  0  0  0  0  0  0  0  0  0
   -1.1125    3.8216    1.3732 O   0  5  0  0  0  0  0  0  0  0  0  0
   -1.9639    4.3074   -0.6187 O   0  0  0  0  0  0  0  0  0  0  0  0
    0.8246   -0.9922    1.1263 C   0  0  0  0  0  0  0  0  0  0  0  0
    1.3197   -0.4676    2.1260 O   0  0  0  0  0  0  0  0  0  0  0  0
    1.1238   -2.2456    0.7610 N   0  0  0  0  0  0  0  0  0  0  0  0
    0.7212   -2.5888   -0.0984 H   0  0  0  0  0  0  0  0  0  0  0  0
    2.0811   -3.0977    1.4619 C   0  0  0  0  0  0  0  0  0  0  0  0
    1.8435   -3.1200    2.5267 H   0  0  0  0  0  0  0  0  0  0  0  0
    2.0468   -4.1110    1.0593 H   0  0  0  0  0  0  0  0  0  0  0  0
    3.0869   -2.6922    1.3360 H   0  0  0  0  0  0  0  0  0  0  0  0
  5  6  2  0  0  0  0
  5  7  1  0  0  0  0
  2  3  1  0  0  0  0
  2  4  1  0  0  0  0
  2  5  1  0  0  0  0
  1  2  1  0  0  0  0
 20 21  2  0  0  0  0
 20 22  1  0  0  0  0
 17 18  1  0  0  0  0
 17 19  2  0  0  0  0
 14 15  1  0  0  0  0
 14 16  1  0  0  0  0
 14 17  1  0  0  0  0
 11 12  1  0  0  0  0
 11 13  1  0  0  0  0
 11 14  1  0  0  0  0
  9 10  1  0  0  0  0
  9 11  1  0  0  0  0
  9 20  1  0  0  0  0
  7  8  1  0  0  0  0
  7  9  1  0  0  0  0
 24 25  1  0  0  0  0
 24 26  1  0  0  0  0
 24 27  1  0  0  0  0
 22 23  1  0  0  0  0
 22 24  1  0  0  0  0
M  CHG  1  18  -1
M  END
$$$$
default_name
  -OEChem-01062215323D

 27 26  0     1  0  0  0  0  0999 V2000
   -3.2406   -3.5400    1.2326 H   0  0  0  0  0  0  0  0  0  0  0  0
   -3.1436   -2.6190    0.6606 C   0  0  0  0  0  0  0  0  0  0  0  0
   -3.8786   -1.8920    0.9996 H   0  0  0  0  0  0  0  0  0  0  0  0
   -3.2846   -2.8280   -0.3984 H   0  0  0  0  0  0  0  0  0  0  0  0
   -1.7586   -2.0580    0.8686 C   0  0  0  0  0  0  0  0  0  0  0  0
   -0.9666   -2.6340    1.6026 O   0  0  0  0  0  0  0  0  0  0  0  0
   -1.4866   -0.9220    0.2366 N   0  0  0  0  0  0  0  0  0  0  0  0
   -2.2166   -0.4790   -0.2994 H   0  0  0  0  0  0  0  0  0  0  0  0
   -0.1956   -0.2250    0.2596 C   0  0  1  0  0  0  0  0  0  0  0  0
    0.2014   -0.1872   -0.7552 H   0  0  0  0  0  0  0  0  0  0  0  0
   -0.4139    1.2278    0.7278 C   0  0  0  0  0  0  0  0  0  0  0  0
   -0.9565    1.1982    1.6740 H   0  0  0  0  0  0  0  0  0  0  0  0
    0.5544    1.6999    0.9005 H   0  0  0  0  0  0  0  0  0  0  0  0
   -1.2191    2.0779   -0.2694 C   0  0  0  0  0  0  0  0  0  0  0  0
   -0.6873    2.1088   -1.2235 H   0  0  0  0  0  0  0  0  0  0  0  0
   -2.1829    1.5898   -0.4364 H   0  0  0  0  0  0  0  0  0  0  0  0
   -1.4568    3.5179    0.2089 C   0  0  0  0  0  0  0  0  0  0  0  0
   -1.1125    3.8216    1.3732 O   0  5  0  0  0  0  0  0  0  0  0  0
   -1.9639    4.3074   -0.6187 O   0  0  0  0  0  0  0  0  0  0  0  0
    0.8246   -0.9922    1.1263 C   0  0  0  0  0  0  0  0  0  0  0  0
    1.1120   -0.5952    2.2575 O   0  0  0  0  0  0  0  0  0  0  0  0
    1.3567   -2.1074    0.6093 N   0  0  0  0  0  0  0  0  0  0  0  0
    1.1153   -2.3404   -0.3425 H   0  0  0  0  0  0  0  0  0  0  0  0
    2.3477   -2.9357    1.2914 C   0  0  0  0  0  0  0  0  0  0  0  0
    1.9946   -3.1817    2.2942 H   0  0  0  0  0  0  0  0  0  0  0  0
    2.5195   -3.8549    0.7295 H   0  0  0  0  0  0  0  0  0  0  0  0
    3.2853   -2.3829    1.3762 H   0  0  0  0  0  0  0  0  0  0  0  0
  5  6  2  0  0  0  0
  5  7  1  0  0  0  0
  2  3  1  0  0  0  0
  2  4  1  0  0  0  0
  2  5  1  0  0  0  0
  1  2  1  0  0  0  0
 20 21  2  0  0  0  0
 20 22  1  0  0  0  0
 17 18  1  0  0  0  0
 17 19  2  0  0  0  0
 14 15  1  0  0  0  0
 14 16  1  0  0  0  0
 14 17  1  0  0  0  0
 11 12  1  0  0  0  0
 11 13  1  0  0  0  0
 11 14  1  0  0  0  0
  9 10  1  0  0  0  0
  9 11  1  0  0  0  0
  9 20  1  0  0  0  0
  7  8  1  0  0  0  0
  7  9  1  0  0  0  0
 24 25  1  0  0  0  0
 24 26  1  0  0  0  0
 24 27  1  0  0  0  0
 22 23  1  0  0  0  0
 22 24  1  0  0  0  0
M  CHG  1  18  -1
M  END
$$$$
default_name
  -OEChem-01062215323D

 27 26  0     1  0  0  0  0  0999 V2000
   -3.2406   -3.5400    1.2326 H   0  0  0  0  0  0  0  0  0  0  0  0
   -3.1436   -2.6190    0.6606 C   0  0  0  0  0  0  0  0  0  0  0  0
   -3.8786   -1.8920    0.9996 H   0  0  0  0  0  0  0  0  0  0  0  0
   -3.2846   -2.8280   -0.3984 H   0  0  0  0  0  0  0  0  0  0  0  0
   -1.7586   -2.0580    0.8686 C   0  0  0  0  0  0  0  0  0  0  0  0
   -0.9666   -2.6340    1.6026 O   0  0  0  0  0  0  0  0  0  0  0  0
   -1.4866   -0.9220    0.2366 N   0  0  0  0  0  0  0  0  0  0  0  0
   -2.2166   -0.4790   -0.2994 H   0  0  0  0  0  0  0  0  0  0  0  0
   -0.1956   -0.2250    0.2596 C   0  0  1  0  0  0  0  0  0  0  0  0
    0.2014   -0.1872   -0.7552 H   0  0  0  0  0  0  0  0  0  0  0  0
   -0.4139    1.2278    0.7278 C   0  0  0  0  0  0  0  0  0  0  0  0
   -0.9565    1.1982    1.6740 H   0  0  0  0  0  0  0  0  0  0  0  0
    0.5544    1.6999    0.9005 H   0  0  0  0  0  0  0  0  0  0  0  0
   -1.2191    2.0779   -0.2694 C   0  0  0  0  0  0  0  0  0  0  0  0
   -0.6873    2.1088   -1.2235 H   0  0  0  0  0  0  0  0  0  0  0  0
   -2.1829    1.5898   -0.4364 H   0  0  0  0  0  0  0  0  0  0  0  0
   -1.4568    3.5179    0.2089 C   0  0  0  0  0  0  0  0  0  0  0  0
   -1.1125    3.8216    1.3732 O   0  5  0  0  0  0  0  0  0  0  0  0
   -1.9639    4.3074   -0.6187 O   0  0  0  0  0  0  0  0  0  0  0  0
    0.8246   -0.9922    1.1263 C   0  0  0  0  0  0  0  0  0  0  0  0
    0.9131   -0.7712    2.3359 O   0  0  0  0  0  0  0  0  0  0  0  0
    1.5811   -1.9139    0.5163 N   0  0  0  0  0  0  0  0  0  0  0  0
    1.4913   -2.0015   -0.4850 H   0  0  0  0  0  0  0  0  0  0  0  0
    2.6037   -2.7112    1.1887 C   0  0  0  0  0  0  0  0  0  0  0  0
    2.1795   -3.1795    2.0785 H   0  0  0  0  0  0  0  0  0  0  0  0
    2.9813   -3.4823    0.5157 H   0  0  0  0  0  0  0  0  0  0  0  0
    3.4269   -2.0621    1.4934 H   0  0  0  0  0  0  0  0  0  0  0  0
  5  6  2  0  0  0  0
  5  7  1  0  0  0  0
  2  3  1  0  0  0  0
  2  4  1  0  0  0  0
  2  5  1  0  0  0  0
  1  2  1  0  0  0  0
 20 21  2  0  0  0  0
 20 22  1  0  0  0  0
 17 18  1  0  0  0  0
 17 19  2  0  0  0  0
 14 15  1  0  0  0  0
 14 16  1  0  0  0  0
 14 17  1  0  0  0  0
 11 12  1  0  0  0  0
 11 13  1  0  0  0  0
 11 14  1  0  0  0  0
  9 10  1  0  0  0  0
  9 11  1  0  0  0  0
  9 20  1  0  0  0  0
  7  8  1  0  0  0  0
  7  9  1  0  0  0  0
 24 25  1  0  0  0  0
 24 26  1  0  0  0  0
 24 27  1  0  0  0  0
 22 23  1  0  0  0  0
 22 24  1  0  0  0  0
M  CHG  1  18  -1
M  END
$$$$
default_name
  -OEChem-01062215323D

 27 26  0     1  0  0  0  0  0999 V2000
   -3.2406   -3.5400    1.2326 H   0  0  0  0  0  0  0  0  0  0  0  0
   -3.1436   -2.6190    0.6606 C   0  0  0  0  0  0  0  0  0  0  0  0
   -3.8786   -1.8920    0.9996 H   0  0  0  0  0  0  0  0  0  0  0  0
   -3.2846   -2.8280   -0.3984 H   0  0  0  0  0  0  0  0  0  0  0  0
   -1.7586   -2.0580    0.8686 C   0  0  0  0  0  0  0  0  0  0  0  0
   -0.9666   -2.6340    1.6026 O   0  0  0  0  0  0  0  0  0  0  0  0
   -1.4866   -0.9220    0.2366 N   0  0  0  0  0  0  0  0  0  0  0  0
   -2.2166   -0.4790   -0.2994 H   0  0  0  0  0  0  0  0  0  0  0  0
   -0.1956   -0.2250    0.2596 C   0  0  1  0  0  0  0  0  0  0  0  0
    0.2014   -0.1872   -0.7552 H   0  0  0  0  0  0  0  0  0  0  0  0
   -0.4139    1.2278    0.7278 C   0  0  0  0  0  0  0  0  0  0  0  0
   -0.9565    1.1982    1.6740 H   0  0  0  0  0  0  0  0  0  0  0  0
    0.5544    1.6999    0.9005 H   0  0  0  0  0  0  0  0  0  0  0  0
   -1.2191    2.0779   -0.2694 C   0  0  0  0  0  0  0  0  0  0  0  0
   -0.6873    2.1088   -1.2235 H   0  0  0  0  0  0  0  0  0  0  0  0
   -2.1829    1.5898   -0.4364 H   0  0  0  0  0  0  0  0  0  0  0  0
   -1.4568    3.5179    0.2089 C   0  0  0  0  0  0  0  0  0  0  0  0
   -1.1125    3.8216    1.3732 O   0  5  0  0  0  0  0  0  0  0  0  0
   -1.9639    4.3074   -0.6187 O   0  0  0  0  0  0  0  0  0  0  0  0
    0.8246   -0.9922    1.1263 C   0  0  0  0  0  0  0  0  0  0  0  0
    0.7364   -0.9835    2.3559 O   0  0  0  0  0  0  0  0  0  0  0  0
    1.7818   -1.6786    0.4885 N   0  0  0  0  0  0  0  0  0  0  0  0
    1.8236   -1.5950   -0.5163 H   0  0  0  0  0  0  0  0  0  0  0  0
    2.8315   -2.4397    1.1609 C   0  0  0  0  0  0  0  0  0  0  0  0
    2.3856   -3.1136    1.8943 H   0  0  0  0  0  0  0  0  0  0  0  0
    3.4007   -3.0187    0.4324 H   0  0  0  0  0  0  0  0  0  0  0  0
    3.5020   -1.7518    1.6798 H   0  0  0  0  0  0  0  0  0  0  0  0
  5  6  2  0  0  0  0
  5  7  1  0  0  0  0
  2  3  1  0  0  0  0
  2  4  1  0  0  0  0
  2  5  1  0  0  0  0
  1  2  1  0  0  0  0
 20 21  2  0  0  0  0
 20 22  1  0  0  0  0
 17 18  1  0  0  0  0
 17 19  2  0  0  0  0
 14 15  1  0  0  0  0
 14 16  1  0  0  0  0
 14 17  1  0  0  0  0
 11 12  1  0  0  0  0
 11 13  1  0  0  0  0
 11 14  1  0  0  0  0
  9 10  1  0  0  0  0
  9 11  1  0  0  0  0
  9 20  1  0  0  0  0
  7  8  1  0  0  0  0
  7  9  1  0  0  0  0
 24 25  1  0  0  0  0
 24 26  1  0  0  0  0
 24 27  1  0  0  0  0
 22 23  1  0  0  0  0
 22 24  1  0  0  0  0
M  CHG  1  18  -1
M  END
$$$$
default_name
  -OEChem-01062215323D

 27 26  0     1  0  0  0  0  0999 V2000
   -3.2406   -3.5400    1.2326 H   0  0  0  0  0  0  0  0  0  0  0  0
   -3.1436   -2.6190    0.6606 C   0  0  0  0  0  0  0  0  0  0  0  0
   -3.8786   -1.8920    0.9996 H   0  0  0  0  0  0  0  0  0  0  0  0
   -3.2846   -2.8280   -0.3984 H   0  0  0  0  0  0  0  0  0  0  0  0
   -1.7586   -2.0580    0.8686 C   0  0  0  0  0  0  0  0  0  0  0  0
   -0.9666   -2.6340    1.6026 O   0  0  0  0  0  0  0  0  0  0  0  0
   -1.4866   -0.9220    0.2366 N   0  0  0  0  0  0  0  0  0  0  0  0
   -2.2166   -0.4790   -0.2994 H   0  0  0  0  0  0  0  0  0  0  0  0
   -0.1956   -0.2250    0.2596 C   0  0  1  0  0  0  0  0  0  0  0  0
    0.2014   -0.1872   -0.7552 H   0  0  0  0  0  0  0  0  0  0  0  0
   -0.4139    1.2278    0.7278 C   0  0  0  0  0  0  0  0  0  0  0  0
   -0.9565    1.1982    1.6740 H   0  0  0  0  0  0  0  0  0  0  0  0
    0.5544    1.6999    0.9005 H   0  0  0  0  0  0  0  0  0  0  0  0
   -1.2191    2.0779   -0.2694 C   0  0  0  0  0  0  0  0  0  0  0  0
   -0.6873    2.1088   -1.2235 H   0  0  0  0  0  0  0  0  0  0  0  0
   -2.1829    1.5898   -0.4364 H   0  0  0  0  0  0  0  0  0  0  0  0
   -1.4568    3.5179    0.2089 C   0  0  0  0  0  0  0  0  0  0  0  0
   -1.1125    3.8216    1.3732 O   0  5  0  0  0  0  0  0  0  0  0  0
   -1.9639    4.3074   -0.6187 O   0  0  0  0  0  0  0  0  0  0  0  0
    0.8246   -0.9922    1.1263 C   0  0  0  0  0  0  0  0  0  0  0  0
    0.5941   -1.2177    2.3162 O   0  0  0  0  0  0  0  0  0  0  0  0
    1.9449   -1.4173    0.5278 N   0  0  0  0  0  0  0  0  0  0  0  0
    2.0894   -1.1488   -0.4342 H   0  0  0  0  0  0  0  0  0  0  0  0
    3.0157   -2.1395    1.2099 C   0  0  0  0  0  0  0  0  0  0  0  0
    2.5987   -2.9884    1.7542 H   0  0  0  0  0  0  0  0  0  0  0  0
    3.7492   -2.4957    0.4852 H   0  0  0  0  0  0  0  0  0  0  0  0
    3.5054   -1.4730    1.9226 H   0  0  0  0  0  0  0  0  0  0  0  0
  5  6  2  0  0  0  0
  5  7  1  0  0  0  0
  2  3  1  0  0  0  0
  2  4  1  0  0  0  0
  2  5  1  0  0  0  0
  1  2  1  0  0  0  0
 20 21  2  0  0  0  0
 20 22  1  0  0  0  0
 17 18  1  0  0  0  0
 17 19  2  0  0  0  0
 14 15  1  0  0  0  0
 14 16  1  0  0  0  0
 14 17  1  0  0  0  0
 11 12  1  0  0  0  0
 11 13  1  0  0  0  0
 11 14  1  0  0  0  0
  9 10  1  0  0  0  0
  9 11  1  0  0  0  0
  9 20  1  0  0  0  0
  7  8  1  0  0  0  0
  7  9  1  0  0  0  0
 24 25  1  0  0  0  0
 24 26  1  0  0  0  0
 24 27  1  0  0  0  0
 22 23  1  0  0  0  0
 22 24  1  0  0  0  0
M  CHG  1  18  -1
M  END
$$$$
default_name
  -OEChem-01062215323D

 27 26  0     1  0  0  0  0  0999 V2000
   -3.2406   -3.5400    1.2326 H   0  0  0  0  0  0  0  0  0  0  0  0
   -3.1436   -2.6190    0.6606 C   0  0  0  0  0  0  0  0  0  0  0  0
   -3.8786   -1.8920    0.9996 H   0  0  0  0  0  0  0  0  0  0  0  0
   -3.2846   -2.8280   -0.3984 H   0  0  0  0  0  0  0  0  0  0  0  0
   -1.7586   -2.0580    0.8686 C   0  0  0  0  0  0  0  0  0  0  0  0
   -0.9666   -2.6340    1.6026 O   0  0  0  0  0  0  0  0  0  0  0  0
   -1.4866   -0.9220    0.2366 N   0  0  0  0  0  0  0  0  0  0  0  0
   -2.2166   -0.4790   -0.2994 H   0  0  0  0  0  0  0  0  0  0  0  0
   -0.1956   -0.2250    0.2596 C   0  0  1  0  0  0  0  0  0  0  0  0
    0.2014   -0.1872   -0.7552 H   0  0  0  0  0  0  0  0  0  0  0  0
   -0.4139    1.2278    0.7278 C   0  0  0  0  0  0  0  0  0  0  0  0
   -0.9565    1.1982    1.6740 H   0  0  0  0  0  0  0  0  0  0  0  0
    0.5544    1.6999    0.9005 H   0  0  0  0  0  0  0  0  0  0  0  0
   -1.2191    2.0779   -0.2694 C   0  0  0  0  0  0  0  0  0  0  0  0
   -0.6873    2.1088   -1.2235 H   0  0  0  0  0  0  0  0  0  0  0  0
   -2.1829    1.5898   -0.4364 H   0  0  0  0  0  0  0  0  0  0  0  0
   -1.4568    3.5179    0.2089 C   0  0  0  0  0  0  0  0  0  0  0  0
   -1.1125    3.8216    1.3732 O   0  5  0  0  0  0  0  0  0  0  0  0
   -1.9639    4.3074   -0.6187 O   0  0  0  0  0  0  0  0  0  0  0  0
    0.8246   -0.9922    1.1263 C   0  0  0  0  0  0  0  0  0  0  0  0
    0.4957   -1.4578    2.2194 O   0  0  0  0  0  0  0  0  0  0  0  0
    2.0594   -1.1480    0.6314 N   0  0  0  0  0  0  0  0  0  0  0  0
    2.2708   -0.6931   -0.2444 H   0  0  0  0  0  0  0  0  0  0  0  0
    3.1437   -1.8311    1.3322 C   0  0  0  0  0  0  0  0  0  0  0  0
    2.8044   -2.8126    1.6677 H   0  0  0  0  0  0  0  0  0  0  0  0
    4.0030   -1.9489    0.6705 H   0  0  0  0  0  0  0  0  0  0  0  0
    3.4368   -1.2448    2.2052 H   0  0  0  0  0  0  0  0  0  0  0  0
  5  6  2  0  0  0  0
  5  7  1  0  0  0  0
  2  3  1  0  0  0  0
  2  4  1  0  0  0  0
  2  5  1  0  0  0  0
  1  2  1  0  0  0  0
 20 21  2  0  0  0  0
 20 22  1  0  0  0  0
 17 18  1  0  0  0  0
 17 19  2  0  0  0  0
 14 15  1  0  0  0  0
 14 16  1  0  0  0  0
 14 17  1  0  0  0  0
 11 12  1  0  0  0  0
 11 13  1  0  0  0  0
 11 14  1  0  0  0  0
  9 10  1  0  0  0  0
  9 11  1  0  0  0  0
  9 20  1  0  0  0  0
  7  8  1  0  0  0  0
  7  9  1  0  0  0  0
 24 25  1  0  0  0  0
 24 26  1  0  0  0  0
 24 27  1  0  0  0  0
 22 23  1  0  0  0  0
 22 24  1  0  0  0  0
M  CHG  1  18  -1
M  END
$$$$
default_name
  -OEChem-01062215323D

 27 26  0     1  0  0  0  0  0999 V2000
   -3.2406   -3.5400    1.2326 H   0  0  0  0  0  0  0  0  0  0  0  0
   -3.1436   -2.6190    0.6606 C   0  0  0  0  0  0  0  0  0  0  0  0
   -3.8786   -1.8920    0.9996 H   0  0  0  0  0  0  0  0  0  0  0  0
   -3.2846   -2.8280   -0.3984 H   0  0  0  0  0  0  0  0  0  0  0  0
   -1.7586   -2.0580    0.8686 C   0  0  0  0  0  0  0  0  0  0  0  0
   -0.9666   -2.6340    1.6026 O   0  0  0  0  0  0  0  0  0  0  0  0
   -1.4866   -0.9220    0.2366 N   0  0  0  0  0  0  0  0  0  0  0  0
   -2.2166   -0.4790   -0.2994 H   0  0  0  0  0  0  0  0  0  0  0  0
   -0.1956   -0.2250    0.2596 C   0  0  1  0  0  0  0  0  0  0  0  0
    0.2014   -0.1872   -0.7552 H   0  0  0  0  0  0  0  0  0  0  0  0
   -0.4139    1.2278    0.7278 C   0  0  0  0  0  0  0  0  0  0  0  0
   -0.9565    1.1982    1.6740 H   0  0  0  0  0  0  0  0  0  0  0  0
    0.5544    1.6999    0.9005 H   0  0  0  0  0  0  0  0  0  0  0  0
   -1.2191    2.0779   -0.2694 C   0  0  0  0  0  0  0  0  0  0  0  0
   -0.6873    2.1088   -1.2235 H   0  0  0  0  0  0  0  0  0  0  0  0
   -2.1829    1.5898   -0.4364 H   0  0  0  0  0  0  0  0  0  0  0  0
   -1.4568    3.5179    0.2089 C   0  0  0  0  0  0  0  0  0  0  0  0
   -1.1125    3.8216    1.3732 O   0  5  0  0  0  0  0  0  0  0  0  0
   -1.9639    4.3074   -0.6187 O   0  0  0  0  0  0  0  0  0  0  0  0
    0.8246   -0.9922    1.1263 C   0  0  0  0  0  0  0  0  0  0  0  0
    0.4481   -1.6874    2.0722 O   0  0  0  0  0  0  0  0  0  0  0  0
    2.1176   -0.8888    0.7923 N   0  0  0  0  0  0  0  0  0  0  0  0
    2.3553   -0.2591    0.0404 H   0  0  0  0  0  0  0  0  0  0  0  0
    3.2067   -1.5356    1.5196 C   0  0  0  0  0  0  0  0  0  0  0  0
    2.9887   -2.5980    1.6408 H   0  0  0  0  0  0  0  0  0  0  0  0
    4.1447   -1.4155    0.9758 H   0  0  0  0  0  0  0  0  0  0  0  0
    3.3011   -1.0827    2.5085 H   0  0  0  0  0  0  0  0  0  0  0  0
  5  6  2  0  0  0  0
  5  7  1  0  0  0  0
  2  3  1  0  0  0  0
  2  4  1  0  0  0  0
  2  5  1  0  0  0  0
  1  2  1  0  0  0  0
 20 21  2  0  0  0  0
 20 22  1  0  0  0  0
 17 18  1  0  0  0  0
 17 19  2  0  0  0  0
 14 15  1  0  0  0  0
 14 16  1  0  0  0  0
 14 17  1  0  0  0  0
 11 12  1  0  0  0  0
 11 13  1  0  0  0  0
 11 14  1  0  0  0  0
  9 10  1  0  0  0  0
  9 11  1  0  0  0  0
  9 20  1  0  0  0  0
  7  8  1  0  0  0  0
  7  9  1  0  0  0  0
 24 25  1  0  0  0  0
 24 26  1  0  0  0  0
 24 27  1  0  0  0  0
 22 23  1  0  0  0  0
 22 24  1  0  0  0  0
M  CHG  1  18  -1
M  END
$$$$
default_name
  -OEChem-01062215323D

 27 26  0     1  0  0  0  0  0999 V2000
   -3.2406   -3.5400    1.2326 H   0  0  0  0  0  0  0  0  0  0  0  0
   -3.1436   -2.6190    0.6606 C   0  0  0  0  0  0  0  0  0  0  0  0
   -3.8786   -1.8920    0.9996 H   0  0  0  0  0  0  0  0  0  0  0  0
   -3.2846   -2.8280   -0.3984 H   0  0  0  0  0  0  0  0  0  0  0  0
   -1.7586   -2.0580    0.8686 C   0  0  0  0  0  0  0  0  0  0  0  0
   -0.9666   -2.6340    1.6026 O   0  0  0  0  0  0  0  0  0  0  0  0
   -1.4866   -0.9220    0.2366 N   0  0  0  0  0  0  0  0  0  0  0  0
   -2.2166   -0.4790   -0.2994 H   0  0  0  0  0  0  0  0  0  0  0  0
   -0.1956   -0.2250    0.2596 C   0  0  1  0  0  0  0  0  0  0  0  0
    0.2014   -0.1872   -0.7552 H   0  0  0  0  0  0  0  0  0  0  0  0
   -0.4139    1.2278    0.7278 C   0  0  0  0  0  0  0  0  0  0  0  0
   -0.9565    1.1982    1.6740 H   0  0  0  0  0  0  0  0  0  0  0  0
    0.5544    1.6999    0.9005 H   0  0  0  0  0  0  0  0  0  0  0  0
   -1.2191    2.0779   -0.2694 C   0  0  0  0  0  0  0  0  0  0  0  0
   -0.6873    2.1088   -1.2235 H   0  0  0  0  0  0  0  0  0  0  0  0
   -2.1829    1.5898   -0.4364 H   0  0  0  0  0  0  0  0  0  0  0  0
   -1.4568    3.5179    0.2089 C   0  0  0  0  0  0  0  0  0  0  0  0
   -1.1125    3.8216    1.3732 O   0  5  0  0  0  0  0  0  0  0  0  0
   -1.9639    4.3074   -0.6187 O   0  0  0  0  0  0  0  0  0  0  0  0
    0.8246   -0.9922    1.1263 C   0  0  0  0  0  0  0  0  0  0  0  0
    0.4544   -1.8910    1.8846 O   0  0  0  0  0  0  0  0  0  0  0  0
    2.1153   -0.6576    0.9996 N   0  0  0  0  0  0  0  0  0  0  0  0
    2.3371    0.1237    0.4005 H   0  0  0  0  0  0  0  0  0  0  0  0
    3.2004   -1.2731    1.7594 C   0  0  0  0  0  0  0  0  0  0  0  0
    3.1390   -2.3594    1.6751 H   0  0  0  0  0  0  0  0  0  0  0  0
    4.1648   -0.9319    1.3802 H   0  0  0  0  0  0  0  0  0  0  0  0
    3.1074   -0.9977    2.8117 H   0  0  0  0  0  0  0  0  0  0  0  0
  5  6  2  0  0  0  0
  5  7  1  0  0  0  0
  2  3  1  0  0  0  0
  2  4  1  0  0  0  0
  2  5  1  0  0  0  0
  1  2  1  0  0  0  0
 20 21  2  0  0  0  0
 20 22  1  0  0  0  0
 17 18  1  0  0  0  0
 17 19  2  0  0  0  0
 14 15  1  0  0  0  0
 14 16  1  0  0  0  0
 14 17  1  0  0  0  0
 11 12  1  0  0  0  0
 11 13  1  0  0  0  0
 11 14  1  0  0  0  0
  9 10  1  0  0  0  0
  9 11  1  0  0  0  0
  9 20  1  0  0  0  0
  7  8  1  0  0  0  0
  7  9  1  0  0  0  0
 24 25  1  0  0  0  0
 24 26  1  0  0  0  0
 24 27  1  0  0  0  0
 22 23  1  0  0  0  0
 22 24  1  0  0  0  0
M  CHG  1  18  -1
M  END
$$$$
default_name
  -OEChem-01062215323D

 27 26  0     1  0  0  0  0  0999 V2000
   -3.2406   -3.5400    1.2326 H   0  0  0  0  0  0  0  0  0  0  0  0
   -3.1436   -2.6190    0.6606 C   0  0  0  0  0  0  0  0  0  0  0  0
   -3.8786   -1.8920    0.9996 H   0  0  0  0  0  0  0  0  0  0  0  0
   -3.2846   -2.8280   -0.3984 H   0  0  0  0  0  0  0  0  0  0  0  0
   -1.7586   -2.0580    0.8686 C   0  0  0  0  0  0  0  0  0  0  0  0
   -0.9666   -2.6340    1.6026 O   0  0  0  0  0  0  0  0  0  0  0  0
   -1.4866   -0.9220    0.2366 N   0  0  0  0  0  0  0  0  0  0  0  0
   -2.2166   -0.4790   -0.2994 H   0  0  0  0  0  0  0  0  0  0  0  0
   -0.1956   -0.2250    0.2596 C   0  0  1  0  0  0  0  0  0  0  0  0
    0.0735    0.0499   -0.7606 H   0  0  0  0  0  0  0  0  0  0  0  0
   -0.3397    1.0790    1.0698 C   0  0  0  0  0  0  0  0  0  0  0  0
   -0.7616    0.8250    2.0435 H   0  0  0  0  0  0  0  0  0  0  0  0
    0.6473    1.5171    1.2256 H   0  0  0  0  0  0  0  0  0  0  0  0
   -1.2530    2.1188    0.3989 C   0  0  0  0  0  0  0  0  0  0  0  0
   -0.8428    2.3755   -0.5807 H   0  0  0  0  0  0  0  0  0  0  0  0
   -2.2350    1.6638    0.2444 H   0  0  0  0  0  0  0  0  0  0  0  0
   -1.4153    3.4076    1.2184 C   0  0  0  0  0  0  0  0  0  0  0  0
   -0.9268    3.4447    2.3701 O   0  5  0  0  0  0  0  0  0  0  0  0
   -2.0125    4.3553    0.6611 O   0  0  0  0  0  0  0  0  0  0  0  0
    0.9159   -1.1505    0.7970 C   0  0  0  0  0  0  0  0  0  0  0  0
    0.6642   -2.3140    1.1173 O   0  0  0  0  0  0  0  0  0  0  0  0
    2.1540   -0.6453    0.8744 N   0  0  0  0  0  0  0  0  0  0  0  0
    2.2738    0.3305    0.6464 H   0  0  0  0  0  0  0  0  0  0  0  0
    3.3104   -1.3824    1.3772 C   0  0  0  0  0  0  0  0  0  0  0  0
    3.3855   -2.3434    0.8654 H   0  0  0  0  0  0  0  0  0  0  0  0
    4.2230   -0.8083    1.2106 H   0  0  0  0  0  0  0  0  0  0  0  0
    3.1873   -1.5641    2.4466 H   0  0  0  0  0  0  0  0  0  0  0  0
  5  6  2  0  0  0  0
  5  7  1  0  0  0  0
  2  3  1  0  0  0  0
  2  4  1  0  0  0  0
  2  5  1  0  0  0  0
  1  2  1  0  0  0  0
 20 21  2  0  0  0  0
 20 22  1  0  0  0  0
 17 18  1  0  0  0  0
 17 19  2  0  0  0  0
 14 15  1  0  0  0  0
 14 16  1  0  0  0  0
 14 17  1  0  0  0  0
 11 12  1  0  0  0  0
 11 13  1  0  0  0  0
 11 14  1  0  0  0  0
  9 10  1  0  0  0  0
  9 11  1  0  0  0  0
  9 20  1  0  0  0  0
  7  8  1  0  0  0  0
  7  9  1  0  0  0  0
 24 25  1  0  0  0  0
 24 26  1  0  0  0  0
 24 27  1  0  0  0  0
 22 23  1  0  0  0  0
 22 24  1  0  0  0  0
M  CHG  1  18  -1
M  END
$$$$
default_name
  -OEChem-01062215323D

 27 26  0     1  0  0  0  0  0999 V2000
   -3.2406   -3.5400    1.2326 H   0  0  0  0  0  0  0  0  0  0  0  0
   -3.1436   -2.6190    0.6606 C   0  0  0  0  0  0  0  0  0  0  0  0
   -3.8786   -1.8920    0.9996 H   0  0  0  0  0  0  0  0  0  0  0  0
   -3.2846   -2.8280   -0.3984 H   0  0  0  0  0  0  0  0  0  0  0  0
   -1.7586   -2.0580    0.8686 C   0  0  0  0  0  0  0  0  0  0  0  0
   -0.9666   -2.6340    1.6026 O   0  0  0  0  0  0  0  0  0  0  0  0
   -1.4866   -0.9220    0.2366 N   0  0  0  0  0  0  0  0  0  0  0  0
   -2.2166   -0.4790   -0.2994 H   0  0  0  0  0  0  0  0  0  0  0  0
   -0.1956   -0.2250    0.2596 C   0  0  1  0  0  0  0  0  0  0  0  0
    0.0735    0.0499   -0.7606 H   0  0  0  0  0  0  0  0  0  0  0  0
   -0.3397    1.0790    1.0698 C   0  0  0  0  0  0  0  0  0  0  0  0
   -0.7616    0.8250    2.0435 H   0  0  0  0  0  0  0  0  0  0  0  0
    0.6473    1.5171    1.2256 H   0  0  0  0  0  0  0  0  0  0  0  0
   -1.2530    2.1188    0.3989 C   0  0  0  0  0  0  0  0  0  0  0  0
   -0.8428    2.3755   -0.5807 H   0  0  0  0  0  0  0  0  0  0  0  0
   -2.2350    1.6638    0.2444 H   0  0  0  0  0  0  0  0  0  0  0  0
   -1.4153    3.4076    1.2184 C   0  0  0  0  0  0  0  0  0  0  0  0
   -0.9268    3.4447    2.3701 O   0  5  0  0  0  0  0  0  0  0  0  0
   -2.0125    4.3553    0.6611 O   0  0  0  0  0  0  0  0  0  0  0  0
    0.9159   -1.1505    0.7970 C   0  0  0  0  0  0  0  0  0  0  0  0
    0.7433   -2.3696    0.8578 O   0  0  0  0  0  0  0  0  0  0  0  0
    2.0694   -0.5779    1.1655 N   0  0  0  0  0  0  0  0  0  0  0  0
    2.1183    0.4297    1.1389 H   0  0  0  0  0  0  0  0  0  0  0  0
    3.2104   -1.3091    1.7104 C   0  0  0  0  0  0  0  0  0  0  0  0
    3.4601   -2.1443    1.0539 H   0  0  0  0  0  0  0  0  0  0  0  0
    4.0722   -0.6464    1.8012 H   0  0  0  0  0  0  0  0  0  0  0  0
    2.9514   -1.7030    2.6951 H   0  0  0  0  0  0  0  0  0  0  0  0
  5  6  2  0  0  0  0
  5  7  1  0  0  0  0
  2  3  1  0  0  0  0
  2  4  1  0  0  0  0
  2  5  1  0  0  0  0
  1  2  1  0  0  0  0
 20 21  2  0  0  0  0
 20 22  1  0  0  0  0
 17 18  1  0  0  0  0
 17 19  2  0  0  0  0
 14 15  1  0  0  0  0
 14 16  1  0  0  0  0
 14 17  1  0  0  0  0
 11 12  1  0  0  0  0
 11 13  1  0  0  0  0
 11 14  1  0  0  0  0
  9 10  1  0  0  0  0
  9 11  1  0  0  0  0
  9 20  1  0  0  0  0
  7  8  1  0  0  0  0
  7  9  1  0  0  0  0
 24 25  1  0  0  0  0
 24 26  1  0  0  0  0
 24 27  1  0  0  0  0
 22 23  1  0  0  0  0
 22 24  1  0  0  0  0
M  CHG  1  18  -1
M  END
$$$$
default_name
  -OEChem-01062215323D

 27 26  0     1  0  0  0  0  0999 V2000
   -3.2406   -3.5400    1.2326 H   0  0  0  0  0  0  0  0  0  0  0  0
   -3.1436   -2.6190    0.6606 C   0  0  0  0  0  0  0  0  0  0  0  0
   -3.8786   -1.8920    0.9996 H   0  0  0  0  0  0  0  0  0  0  0  0
   -3.2846   -2.8280   -0.3984 H   0  0  0  0  0  0  0  0  0  0  0  0
   -1.7586   -2.0580    0.8686 C   0  0  0  0  0  0  0  0  0  0  0  0
   -0.9666   -2.6340    1.6026 O   0  0  0  0  0  0  0  0  0  0  0  0
   -1.4866   -0.9220    0.2366 N   0  0  0  0  0  0  0  0  0  0  0  0
   -2.2166   -0.4790   -0.2994 H   0  0  0  0  0  0  0  0  0  0  0  0
   -0.1956   -0.2250    0.2596 C   0  0  1  0  0  0  0  0  0  0  0  0
    0.0735    0.0499   -0.7606 H   0  0  0  0  0  0  0  0  0  0  0  0
   -0.3397    1.0790    1.0698 C   0  0  0  0  0  0  0  0  0  0  0  0
   -0.7616    0.8250    2.0435 H   0  0  0  0  0  0  0  0  0  0  0  0
    0.6473    1.5171    1.2256 H   0  0  0  0  0  0  0  0  0  0  0  0
   -1.2530    2.1188    0.3989 C   0  0  0  0  0  0  0  0  0  0  0  0
   -0.8428    2.3755   -0.5807 H   0  0  0  0  0  0  0  0  0  0  0  0
   -2.2350    1.6638    0.2444 H   0  0  0  0  0  0  0  0  0  0  0  0
   -1.4153    3.4076    1.2184 C   0  0  0  0  0  0  0  0  0  0  0  0
   -0.9268    3.4447    2.3701 O   0  5  0  0  0  0  0  0  0  0  0  0
   -2.0125    4.3553    0.6611 O   0  0  0  0  0  0  0  0  0  0  0  0
    0.9159   -1.1505    0.7970 C   0  0  0  0  0  0  0  0  0  0  0  0
    0.8651   -2.3678    0.6091 O   0  0  0  0  0  0  0  0  0  0  0  0
    1.9364   -0.5748    1.4460 N   0  0  0  0  0  0  0  0  0  0  0  0
    1.8828    0.4198    1.6089 H   0  0  0  0  0  0  0  0  0  0  0  0
    3.0554   -1.3094    2.0304 C   0  0  0  0  0  0  0  0  0  0  0  0
    3.4849   -1.9805    1.2847 H   0  0  0  0  0  0  0  0  0  0  0  0
    3.8203   -0.6138    2.3785 H   0  0  0  0  0  0  0  0  0  0  0  0
    2.6976   -1.9049    2.8725 H   0  0  0  0  0  0  0  0  0  0  0  0
  5  6  2  0  0  0  0
  5  7  1  0  0  0  0
  2  3  1  0  0  0  0
  2  4  1  0  0  0  0
  2  5  1  0  0  0  0
  1  2  1  0  0  0  0
 20 21  2  0  0  0  0
 20 22  1  0  0  0  0
 17 18  1  0  0  0  0
 17 19  2  0  0  0  0
 14 15  1  0  0  0  0
 14 16  1  0  0  0  0
 14 17  1  0  0  0  0
 11 12  1  0  0  0  0
 11 13  1  0  0  0  0
 11 14  1  0  0  0  0
  9 10  1  0  0  0  0
  9 11  1  0  0  0  0
  9 20  1  0  0  0  0
  7  8  1  0  0  0  0
  7  9  1  0  0  0  0
 24 25  1  0  0  0  0
 24 26  1  0  0  0  0
 24 27  1  0  0  0  0
 22 23  1  0  0  0  0
 22 24  1  0  0  0  0
M  CHG  1  18  -1
M  END
$$$$
default_name
  -OEChem-01062215323D

 27 26  0     1  0  0  0  0  0999 V2000
   -3.2406   -3.5400    1.2326 H   0  0  0  0  0  0  0  0  0  0  0  0
   -3.1436   -2.6190    0.6606 C   0  0  0  0  0  0  0  0  0  0  0  0
   -3.8786   -1.8920    0.9996 H   0  0  0  0  0  0  0  0  0  0  0  0
   -3.2846   -2.8280   -0.3984 H   0  0  0  0  0  0  0  0  0  0  0  0
   -1.7586   -2.0580    0.8686 C   0  0  0  0  0  0  0  0  0  0  0  0
   -0.9666   -2.6340    1.6026 O   0  0  0  0  0  0  0  0  0  0  0  0
   -1.4866   -0.9220    0.2366 N   0  0  0  0  0  0  0  0  0  0  0  0
   -2.2166   -0.4790   -0.2994 H   0  0  0  0  0  0  0  0  0  0  0  0
   -0.1956   -0.2250    0.2596 C   0  0  1  0  0  0  0  0  0  0  0  0
    0.0735    0.0499   -0.7606 H   0  0  0  0  0  0  0  0  0  0  0  0
   -0.3397    1.0790    1.0698 C   0  0  0  0  0  0  0  0  0  0  0  0
   -0.7616    0.8250    2.0435 H   0  0  0  0  0  0  0  0  0  0  0  0
    0.6473    1.5171    1.2256 H   0  0  0  0  0  0  0  0  0  0  0  0
   -1.2530    2.1188    0.3989 C   0  0  0  0  0  0  0  0  0  0  0  0
   -0.8428    2.3755   -0.5807 H   0  0  0  0  0  0  0  0  0  0  0  0
   -2.2350    1.6638    0.2444 H   0  0  0  0  0  0  0  0  0  0  0  0
   -1.4153    3.4076    1.2184 C   0  0  0  0  0  0  0  0  0  0  0  0
   -0.9268    3.4447    2.3701 O   0  5  0  0  0  0  0  0  0  0  0  0
   -2.0125    4.3553    0.6611 O   0  0  0  0  0  0  0  0  0  0  0  0
    0.9159   -1.1505    0.7970 C   0  0  0  0  0  0  0  0  0  0  0  0
    1.0211   -2.3087    0.3881 O   0  0  0  0  0  0  0  0  0  0  0  0
    1.7640   -0.6360    1.6970 N   0  0  0  0  0  0  0  0  0  0  0  0
    1.5832    0.3013    2.0246 H   0  0  0  0  0  0  0  0  0  0  0  0
    2.8561   -1.3833    2.3154 C   0  0  0  0  0  0  0  0  0  0  0  0
    3.4583   -1.8630    1.5420 H   0  0  0  0  0  0  0  0  0  0  0  0
    3.4844   -0.7126    2.9031 H   0  0  0  0  0  0  0  0  0  0  0  0
    2.4430   -2.1558    2.9669 H   0  0  0  0  0  0  0  0  0  0  0  0
  5  6  2  0  0  0  0
  5  7  1  0  0  0  0
  2  3  1  0  0  0  0
  2  4  1  0  0  0  0
  2  5  1  0  0  0  0
  1  2  1  0  0  0  0
 20 21  2  0  0  0  0
 20 22  1  0  0  0  0
 17 18  1  0  0  0  0
 17 19  2  0  0  0  0
 14 15  1  0  0  0  0
 14 16  1  0  0  0  0
 14 17  1  0  0  0  0
 11 12  1  0  0  0  0
 11 13  1  0  0  0  0
 11 14  1  0  0  0  0
  9 10  1  0  0  0  0
  9 11  1  0  0  0  0
  9 20  1  0  0  0  0
  7  8  1  0  0  0  0
  7  9  1  0  0  0  0
 24 25  1  0  0  0  0
 24 26  1  0  0  0  0
 24 27  1  0  0  0  0
 22 23  1  0  0  0  0
 22 24  1  0  0  0  0
M  CHG  1  18  -1
M  END
$$$$
default_name
  -OEChem-01062215323D

 27 26  0     1  0  0  0  0  0999 V2000
   -3.2406   -3.5400    1.2326 H   0  0  0  0  0  0  0  0  0  0  0  0
   -3.1436   -2.6190    0.6606 C   0  0  0  0  0  0  0  0  0  0  0  0
   -3.8786   -1.8920    0.9996 H   0  0  0  0  0  0  0  0  0  0  0  0
   -3.2846   -2.8280   -0.3984 H   0  0  0  0  0  0  0  0  0  0  0  0
   -1.7586   -2.0580    0.8686 C   0  0  0  0  0  0  0  0  0  0  0  0
   -0.9666   -2.6340    1.6026 O   0  0  0  0  0  0  0  0  0  0  0  0
   -1.4866   -0.9220    0.2366 N   0  0  0  0  0  0  0  0  0  0  0  0
   -2.2166   -0.4790   -0.2994 H   0  0  0  0  0  0  0  0  0  0  0  0
   -0.1956   -0.2250    0.2596 C   0  0  1  0  0  0  0  0  0  0  0  0
    0.0735    0.0499   -0.7606 H   0  0  0  0  0  0  0  0  0  0  0  0
   -0.3397    1.0790    1.0698 C   0  0  0  0  0  0  0  0  0  0  0  0
   -0.7616    0.8250    2.0435 H   0  0  0  0  0  0  0  0  0  0  0  0
    0.6473    1.5171    1.2256 H   0  0  0  0  0  0  0  0  0  0  0  0
   -1.2530    2.1188    0.3989 C   0  0  0  0  0  0  0  0  0  0  0  0
   -0.8428    2.3755   -0.5807 H   0  0  0  0  0  0  0  0  0  0  0  0
   -2.2350    1.6638    0.2444 H   0  0  0  0  0  0  0  0  0  0  0  0
   -1.4153    3.4076    1.2184 C   0  0  0  0  0  0  0  0  0  0  0  0
   -0.9268    3.4447    2.3701 O   0  5  0  0  0  0  0  0  0  0  0  0
   -2.0125    4.3553    0.6611 O   0  0  0  0  0  0  0  0  0  0  0  0
    0.9159   -1.1505    0.7970 C   0  0  0  0  0  0  0  0  0  0  0  0
    1.2008   -2.1963    0.2099 O   0  0  0  0  0  0  0  0  0  0  0  0
    1.5642   -0.7575    1.9012 N   0  0  0  0  0  0  0  0  0  0  0  0
    1.2399    0.0823    2.3574 H   0  0  0  0  0  0  0  0  0  0  0  0
    2.6260   -1.5258    2.5460 C   0  0  0  0  0  0  0  0  0  0  0  0
    3.3821   -1.7999    1.8083 H   0  0  0  0  0  0  0  0  0  0  0  0
    3.0874   -0.9361    3.3393 H   0  0  0  0  0  0  0  0  0  0  0  0
    2.2051   -2.4387    2.9718 H   0  0  0  0  0  0  0  0  0  0  0  0
  5  6  2  0  0  0  0
  5  7  1  0  0  0  0
  2  3  1  0  0  0  0
  2  4  1  0  0  0  0
  2  5  1  0  0  0  0
  1  2  1  0  0  0  0
 20 21  2  0  0  0  0
 20 22  1  0  0  0  0
 17 18  1  0  0  0  0
 17 19  2  0  0  0  0
 14 15  1  0  0  0  0
 14 16  1  0  0  0  0
 14 17  1  0  0  0  0
 11 12  1  0  0  0  0
 11 13  1  0  0  0  0
 11 14  1  0  0  0  0
  9 10  1  0  0  0  0
  9 11  1  0  0  0  0
  9 20  1  0  0  0  0
  7  8  1  0  0  0  0
  7  9  1  0  0  0  0
 24 25  1  0  0  0  0
 24 26  1  0  0  0  0
 24 27  1  0  0  0  0
 22 23  1  0  0  0  0
 22 24  1  0  0  0  0
M  CHG  1  18  -1
M  END
$$$$
default_name
  -OEChem-01062215323D

 27 26  0     1  0  0  0  0  0999 V2000
   -3.2406   -3.5400    1.2326 H   0  0  0  0  0  0  0  0  0  0  0  0
   -3.1436   -2.6190    0.6606 C   0  0  0  0  0  0  0  0  0  0  0  0
   -3.8786   -1.8920    0.9996 H   0  0  0  0  0  0  0  0  0  0  0  0
   -3.2846   -2.8280   -0.3984 H   0  0  0  0  0  0  0  0  0  0  0  0
   -1.7586   -2.0580    0.8686 C   0  0  0  0  0  0  0  0  0  0  0  0
   -0.9666   -2.6340    1.6026 O   0  0  0  0  0  0  0  0  0  0  0  0
   -1.4866   -0.9220    0.2366 N   0  0  0  0  0  0  0  0  0  0  0  0
   -2.2166   -0.4790   -0.2994 H   0  0  0  0  0  0  0  0  0  0  0  0
   -0.1956   -0.2250    0.2596 C   0  0  1  0  0  0  0  0  0  0  0  0
    0.0735    0.0499   -0.7606 H   0  0  0  0  0  0  0  0  0  0  0  0
   -0.3397    1.0790    1.0698 C   0  0  0  0  0  0  0  0  0  0  0  0
   -0.7616    0.8250    2.0435 H   0  0  0  0  0  0  0  0  0  0  0  0
    0.6473    1.5171    1.2256 H   0  0  0  0  0  0  0  0  0  0  0  0
   -1.2530    2.1188    0.3989 C   0  0  0  0  0  0  0  0  0  0  0  0
   -0.8428    2.3755   -0.5807 H   0  0  0  0  0  0  0  0  0  0  0  0
   -2.2350    1.6638    0.2444 H   0  0  0  0  0  0  0  0  0  0  0  0
   -1.4153    3.4076    1.2184 C   0  0  0  0  0  0  0  0  0  0  0  0
   -0.9268    3.4447    2.3701 O   0  5  0  0  0  0  0  0  0  0  0  0
   -2.0125    4.3553    0.6611 O   0  0  0  0  0  0  0  0  0  0  0  0
    0.9159   -1.1505    0.7970 C   0  0  0  0  0  0  0  0  0  0  0  0
    1.3919   -2.0384    0.0866 O   0  0  0  0  0  0  0  0  0  0  0  0
    1.3504   -0.9309    2.0448 N   0  0  0  0  0  0  0  0  0  0  0  0
    0.8764   -0.2222    2.5849 H   0  0  0  0  0  0  0  0  0  0  0  0
    2.3807   -1.7272    2.7064 C   0  0  0  0  0  0  0  0  0  0  0  0
    3.2614   -1.7955    2.0655 H   0  0  0  0  0  0  0  0  0  0  0  0
    2.6564   -1.2691    3.6573 H   0  0  0  0  0  0  0  0  0  0  0  0
    2.0001   -2.7344    2.8868 H   0  0  0  0  0  0  0  0  0  0  0  0
  5  6  2  0  0  0  0
  5  7  1  0  0  0  0
  2  3  1  0  0  0  0
  2  4  1  0  0  0  0
  2  5  1  0  0  0  0
  1  2  1  0  0  0  0
 20 21  2  0  0  0  0
 20 22  1  0  0  0  0
 17 18  1  0  0  0  0
 17 19  2  0  0  0  0
 14 15  1  0  0  0  0
 14 16  1  0  0  0  0
 14 17  1  0  0  0  0
 11 12  1  0  0  0  0
 11 13  1  0  0  0  0
 11 14  1  0  0  0  0
  9 10  1  0  0  0  0
  9 11  1  0  0  0  0
  9 20  1  0  0  0  0
  7  8  1  0  0  0  0
  7  9  1  0  0  0  0
 24 25  1  0  0  0  0
 24 26  1  0  0  0  0
 24 27  1  0  0  0  0
 22 23  1  0  0  0  0
 22 24  1  0  0  0  0
M  CHG  1  18  -1
M  END
$$$$
default_name
  -OEChem-01062215323D

 27 26  0     1  0  0  0  0  0999 V2000
   -3.2406   -3.5400    1.2326 H   0  0  0  0  0  0  0  0  0  0  0  0
   -3.1436   -2.6190    0.6606 C   0  0  0  0  0  0  0  0  0  0  0  0
   -3.8786   -1.8920    0.9996 H   0  0  0  0  0  0  0  0  0  0  0  0
   -3.2846   -2.8280   -0.3984 H   0  0  0  0  0  0  0  0  0  0  0  0
   -1.7586   -2.0580    0.8686 C   0  0  0  0  0  0  0  0  0  0  0  0
   -0.9666   -2.6340    1.6026 O   0  0  0  0  0  0  0  0  0  0  0  0
   -1.4866   -0.9220    0.2366 N   0  0  0  0  0  0  0  0  0  0  0  0
   -2.2166   -0.4790   -0.2994 H   0  0  0  0  0  0  0  0  0  0  0  0
   -0.1956   -0.2250    0.2596 C   0  0  1  0  0  0  0  0  0  0  0  0
    0.0735    0.0499   -0.7606 H   0  0  0  0  0  0  0  0  0  0  0  0
   -0.3397    1.0790    1.0698 C   0  0  0  0  0  0  0  0  0  0  0  0
   -0.7616    0.8250    2.0435 H   0  0  0  0  0  0  0  0  0  0  0  0
    0.6473    1.5171    1.2256 H   0  0  0  0  0  0  0  0  0  0  0  0
   -1.2530    2.1188    0.3989 C   0  0  0  0  0  0  0  0  0  0  0  0
   -0.8428    2.3755   -0.5807 H   0  0  0  0  0  0  0  0  0  0  0  0
   -2.2350    1.6638    0.2444 H   0  0  0  0  0  0  0  0  0  0  0  0
   -1.4153    3.4076    1.2184 C   0  0  0  0  0  0  0  0  0  0  0  0
   -0.9268    3.4447    2.3701 O   0  5  0  0  0  0  0  0  0  0  0  0
   -2.0125    4.3553    0.6611 O   0  0  0  0  0  0  0  0  0  0  0  0
    0.9159   -1.1505    0.7970 C   0  0  0  0  0  0  0  0  0  0  0  0
    1.5815   -1.8456    0.0266 O   0  0  0  0  0  0  0  0  0  0  0  0
    1.1372   -1.1445    2.1180 N   0  0  0  0  0  0  0  0  0  0  0  0
    0.5175   -0.5915    2.6913 H   0  0  0  0  0  0  0  0  0  0  0  0
    2.1371   -1.9737    2.7857 C   0  0  0  0  0  0  0  0  0  0  0  0
    3.1045   -1.8501    2.2960 H   0  0  0  0  0  0  0  0  0  0  0  0
    2.2208   -1.6889    3.8355 H   0  0  0  0  0  0  0  0  0  0  0  0
    1.8418   -3.0226    2.7178 H   0  0  0  0  0  0  0  0  0  0  0  0
  5  6  2  0  0  0  0
  5  7  1  0  0  0  0
  2  3  1  0  0  0  0
  2  4  1  0  0  0  0
  2  5  1  0  0  0  0
  1  2  1  0  0  0  0
 20 21  2  0  0  0  0
 20 22  1  0  0  0  0
 17 18  1  0  0  0  0
 17 19  2  0  0  0  0
 14 15  1  0  0  0  0
 14 16  1  0  0  0  0
 14 17  1  0  0  0  0
 11 12  1  0  0  0  0
 11 13  1  0  0  0  0
 11 14  1  0  0  0  0
  9 10  1  0  0  0  0
  9 11  1  0  0  0  0
  9 20  1  0  0  0  0
  7  8  1  0  0  0  0
  7  9  1  0  0  0  0
 24 25  1  0  0  0  0
 24 26  1  0  0  0  0
 24 27  1  0  0  0  0
 22 23  1  0  0  0  0
 22 24  1  0  0  0  0
M  CHG  1  18  -1
M  END
$$$$
default_name
  -OEChem-01062215323D

 27 26  0     1  0  0  0  0  0999 V2000
   -3.2406   -3.5400    1.2326 H   0  0  0  0  0  0  0  0  0  0  0  0
   -3.1436   -2.6190    0.6606 C   0  0  0  0  0  0  0  0  0  0  0  0
   -3.8786   -1.8920    0.9996 H   0  0  0  0  0  0  0  0  0  0  0  0
   -3.2846   -2.8280   -0.3984 H   0  0  0  0  0  0  0  0  0  0  0  0
   -1.7586   -2.0580    0.8686 C   0  0  0  0  0  0  0  0  0  0  0  0
   -0.9666   -2.6340    1.6026 O   0  0  0  0  0  0  0  0  0  0  0  0
   -1.4866   -0.9220    0.2366 N   0  0  0  0  0  0  0  0  0  0  0  0
   -2.2166   -0.4790   -0.2994 H   0  0  0  0  0  0  0  0  0  0  0  0
   -0.1956   -0.2250    0.2596 C   0  0  1  0  0  0  0  0  0  0  0  0
    0.0735    0.0499   -0.7606 H   0  0  0  0  0  0  0  0  0  0  0  0
   -0.3397    1.0790    1.0698 C   0  0  0  0  0  0  0  0  0  0  0  0
   -0.7616    0.8250    2.0435 H   0  0  0  0  0  0  0  0  0  0  0  0
    0.6473    1.5171    1.2256 H   0  0  0  0  0  0  0  0  0  0  0  0
   -1.2530    2.1188    0.3989 C   0  0  0  0  0  0  0  0  0  0  0  0
   -0.8428    2.3755   -0.5807 H   0  0  0  0  0  0  0  0  0  0  0  0
   -2.2350    1.6638    0.2444 H   0  0  0  0  0  0  0  0  0  0  0  0
   -1.4153    3.4076    1.2184 C   0  0  0  0  0  0  0  0  0  0  0  0
   -0.9268    3.4447    2.3701 O   0  5  0  0  0  0  0  0  0  0  0  0
   -2.0125    4.3553    0.6611 O   0  0  0  0  0  0  0  0  0  0  0  0
    0.9159   -1.1505    0.7970 C   0  0  0  0  0  0  0  0  0  0  0  0
    1.7565   -1.6311    0.0340 O   0  0  0  0  0  0  0  0  0  0  0  0
    0.9391   -1.3836    2.1157 N   0  0  0  0  0  0  0  0  0  0  0  0
    0.1875   -1.0004    2.6696 H   0  0  0  0  0  0  0  0  0  0  0  0
    1.9117   -2.2486    2.7786 C   0  0  0  0  0  0  0  0  0  0  0  0
    2.9221   -1.9599    2.4841 H   0  0  0  0  0  0  0  0  0  0  0  0
    1.8101   -2.1669    3.8617 H   0  0  0  0  0  0  0  0  0  0  0  0
    1.7412   -3.2837    2.4762 H   0  0  0  0  0  0  0  0  0  0  0  0
  5  6  2  0  0  0  0
  5  7  1  0  0  0  0
  2  3  1  0  0  0  0
  2  4  1  0  0  0  0
  2  5  1  0  0  0  0
  1  2  1  0  0  0  0
 20 21  2  0  0  0  0
 20 22  1  0  0  0  0
 17 18  1  0  0  0  0
 17 19  2  0  0  0  0
 14 15  1  0  0  0  0
 14 16  1  0  0  0  0
 14 17  1  0  0  0  0
 11 12  1  0  0  0  0
 11 13  1  0  0  0  0
 11 14  1  0  0  0  0
  9 10  1  0  0  0  0
  9 11  1  0  0  0  0
  9 20  1  0  0  0  0
  7  8  1  0  0  0  0
  7  9  1  0  0  0  0
 24 25  1  0  0  0  0
 24 26  1  0  0  0  0
 24 27  1  0  0  0  0
 22 23  1  0  0  0  0
 22 24  1  0  0  0  0
M  CHG  1  18  -1
M  END
$$$$
default_name
  -OEChem-01062215323D

 27 26  0     1  0  0  0  0  0999 V2000
   -3.2406   -3.5400    1.2326 H   0  0  0  0  0  0  0  0  0  0  0  0
   -3.1436   -2.6190    0.6606 C   0  0  0  0  0  0  0  0  0  0  0  0
   -3.8786   -1.8920    0.9996 H   0  0  0  0  0  0  0  0  0  0  0  0
   -3.2846   -2.8280   -0.3984 H   0  0  0  0  0  0  0  0  0  0  0  0
   -1.7586   -2.0580    0.8686 C   0  0  0  0  0  0  0  0  0  0  0  0
   -0.9666   -2.6340    1.6026 O   0  0  0  0  0  0  0  0  0  0  0  0
   -1.4866   -0.9220    0.2366 N   0  0  0  0  0  0  0  0  0  0  0  0
   -2.2166   -0.4790   -0.2994 H   0  0  0  0  0  0  0  0  0  0  0  0
   -0.1956   -0.2250    0.2596 C   0  0  1  0  0  0  0  0  0  0  0  0
    0.0735    0.0499   -0.7606 H   0  0  0  0  0  0  0  0  0  0  0  0
   -0.3397    1.0790    1.0698 C   0  0  0  0  0  0  0  0  0  0  0  0
   -0.7616    0.8250    2.0435 H   0  0  0  0  0  0  0  0  0  0  0  0
    0.6473    1.5171    1.2256 H   0  0  0  0  0  0  0  0  0  0  0  0
   -1.2530    2.1188    0.3989 C   0  0  0  0  0  0  0  0  0  0  0  0
   -0.8428    2.3755   -0.5807 H   0  0  0  0  0  0  0  0  0  0  0  0
   -2.2350    1.6638    0.2444 H   0  0  0  0  0  0  0  0  0  0  0  0
   -1.4153    3.4076    1.2184 C   0  0  0  0  0  0  0  0  0  0  0  0
   -0.9268    3.4447    2.3701 O   0  5  0  0  0  0  0  0  0  0  0  0
   -2.0125    4.3553    0.6611 O   0  0  0  0  0  0  0  0  0  0  0  0
    0.9159   -1.1505    0.7970 C   0  0  0  0  0  0  0  0  0  0  0  0
    1.9050   -1.4095    0.1083 O   0  0  0  0  0  0  0  0  0  0  0  0
    0.7698   -1.6320    2.0383 N   0  0  0  0  0  0  0  0  0  0  0  0
   -0.0910   -1.4211    2.5211 H   0  0  0  0  0  0  0  0  0  0  0  0
    1.7199   -2.5331    2.6854 C   0  0  0  0  0  0  0  0  0  0  0  0
    2.7266   -2.1175    2.6170 H   0  0  0  0  0  0  0  0  0  0  0  0
    1.4525   -2.6705    3.7341 H   0  0  0  0  0  0  0  0  0  0  0  0
    1.7050   -3.4999    2.1786 H   0  0  0  0  0  0  0  0  0  0  0  0
  5  6  2  0  0  0  0
  5  7  1  0  0  0  0
  2  3  1  0  0  0  0
  2  4  1  0  0  0  0
  2  5  1  0  0  0  0
  1  2  1  0  0  0  0
 20 21  2  0  0  0  0
 20 22  1  0  0  0  0
 17 18  1  0  0  0  0
 17 19  2  0  0  0  0
 14 15  1  0  0  0  0
 14 16  1  0  0  0  0
 14 17  1  0  0  0  0
 11 12  1  0  0  0  0
 11 13  1  0  0  0  0
 11 14  1  0  0  0  0
  9 10  1  0  0  0  0
  9 11  1  0  0  0  0
  9 20  1  0  0  0  0
  7  8  1  0  0  0  0
  7  9  1  0  0  0  0
 24 25  1  0  0  0  0
 24 26  1  0  0  0  0
 24 27  1  0  0  0  0
 22 23  1  0  0  0  0
 22 24  1  0  0  0  0
M  CHG  1  18  -1
M  END
$$$$
default_name
  -OEChem-01062215323D

 27 26  0     1  0  0  0  0  0999 V2000
   -3.2406   -3.5400    1.2326 H   0  0  0  0  0  0  0  0  0  0  0  0
   -3.1436   -2.6190    0.6606 C   0  0  0  0  0  0  0  0  0  0  0  0
   -3.8786   -1.8920    0.9996 H   0  0  0  0  0  0  0  0  0  0  0  0
   -3.2846   -2.8280   -0.3984 H   0  0  0  0  0  0  0  0  0  0  0  0
   -1.7586   -2.0580    0.8686 C   0  0  0  0  0  0  0  0  0  0  0  0
   -0.9666   -2.6340    1.6026 O   0  0  0  0  0  0  0  0  0  0  0  0
   -1.4866   -0.9220    0.2366 N   0  0  0  0  0  0  0  0  0  0  0  0
   -2.2166   -0.4790   -0.2994 H   0  0  0  0  0  0  0  0  0  0  0  0
   -0.1956   -0.2250    0.2596 C   0  0  1  0  0  0  0  0  0  0  0  0
    0.0735    0.0499   -0.7606 H   0  0  0  0  0  0  0  0  0  0  0  0
   -0.3397    1.0790    1.0698 C   0  0  0  0  0  0  0  0  0  0  0  0
   -0.7616    0.8250    2.0435 H   0  0  0  0  0  0  0  0  0  0  0  0
    0.6473    1.5171    1.2256 H   0  0  0  0  0  0  0  0  0  0  0  0
   -1.2530    2.1188    0.3989 C   0  0  0  0  0  0  0  0  0  0  0  0
   -0.8428    2.3755   -0.5807 H   0  0  0  0  0  0  0  0  0  0  0  0
   -2.2350    1.6638    0.2444 H   0  0  0  0  0  0  0  0  0  0  0  0
   -1.4153    3.4076    1.2184 C   0  0  0  0  0  0  0  0  0  0  0  0
   -0.9268    3.4447    2.3701 O   0  5  0  0  0  0  0  0  0  0  0  0
   -2.0125    4.3553    0.6611 O   0  0  0  0  0  0  0  0  0  0  0  0
    0.9159   -1.1505    0.7970 C   0  0  0  0  0  0  0  0  0  0  0  0
    2.0170   -1.1960    0.2445 O   0  0  0  0  0  0  0  0  0  0  0  0
    0.6406   -1.8728    1.8908 N   0  0  0  0  0  0  0  0  0  0  0  0
   -0.2990   -1.8249    2.2560 H   0  0  0  0  0  0  0  0  0  0  0  0
    1.5747   -2.8078    2.5126 C   0  0  0  0  0  0  0  0  0  0  0  0
    2.5314   -2.3122    2.6857 H   0  0  0  0  0  0  0  0  0  0  0  0
    1.1722   -3.1654    3.4614 H   0  0  0  0  0  0  0  0  0  0  0  0
    1.7358   -3.6566    1.8451 H   0  0  0  0  0  0  0  0  0  0  0  0
  5  6  2  0  0  0  0
  5  7  1  0  0  0  0
  2  3  1  0  0  0  0
  2  4  1  0  0  0  0
  2  5  1  0  0  0  0
  1  2  1  0  0  0  0
 20 21  2  0  0  0  0
 20 22  1  0  0  0  0
 17 18  1  0  0  0  0
 17 19  2  0  0  0  0
 14 15  1  0  0  0  0
 14 16  1  0  0  0  0
 14 17  1  0  0  0  0
 11 12  1  0  0  0  0
 11 13  1  0  0  0  0
 11 14  1  0  0  0  0
  9 10  1  0  0  0  0
  9 11  1  0  0  0  0
  9 20  1  0  0  0  0
  7  8  1  0  0  0  0
  7  9  1  0  0  0  0
 24 25  1  0  0  0  0
 24 26  1  0  0  0  0
 24 27  1  0  0  0  0
 22 23  1  0  0  0  0
 22 24  1  0  0  0  0
M  CHG  1  18  -1
M  END
$$$$
default_name
  -OEChem-01062215323D

 27 26  0     1  0  0  0  0  0999 V2000
   -3.2406   -3.5400    1.2326 H   0  0  0  0  0  0  0  0  0  0  0  0
   -3.1436   -2.6190    0.6606 C   0  0  0  0  0  0  0  0  0  0  0  0
   -3.8786   -1.8920    0.9996 H   0  0  0  0  0  0  0  0  0  0  0  0
   -3.2846   -2.8280   -0.3984 H   0  0  0  0  0  0  0  0  0  0  0  0
   -1.7586   -2.0580    0.8686 C   0  0  0  0  0  0  0  0  0  0  0  0
   -0.9666   -2.6340    1.6026 O   0  0  0  0  0  0  0  0  0  0  0  0
   -1.4866   -0.9220    0.2366 N   0  0  0  0  0  0  0  0  0  0  0  0
   -2.2166   -0.4790   -0.2994 H   0  0  0  0  0  0  0  0  0  0  0  0
   -0.1956   -0.2250    0.2596 C   0  0  1  0  0  0  0  0  0  0  0  0
    0.0735    0.0499   -0.7606 H   0  0  0  0  0  0  0  0  0  0  0  0
   -0.3397    1.0790    1.0698 C   0  0  0  0  0  0  0  0  0  0  0  0
   -0.7616    0.8250    2.0435 H   0  0  0  0  0  0  0  0  0  0  0  0
    0.6473    1.5171    1.2256 H   0  0  0  0  0  0  0  0  0  0  0  0
   -1.2530    2.1188    0.3989 C   0  0  0  0  0  0  0  0  0  0  0  0
   -0.8428    2.3755   -0.5807 H   0  0  0  0  0  0  0  0  0  0  0  0
   -2.2350    1.6638    0.2444 H   0  0  0  0  0  0  0  0  0  0  0  0
   -1.4153    3.4076    1.2184 C   0  0  0  0  0  0  0  0  0  0  0  0
   -0.9268    3.4447    2.3701 O   0  5  0  0  0  0  0  0  0  0  0  0
   -2.0125    4.3553    0.6611 O   0  0  0  0  0  0  0  0  0  0  0  0
    0.9159   -1.1505    0.7970 C   0  0  0  0  0  0  0  0  0  0  0  0
    2.0848   -1.0050    0.4332 O   0  0  0  0  0  0  0  0  0  0  0  0
    0.5604   -2.0895    1.6834 N   0  0  0  0  0  0  0  0  0  0  0  0
   -0.4224   -2.1842    1.8924 H   0  0  0  0  0  0  0  0  0  0  0  0
    1.4860   -3.0541    2.2719 C   0  0  0  0  0  0  0  0  0  0  0  0
    2.3497   -2.5306    2.6854 H   0  0  0  0  0  0  0  0  0  0  0  0
    0.9885   -3.6178    3.0623 H   0  0  0  0  0  0  0  0  0  0  0  0
    1.8314   -3.7430    1.4986 H   0  0  0  0  0  0  0  0  0  0  0  0
  5  6  2  0  0  0  0
  5  7  1  0  0  0  0
  2  3  1  0  0  0  0
  2  4  1  0  0  0  0
  2  5  1  0  0  0  0
  1  2  1  0  0  0  0
 20 21  2  0  0  0  0
 20 22  1  0  0  0  0
 17 18  1  0  0  0  0
 17 19  2  0  0  0  0
 14 15  1  0  0  0  0
 14 16  1  0  0  0  0
 14 17  1  0  0  0  0
 11 12  1  0  0  0  0
 11 13  1  0  0  0  0
 11 14  1  0  0  0  0
  9 10  1  0  0  0  0
  9 11  1  0  0  0  0
  9 20  1  0  0  0  0
  7  8  1  0  0  0  0
  7  9  1  0  0  0  0
 24 25  1  0  0  0  0
 24 26  1  0  0  0  0
 24 27  1  0  0  0  0
 22 23  1  0  0  0  0
 22 24  1  0  0  0  0
M  CHG  1  18  -1
M  END
$$$$
default_name
  -OEChem-01062215323D

 27 26  0     1  0  0  0  0  0999 V2000
   -3.2406   -3.5400    1.2326 H   0  0  0  0  0  0  0  0  0  0  0  0
   -3.1436   -2.6190    0.6606 C   0  0  0  0  0  0  0  0  0  0  0  0
   -3.8786   -1.8920    0.9996 H   0  0  0  0  0  0  0  0  0  0  0  0
   -3.2846   -2.8280   -0.3984 H   0  0  0  0  0  0  0  0  0  0  0  0
   -1.7586   -2.0580    0.8686 C   0  0  0  0  0  0  0  0  0  0  0  0
   -0.9666   -2.6340    1.6026 O   0  0  0  0  0  0  0  0  0  0  0  0
   -1.4866   -0.9220    0.2366 N   0  0  0  0  0  0  0  0  0  0  0  0
   -2.2166   -0.4790   -0.2994 H   0  0  0  0  0  0  0  0  0  0  0  0
   -0.1956   -0.2250    0.2596 C   0  0  1  0  0  0  0  0  0  0  0  0
    0.0735    0.0499   -0.7606 H   0  0  0  0  0  0  0  0  0  0  0  0
   -0.3397    1.0790    1.0698 C   0  0  0  0  0  0  0  0  0  0  0  0
   -0.7616    0.8250    2.0435 H   0  0  0  0  0  0  0  0  0  0  0  0
    0.6473    1.5171    1.2256 H   0  0  0  0  0  0  0  0  0  0  0  0
   -1.2530    2.1188    0.3989 C   0  0  0  0  0  0  0  0  0  0  0  0
   -0.8428    2.3755   -0.5807 H   0  0  0  0  0  0  0  0  0  0  0  0
   -2.2350    1.6638    0.2444 H   0  0  0  0  0  0  0  0  0  0  0  0
   -1.4153    3.4076    1.2184 C   0  0  0  0  0  0  0  0  0  0  0  0
   -0.9268    3.4447    2.3701 O   0  5  0  0  0  0  0  0  0  0  0  0
   -2.0125    4.3553    0.6611 O   0  0  0  0  0  0  0  0  0  0  0  0
    0.9159   -1.1505    0.7970 C   0  0  0  0  0  0  0  0  0  0  0  0
    2.1037   -0.8496    0.6616 O   0  0  0  0  0  0  0  0  0  0  0  0
    0.5346   -2.2674    1.4302 N   0  0  0  0  0  0  0  0  0  0  0  0
   -0.4527   -2.4746    1.4550 H   0  0  0  0  0  0  0  0  0  0  0  0
    1.4599   -3.2550    1.9797 C   0  0  0  0  0  0  0  0  0  0  0  0
    2.1939   -2.7579    2.6162 H   0  0  0  0  0  0  0  0  0  0  0  0
    0.9137   -3.9970    2.5639 H   0  0  0  0  0  0  0  0  0  0  0  0
    1.9854   -3.7532    1.1626 H   0  0  0  0  0  0  0  0  0  0  0  0
  5  6  2  0  0  0  0
  5  7  1  0  0  0  0
  2  3  1  0  0  0  0
  2  4  1  0  0  0  0
  2  5  1  0  0  0  0
  1  2  1  0  0  0  0
 20 21  2  0  0  0  0
 20 22  1  0  0  0  0
 17 18  1  0  0  0  0
 17 19  2  0  0  0  0
 14 15  1  0  0  0  0
 14 16  1  0  0  0  0
 14 17  1  0  0  0  0
 11 12  1  0  0  0  0
 11 13  1  0  0  0  0
 11 14  1  0  0  0  0
  9 10  1  0  0  0  0
  9 11  1  0  0  0  0
  9 20  1  0  0  0  0
  7  8  1  0  0  0  0
  7  9  1  0  0  0  0
 24 25  1  0  0  0  0
 24 26  1  0  0  0  0
 24 27  1  0  0  0  0
 22 23  1  0  0  0  0
 22 24  1  0  0  0  0
M  CHG  1  18  -1
M  END
$$$$
default_name
  -OEChem-01062215323D

 27 26  0     1  0  0  0  0  0999 V2000
   -3.2406   -3.5400    1.2326 H   0  0  0  0  0  0  0  0  0  0  0  0
   -3.1436   -2.6190    0.6606 C   0  0  0  0  0  0  0  0  0  0  0  0
   -3.8786   -1.8920    0.9996 H   0  0  0  0  0  0  0  0  0  0  0  0
   -3.2846   -2.8280   -0.3984 H   0  0  0  0  0  0  0  0  0  0  0  0
   -1.7586   -2.0580    0.8686 C   0  0  0  0  0  0  0  0  0  0  0  0
   -0.9666   -2.6340    1.6026 O   0  0  0  0  0  0  0  0  0  0  0  0
   -1.4866   -0.9220    0.2366 N   0  0  0  0  0  0  0  0  0  0  0  0
   -2.2166   -0.4790   -0.2994 H   0  0  0  0  0  0  0  0  0  0  0  0
   -0.1956   -0.2250    0.2596 C   0  0  1  0  0  0  0  0  0  0  0  0
    0.0735    0.0499   -0.7606 H   0  0  0  0  0  0  0  0  0  0  0  0
   -0.3397    1.0790    1.0698 C   0  0  0  0  0  0  0  0  0  0  0  0
   -0.7616    0.8250    2.0435 H   0  0  0  0  0  0  0  0  0  0  0  0
    0.6473    1.5171    1.2256 H   0  0  0  0  0  0  0  0  0  0  0  0
   -1.2530    2.1188    0.3989 C   0  0  0  0  0  0  0  0  0  0  0  0
   -0.8428    2.3755   -0.5807 H   0  0  0  0  0  0  0  0  0  0  0  0
   -2.2350    1.6638    0.2444 H   0  0  0  0  0  0  0  0  0  0  0  0
   -1.4153    3.4076    1.2184 C   0  0  0  0  0  0  0  0  0  0  0  0
   -0.9268    3.4447    2.3701 O   0  5  0  0  0  0  0  0  0  0  0  0
   -2.0125    4.3553    0.6611 O   0  0  0  0  0  0  0  0  0  0  0  0
    0.9159   -1.1505    0.7970 C   0  0  0  0  0  0  0  0  0  0  0  0
    2.0725   -0.7404    0.9142 O   0  0  0  0  0  0  0  0  0  0  0  0
    0.5651   -2.3944    1.1485 N   0  0  0  0  0  0  0  0  0  0  0  0
   -0.3880   -2.6763    0.9737 H   0  0  0  0  0  0  0  0  0  0  0  0
    1.4982   -3.3970    1.6560 C   0  0  0  0  0  0  0  0  0  0  0  0
    2.0746   -2.9786    2.4828 H   0  0  0  0  0  0  0  0  0  0  0  0
    0.9531   -4.2771    2.0002 H   0  0  0  0  0  0  0  0  0  0  0  0
    2.1871   -3.6865    0.8601 H   0  0  0  0  0  0  0  0  0  0  0  0
  5  6  2  0  0  0  0
  5  7  1  0  0  0  0
  2  3  1  0  0  0  0
  2  4  1  0  0  0  0
  2  5  1  0  0  0  0
  1  2  1  0  0  0  0
 20 21  2  0  0  0  0
 20 22  1  0  0  0  0
 17 18  1  0  0  0  0
 17 19  2  0  0  0  0
 14 15  1  0  0  0  0
 14 16  1  0  0  0  0
 14 17  1  0  0  0  0
 11 12  1  0  0  0  0
 11 13  1  0  0  0  0
 11 14  1  0  0  0  0
  9 10  1  0  0  0  0
  9 11  1  0  0  0  0
  9 20  1  0  0  0  0
  7  8  1  0  0  0  0
  7  9  1  0  0  0  0
 24 25  1  0  0  0  0
 24 26  1  0  0  0  0
 24 27  1  0  0  0  0
 22 23  1  0  0  0  0
 22 24  1  0  0  0  0
M  CHG  1  18  -1
M  END
$$$$
default_name
  -OEChem-01062215323D

 27 26  0     1  0  0  0  0  0999 V2000
   -3.2406   -3.5400    1.2326 H   0  0  0  0  0  0  0  0  0  0  0  0
   -3.1436   -2.6190    0.6606 C   0  0  0  0  0  0  0  0  0  0  0  0
   -3.8786   -1.8920    0.9996 H   0  0  0  0  0  0  0  0  0  0  0  0
   -3.2846   -2.8280   -0.3984 H   0  0  0  0  0  0  0  0  0  0  0  0
   -1.7586   -2.0580    0.8686 C   0  0  0  0  0  0  0  0  0  0  0  0
   -0.9666   -2.6340    1.6026 O   0  0  0  0  0  0  0  0  0  0  0  0
   -1.4866   -0.9220    0.2366 N   0  0  0  0  0  0  0  0  0  0  0  0
   -2.2166   -0.4790   -0.2994 H   0  0  0  0  0  0  0  0  0  0  0  0
   -0.1956   -0.2250    0.2596 C   0  0  1  0  0  0  0  0  0  0  0  0
    0.0735    0.0499   -0.7606 H   0  0  0  0  0  0  0  0  0  0  0  0
   -0.3397    1.0790    1.0698 C   0  0  0  0  0  0  0  0  0  0  0  0
   -0.7616    0.8250    2.0435 H   0  0  0  0  0  0  0  0  0  0  0  0
    0.6473    1.5171    1.2256 H   0  0  0  0  0  0  0  0  0  0  0  0
   -1.2530    2.1188    0.3989 C   0  0  0  0  0  0  0  0  0  0  0  0
   -0.8428    2.3755   -0.5807 H   0  0  0  0  0  0  0  0  0  0  0  0
   -2.2350    1.6638    0.2444 H   0  0  0  0  0  0  0  0  0  0  0  0
   -1.4153    3.4076    1.2184 C   0  0  0  0  0  0  0  0  0  0  0  0
   -0.9268    3.4447    2.3701 O   0  5  0  0  0  0  0  0  0  0  0  0
   -2.0125    4.3553    0.6611 O   0  0  0  0  0  0  0  0  0  0  0  0
    0.9159   -1.1505    0.7970 C   0  0  0  0  0  0  0  0  0  0  0  0
    1.9934   -0.6848    1.1736 O   0  0  0  0  0  0  0  0  0  0  0  0
    0.6498   -2.4618    0.8575 N   0  0  0  0  0  0  0  0  0  0  0  0
   -0.2325   -2.7756    0.4812 H   0  0  0  0  0  0  0  0  0  0  0  0
    1.5982   -3.4704    1.3228 C   0  0  0  0  0  0  0  0  0  0  0  0
    2.0001   -3.1776    2.2943 H   0  0  0  0  0  0  0  0  0  0  0  0
    1.1038   -4.4390    1.4096 H   0  0  0  0  0  0  0  0  0  0  0  0
    2.4230   -3.5475    0.6116 H   0  0  0  0  0  0  0  0  0  0  0  0
  5  6  2  0  0  0  0
  5  7  1  0  0  0  0
  2  3  1  0  0  0  0
  2  4  1  0  0  0  0
  2  5  1  0  0  0  0
  1  2  1  0  0  0  0
 20 21  2  0  0  0  0
 20 22  1  0  0  0  0
 17 18  1  0  0  0  0
 17 19  2  0  0  0  0
 14 15  1  0  0  0  0
 14 16  1  0  0  0  0
 14 17  1  0  0  0  0
 11 12  1  0  0  0  0
 11 13  1  0  0  0  0
 11 14  1  0  0  0  0
  9 10  1  0  0  0  0
  9 11  1  0  0  0  0
  9 20  1  0  0  0  0
  7  8  1  0  0  0  0
  7  9  1  0  0  0  0
 24 25  1  0  0  0  0
 24 26  1  0  0  0  0
 24 27  1  0  0  0  0
 22 23  1  0  0  0  0
 22 24  1  0  0  0  0
M  CHG  1  18  -1
M  END
$$$$
default_name
  -OEChem-01062215323D

 27 26  0     1  0  0  0  0  0999 V2000
   -3.2406   -3.5400    1.2326 H   0  0  0  0  0  0  0  0  0  0  0  0
   -3.1436   -2.6190    0.6606 C   0  0  0  0  0  0  0  0  0  0  0  0
   -3.8786   -1.8920    0.9996 H   0  0  0  0  0  0  0  0  0  0  0  0
   -3.2846   -2.8280   -0.3984 H   0  0  0  0  0  0  0  0  0  0  0  0
   -1.7586   -2.0580    0.8686 C   0  0  0  0  0  0  0  0  0  0  0  0
   -0.9666   -2.6340    1.6026 O   0  0  0  0  0  0  0  0  0  0  0  0
   -1.4866   -0.9220    0.2366 N   0  0  0  0  0  0  0  0  0  0  0  0
   -2.2166   -0.4790   -0.2994 H   0  0  0  0  0  0  0  0  0  0  0  0
   -0.1956   -0.2250    0.2596 C   0  0  1  0  0  0  0  0  0  0  0  0
    0.0735    0.0499   -0.7606 H   0  0  0  0  0  0  0  0  0  0  0  0
   -0.3397    1.0790    1.0698 C   0  0  0  0  0  0  0  0  0  0  0  0
   -0.7616    0.8250    2.0435 H   0  0  0  0  0  0  0  0  0  0  0  0
    0.6473    1.5171    1.2256 H   0  0  0  0  0  0  0  0  0  0  0  0
   -1.2530    2.1188    0.3989 C   0  0  0  0  0  0  0  0  0  0  0  0
   -0.8428    2.3755   -0.5807 H   0  0  0  0  0  0  0  0  0  0  0  0
   -2.2350    1.6638    0.2444 H   0  0  0  0  0  0  0  0  0  0  0  0
   -1.4153    3.4076    1.2184 C   0  0  0  0  0  0  0  0  0  0  0  0
   -0.9268    3.4447    2.3701 O   0  5  0  0  0  0  0  0  0  0  0  0
   -2.0125    4.3553    0.6611 O   0  0  0  0  0  0  0  0  0  0  0  0
    0.9159   -1.1505    0.7970 C   0  0  0  0  0  0  0  0  0  0  0  0
    1.8716   -0.6866    1.4224 O   0  0  0  0  0  0  0  0  0  0  0  0
    0.7828   -2.4649    0.5769 N   0  0  0  0  0  0  0  0  0  0  0  0
    0.0030   -2.7656    0.0111 H   0  0  0  0  0  0  0  0  0  0  0  0
    1.7532   -3.4701    1.0028 C   0  0  0  0  0  0  0  0  0  0  0  0
    1.9752   -3.3414    2.0635 H   0  0  0  0  0  0  0  0  0  0  0  0
    1.3557   -4.4716    0.8323 H   0  0  0  0  0  0  0  0  0  0  0  0
    2.6768   -3.3457    0.4342 H   0  0  0  0  0  0  0  0  0  0  0  0
  5  6  2  0  0  0  0
  5  7  1  0  0  0  0
  2  3  1  0  0  0  0
  2  4  1  0  0  0  0
  2  5  1  0  0  0  0
  1  2  1  0  0  0  0
 20 21  2  0  0  0  0
 20 22  1  0  0  0  0
 17 18  1  0  0  0  0
 17 19  2  0  0  0  0
 14 15  1  0  0  0  0
 14 16  1  0  0  0  0
 14 17  1  0  0  0  0
 11 12  1  0  0  0  0
 11 13  1  0  0  0  0
 11 14  1  0  0  0  0
  9 10  1  0  0  0  0
  9 11  1  0  0  0  0
  9 20  1  0  0  0  0
  7  8  1  0  0  0  0
  7  9  1  0  0  0  0
 24 25  1  0  0  0  0
 24 26  1  0  0  0  0
 24 27  1  0  0  0  0
 22 23  1  0  0  0  0
 22 24  1  0  0  0  0
M  CHG  1  18  -1
M  END
$$$$
default_name
  -OEChem-01062215323D

 27 26  0     1  0  0  0  0  0999 V2000
   -3.2406   -3.5400    1.2326 H   0  0  0  0  0  0  0  0  0  0  0  0
   -3.1436   -2.6190    0.6606 C   0  0  0  0  0  0  0  0  0  0  0  0
   -3.8786   -1.8920    0.9996 H   0  0  0  0  0  0  0  0  0  0  0  0
   -3.2846   -2.8280   -0.3984 H   0  0  0  0  0  0  0  0  0  0  0  0
   -1.7586   -2.0580    0.8686 C   0  0  0  0  0  0  0  0  0  0  0  0
   -0.9666   -2.6340    1.6026 O   0  0  0  0  0  0  0  0  0  0  0  0
   -1.4866   -0.9220    0.2366 N   0  0  0  0  0  0  0  0  0  0  0  0
   -2.2166   -0.4790   -0.2994 H   0  0  0  0  0  0  0  0  0  0  0  0
   -0.1956   -0.2250    0.2596 C   0  0  1  0  0  0  0  0  0  0  0  0
    0.0735    0.0499   -0.7606 H   0  0  0  0  0  0  0  0  0  0  0  0
   -0.3397    1.0790    1.0698 C   0  0  0  0  0  0  0  0  0  0  0  0
   -0.7616    0.8250    2.0435 H   0  0  0  0  0  0  0  0  0  0  0  0
    0.6473    1.5171    1.2256 H   0  0  0  0  0  0  0  0  0  0  0  0
   -1.2530    2.1188    0.3989 C   0  0  0  0  0  0  0  0  0  0  0  0
   -0.8428    2.3755   -0.5807 H   0  0  0  0  0  0  0  0  0  0  0  0
   -2.2350    1.6638    0.2444 H   0  0  0  0  0  0  0  0  0  0  0  0
   -1.4153    3.4076    1.2184 C   0  0  0  0  0  0  0  0  0  0  0  0
   -0.9268    3.4447    2.3701 O   0  5  0  0  0  0  0  0  0  0  0  0
   -2.0125    4.3553    0.6611 O   0  0  0  0  0  0  0  0  0  0  0  0
    0.9159   -1.1505    0.7970 C   0  0  0  0  0  0  0  0  0  0  0  0
    1.7156   -0.7457    1.6434 O   0  0  0  0  0  0  0  0  0  0  0  0
    0.9551   -2.4037    0.3260 N   0  0  0  0  0  0  0  0  0  0  0  0
    0.3027   -2.6471   -0.4045 H   0  0  0  0  0  0  0  0  0  0  0  0
    1.9525   -3.3962    0.7178 C   0  0  0  0  0  0  0  0  0  0  0  0
    2.0018   -3.4589    1.8061 H   0  0  0  0  0  0  0  0  0  0  0  0
    1.6916   -4.3728    0.3077 H   0  0  0  0  0  0  0  0  0  0  0  0
    2.9314   -3.0948    0.3398 H   0  0  0  0  0  0  0  0  0  0  0  0
  5  6  2  0  0  0  0
  5  7  1  0  0  0  0
  2  3  1  0  0  0  0
  2  4  1  0  0  0  0
  2  5  1  0  0  0  0
  1  2  1  0  0  0  0
 20 21  2  0  0  0  0
 20 22  1  0  0  0  0
 17 18  1  0  0  0  0
 17 19  2  0  0  0  0
 14 15  1  0  0  0  0
 14 16  1  0  0  0  0
 14 17  1  0  0  0  0
 11 12  1  0  0  0  0
 11 13  1  0  0  0  0
 11 14  1  0  0  0  0
  9 10  1  0  0  0  0
  9 11  1  0  0  0  0
  9 20  1  0  0  0  0
  7  8  1  0  0  0  0
  7  9  1  0  0  0  0
 24 25  1  0  0  0  0
 24 26  1  0  0  0  0
 24 27  1  0  0  0  0
 22 23  1  0  0  0  0
 22 24  1  0  0  0  0
M  CHG  1  18  -1
M  END
$$$$
default_name
  -OEChem-01062215323D

 27 26  0     1  0  0  0  0  0999 V2000
   -3.2406   -3.5400    1.2326 H   0  0  0  0  0  0  0  0  0  0  0  0
   -3.1436   -2.6190    0.6606 C   0  0  0  0  0  0  0  0  0  0  0  0
   -3.8786   -1.8920    0.9996 H   0  0  0  0  0  0  0  0  0  0  0  0
   -3.2846   -2.8280   -0.3984 H   0  0  0  0  0  0  0  0  0  0  0  0
   -1.7586   -2.0580    0.8686 C   0  0  0  0  0  0  0  0  0  0  0  0
   -0.9666   -2.6340    1.6026 O   0  0  0  0  0  0  0  0  0  0  0  0
   -1.4866   -0.9220    0.2366 N   0  0  0  0  0  0  0  0  0  0  0  0
   -2.2166   -0.4790   -0.2994 H   0  0  0  0  0  0  0  0  0  0  0  0
   -0.1956   -0.2250    0.2596 C   0  0  1  0  0  0  0  0  0  0  0  0
    0.0735    0.0499   -0.7606 H   0  0  0  0  0  0  0  0  0  0  0  0
   -0.3397    1.0790    1.0698 C   0  0  0  0  0  0  0  0  0  0  0  0
   -0.7616    0.8250    2.0435 H   0  0  0  0  0  0  0  0  0  0  0  0
    0.6473    1.5171    1.2256 H   0  0  0  0  0  0  0  0  0  0  0  0
   -1.2530    2.1188    0.3989 C   0  0  0  0  0  0  0  0  0  0  0  0
   -0.8428    2.3755   -0.5807 H   0  0  0  0  0  0  0  0  0  0  0  0
   -2.2350    1.6638    0.2444 H   0  0  0  0  0  0  0  0  0  0  0  0
   -1.4153    3.4076    1.2184 C   0  0  0  0  0  0  0  0  0  0  0  0
   -0.9268    3.4447    2.3701 O   0  5  0  0  0  0  0  0  0  0  0  0
   -2.0125    4.3553    0.6611 O   0  0  0  0  0  0  0  0  0  0  0  0
    0.9159   -1.1505    0.7970 C   0  0  0  0  0  0  0  0  0  0  0  0
    1.5359   -0.8580    1.8216 O   0  0  0  0  0  0  0  0  0  0  0  0
    1.1549   -2.2822    0.1217 N   0  0  0  0  0  0  0  0  0  0  0  0
    0.6459   -2.4282   -0.7374 H   0  0  0  0  0  0  0  0  0  0  0  0
    2.1827   -3.2537    0.4872 C   0  0  0  0  0  0  0  0  0  0  0  0
    2.0781   -3.5220    1.5398 H   0  0  0  0  0  0  0  0  0  0  0  0
    2.0886   -4.1493   -0.1285 H   0  0  0  0  0  0  0  0  0  0  0  0
    3.1693   -2.8118    0.3349 H   0  0  0  0  0  0  0  0  0  0  0  0
  5  6  2  0  0  0  0
  5  7  1  0  0  0  0
  2  3  1  0  0  0  0
  2  4  1  0  0  0  0
  2  5  1  0  0  0  0
  1  2  1  0  0  0  0
 20 21  2  0  0  0  0
 20 22  1  0  0  0  0
 17 18  1  0  0  0  0
 17 19  2  0  0  0  0
 14 15  1  0  0  0  0
 14 16  1  0  0  0  0
 14 17  1  0  0  0  0
 11 12  1  0  0  0  0
 11 13  1  0  0  0  0
 11 14  1  0  0  0  0
  9 10  1  0  0  0  0
  9 11  1  0  0  0  0
  9 20  1  0  0  0  0
  7  8  1  0  0  0  0
  7  9  1  0  0  0  0
 24 25  1  0  0  0  0
 24 26  1  0  0  0  0
 24 27  1  0  0  0  0
 22 23  1  0  0  0  0
 22 24  1  0  0  0  0
M  CHG  1  18  -1
M  END
$$$$
default_name
  -OEChem-01062215323D

 27 26  0     1  0  0  0  0  0999 V2000
   -3.2406   -3.5400    1.2326 H   0  0  0  0  0  0  0  0  0  0  0  0
   -3.1436   -2.6190    0.6606 C   0  0  0  0  0  0  0  0  0  0  0  0
   -3.8786   -1.8920    0.9996 H   0  0  0  0  0  0  0  0  0  0  0  0
   -3.2846   -2.8280   -0.3984 H   0  0  0  0  0  0  0  0  0  0  0  0
   -1.7586   -2.0580    0.8686 C   0  0  0  0  0  0  0  0  0  0  0  0
   -0.9666   -2.6340    1.6026 O   0  0  0  0  0  0  0  0  0  0  0  0
   -1.4866   -0.9220    0.2366 N   0  0  0  0  0  0  0  0  0  0  0  0
   -2.2166   -0.4790   -0.2994 H   0  0  0  0  0  0  0  0  0  0  0  0
   -0.1956   -0.2250    0.2596 C   0  0  1  0  0  0  0  0  0  0  0  0
    0.0735    0.0499   -0.7606 H   0  0  0  0  0  0  0  0  0  0  0  0
   -0.3397    1.0790    1.0698 C   0  0  0  0  0  0  0  0  0  0  0  0
   -0.7616    0.8250    2.0435 H   0  0  0  0  0  0  0  0  0  0  0  0
    0.6473    1.5171    1.2256 H   0  0  0  0  0  0  0  0  0  0  0  0
   -1.2530    2.1188    0.3989 C   0  0  0  0  0  0  0  0  0  0  0  0
   -0.8428    2.3755   -0.5807 H   0  0  0  0  0  0  0  0  0  0  0  0
   -2.2350    1.6638    0.2444 H   0  0  0  0  0  0  0  0  0  0  0  0
   -1.4153    3.4076    1.2184 C   0  0  0  0  0  0  0  0  0  0  0  0
   -0.9268    3.4447    2.3701 O   0  5  0  0  0  0  0  0  0  0  0  0
   -2.0125    4.3553    0.6611 O   0  0  0  0  0  0  0  0  0  0  0  0
    0.9159   -1.1505    0.7970 C   0  0  0  0  0  0  0  0  0  0  0  0
    1.3448   -1.0160    1.9449 O   0  0  0  0  0  0  0  0  0  0  0  0
    1.3688   -2.1088   -0.0219 N   0  0  0  0  0  0  0  0  0  0  0  0
    1.0094   -2.1237   -0.9648 H   0  0  0  0  0  0  0  0  0  0  0  0
    2.4279   -3.0523    0.3268 C   0  0  0  0  0  0  0  0  0  0  0  0
    2.1987   -3.5264    1.2826 H   0  0  0  0  0  0  0  0  0  0  0  0
    2.5196   -3.8163   -0.4465 H   0  0  0  0  0  0  0  0  0  0  0  0
    3.3744   -2.5162    0.4199 H   0  0  0  0  0  0  0  0  0  0  0  0
  5  6  2  0  0  0  0
  5  7  1  0  0  0  0
  2  3  1  0  0  0  0
  2  4  1  0  0  0  0
  2  5  1  0  0  0  0
  1  2  1  0  0  0  0
 20 21  2  0  0  0  0
 20 22  1  0  0  0  0
 17 18  1  0  0  0  0
 17 19  2  0  0  0  0
 14 15  1  0  0  0  0
 14 16  1  0  0  0  0
 14 17  1  0  0  0  0
 11 12  1  0  0  0  0
 11 13  1  0  0  0  0
 11 14  1  0  0  0  0
  9 10  1  0  0  0  0
  9 11  1  0  0  0  0
  9 20  1  0  0  0  0
  7  8  1  0  0  0  0
  7  9  1  0  0  0  0
 24 25  1  0  0  0  0
 24 26  1  0  0  0  0
 24 27  1  0  0  0  0
 22 23  1  0  0  0  0
 22 24  1  0  0  0  0
M  CHG  1  18  -1
M  END
$$$$
default_name
  -OEChem-01062215323D

 27 26  0     1  0  0  0  0  0999 V2000
   -3.2406   -3.5400    1.2326 H   0  0  0  0  0  0  0  0  0  0  0  0
   -3.1436   -2.6190    0.6606 C   0  0  0  0  0  0  0  0  0  0  0  0
   -3.8786   -1.8920    0.9996 H   0  0  0  0  0  0  0  0  0  0  0  0
   -3.2846   -2.8280   -0.3984 H   0  0  0  0  0  0  0  0  0  0  0  0
   -1.7586   -2.0580    0.8686 C   0  0  0  0  0  0  0  0  0  0  0  0
   -0.9666   -2.6340    1.6026 O   0  0  0  0  0  0  0  0  0  0  0  0
   -1.4866   -0.9220    0.2366 N   0  0  0  0  0  0  0  0  0  0  0  0
   -2.2166   -0.4790   -0.2994 H   0  0  0  0  0  0  0  0  0  0  0  0
   -0.1956   -0.2250    0.2596 C   0  0  1  0  0  0  0  0  0  0  0  0
    0.0735    0.0499   -0.7606 H   0  0  0  0  0  0  0  0  0  0  0  0
   -0.3397    1.0790    1.0698 C   0  0  0  0  0  0  0  0  0  0  0  0
   -0.7616    0.8250    2.0435 H   0  0  0  0  0  0  0  0  0  0  0  0
    0.6473    1.5171    1.2256 H   0  0  0  0  0  0  0  0  0  0  0  0
   -1.2530    2.1188    0.3989 C   0  0  0  0  0  0  0  0  0  0  0  0
   -0.8428    2.3755   -0.5807 H   0  0  0  0  0  0  0  0  0  0  0  0
   -2.2350    1.6638    0.2444 H   0  0  0  0  0  0  0  0  0  0  0  0
   -1.4153    3.4076    1.2184 C   0  0  0  0  0  0  0  0  0  0  0  0
   -0.9268    3.4447    2.3701 O   0  5  0  0  0  0  0  0  0  0  0  0
   -2.0125    4.3553    0.6611 O   0  0  0  0  0  0  0  0  0  0  0  0
    0.9159   -1.1505    0.7970 C   0  0  0  0  0  0  0  0  0  0  0  0
    1.1553   -1.2088    2.0049 O   0  0  0  0  0  0  0  0  0  0  0  0
    1.5820   -1.8953   -0.0950 N   0  0  0  0  0  0  0  0  0  0  0  0
    1.3683   -1.7544   -1.0712 H   0  0  0  0  0  0  0  0  0  0  0  0
    2.6715   -2.8058    0.2474 C   0  0  0  0  0  0  0  0  0  0  0  0
    2.3556   -3.4718    1.0521 H   0  0  0  0  0  0  0  0  0  0  0  0
    2.9553   -3.3965   -0.6247 H   0  0  0  0  0  0  0  0  0  0  0  0
    3.5326   -2.2280    0.5889 H   0  0  0  0  0  0  0  0  0  0  0  0
  5  6  2  0  0  0  0
  5  7  1  0  0  0  0
  2  3  1  0  0  0  0
  2  4  1  0  0  0  0
  2  5  1  0  0  0  0
  1  2  1  0  0  0  0
 20 21  2  0  0  0  0
 20 22  1  0  0  0  0
 17 18  1  0  0  0  0
 17 19  2  0  0  0  0
 14 15  1  0  0  0  0
 14 16  1  0  0  0  0
 14 17  1  0  0  0  0
 11 12  1  0  0  0  0
 11 13  1  0  0  0  0
 11 14  1  0  0  0  0
  9 10  1  0  0  0  0
  9 11  1  0  0  0  0
  9 20  1  0  0  0  0
  7  8  1  0  0  0  0
  7  9  1  0  0  0  0
 24 25  1  0  0  0  0
 24 26  1  0  0  0  0
 24 27  1  0  0  0  0
 22 23  1  0  0  0  0
 22 24  1  0  0  0  0
M  CHG  1  18  -1
M  END
$$$$
default_name
  -OEChem-01062215323D

 27 26  0     1  0  0  0  0  0999 V2000
   -3.2406   -3.5400    1.2326 H   0  0  0  0  0  0  0  0  0  0  0  0
   -3.1436   -2.6190    0.6606 C   0  0  0  0  0  0  0  0  0  0  0  0
   -3.8786   -1.8920    0.9996 H   0  0  0  0  0  0  0  0  0  0  0  0
   -3.2846   -2.8280   -0.3984 H   0  0  0  0  0  0  0  0  0  0  0  0
   -1.7586   -2.0580    0.8686 C   0  0  0  0  0  0  0  0  0  0  0  0
   -0.9666   -2.6340    1.6026 O   0  0  0  0  0  0  0  0  0  0  0  0
   -1.4866   -0.9220    0.2366 N   0  0  0  0  0  0  0  0  0  0  0  0
   -2.2166   -0.4790   -0.2994 H   0  0  0  0  0  0  0  0  0  0  0  0
   -0.1956   -0.2250    0.2596 C   0  0  1  0  0  0  0  0  0  0  0  0
    0.0735    0.0499   -0.7606 H   0  0  0  0  0  0  0  0  0  0  0  0
   -0.3397    1.0790    1.0698 C   0  0  0  0  0  0  0  0  0  0  0  0
   -0.7616    0.8250    2.0435 H   0  0  0  0  0  0  0  0  0  0  0  0
    0.6473    1.5171    1.2256 H   0  0  0  0  0  0  0  0  0  0  0  0
   -1.2530    2.1188    0.3989 C   0  0  0  0  0  0  0  0  0  0  0  0
   -0.8428    2.3755   -0.5807 H   0  0  0  0  0  0  0  0  0  0  0  0
   -2.2350    1.6638    0.2444 H   0  0  0  0  0  0  0  0  0  0  0  0
   -1.4153    3.4076    1.2184 C   0  0  0  0  0  0  0  0  0  0  0  0
   -0.9268    3.4447    2.3701 O   0  5  0  0  0  0  0  0  0  0  0  0
   -2.0125    4.3553    0.6611 O   0  0  0  0  0  0  0  0  0  0  0  0
    0.9159   -1.1505    0.7970 C   0  0  0  0  0  0  0  0  0  0  0  0
    0.9803   -1.4232    1.9975 O   0  0  0  0  0  0  0  0  0  0  0  0
    1.7800   -1.6561   -0.0928 N   0  0  0  0  0  0  0  0  0  0  0  0
    1.6983   -1.3454   -1.0495 H   0  0  0  0  0  0  0  0  0  0  0  0
    2.8969   -2.5309    0.2546 C   0  0  0  0  0  0  0  0  0  0  0  0
    2.5380   -3.3620    0.8640 H   0  0  0  0  0  0  0  0  0  0  0  0
    3.3659   -2.9185   -0.6509 H   0  0  0  0  0  0  0  0  0  0  0  0
    3.6332   -1.9669    0.8305 H   0  0  0  0  0  0  0  0  0  0  0  0
  5  6  2  0  0  0  0
  5  7  1  0  0  0  0
  2  3  1  0  0  0  0
  2  4  1  0  0  0  0
  2  5  1  0  0  0  0
  1  2  1  0  0  0  0
 20 21  2  0  0  0  0
 20 22  1  0  0  0  0
 17 18  1  0  0  0  0
 17 19  2  0  0  0  0
 14 15  1  0  0  0  0
 14 16  1  0  0  0  0
 14 17  1  0  0  0  0
 11 12  1  0  0  0  0
 11 13  1  0  0  0  0
 11 14  1  0  0  0  0
  9 10  1  0  0  0  0
  9 11  1  0  0  0  0
  9 20  1  0  0  0  0
  7  8  1  0  0  0  0
  7  9  1  0  0  0  0
 24 25  1  0  0  0  0
 24 26  1  0  0  0  0
 24 27  1  0  0  0  0
 22 23  1  0  0  0  0
 22 24  1  0  0  0  0
M  CHG  1  18  -1
M  END
$$$$
default_name
  -OEChem-01062215323D

 27 26  0     1  0  0  0  0  0999 V2000
   -3.2406   -3.5400    1.2326 H   0  0  0  0  0  0  0  0  0  0  0  0
   -3.1436   -2.6190    0.6606 C   0  0  0  0  0  0  0  0  0  0  0  0
   -3.8786   -1.8920    0.9996 H   0  0  0  0  0  0  0  0  0  0  0  0
   -3.2846   -2.8280   -0.3984 H   0  0  0  0  0  0  0  0  0  0  0  0
   -1.7586   -2.0580    0.8686 C   0  0  0  0  0  0  0  0  0  0  0  0
   -0.9666   -2.6340    1.6026 O   0  0  0  0  0  0  0  0  0  0  0  0
   -1.4866   -0.9220    0.2366 N   0  0  0  0  0  0  0  0  0  0  0  0
   -2.2166   -0.4790   -0.2994 H   0  0  0  0  0  0  0  0  0  0  0  0
   -0.1956   -0.2250    0.2596 C   0  0  1  0  0  0  0  0  0  0  0  0
    0.0735    0.0499   -0.7606 H   0  0  0  0  0  0  0  0  0  0  0  0
   -0.3397    1.0790    1.0698 C   0  0  0  0  0  0  0  0  0  0  0  0
   -0.7616    0.8250    2.0435 H   0  0  0  0  0  0  0  0  0  0  0  0
    0.6473    1.5171    1.2256 H   0  0  0  0  0  0  0  0  0  0  0  0
   -1.2530    2.1188    0.3989 C   0  0  0  0  0  0  0  0  0  0  0  0
   -0.8428    2.3755   -0.5807 H   0  0  0  0  0  0  0  0  0  0  0  0
   -2.2350    1.6638    0.2444 H   0  0  0  0  0  0  0  0  0  0  0  0
   -1.4153    3.4076    1.2184 C   0  0  0  0  0  0  0  0  0  0  0  0
   -0.9268    3.4447    2.3701 O   0  5  0  0  0  0  0  0  0  0  0  0
   -2.0125    4.3553    0.6611 O   0  0  0  0  0  0  0  0  0  0  0  0
    0.9159   -1.1505    0.7970 C   0  0  0  0  0  0  0  0  0  0  0  0
    0.8317   -1.6448    1.9231 O   0  0  0  0  0  0  0  0  0  0  0  0
    1.9494   -1.4077   -0.0153 N   0  0  0  0  0  0  0  0  0  0  0  0
    1.9768   -0.9248   -0.9010 H   0  0  0  0  0  0  0  0  0  0  0  0
    3.0888   -2.2464    0.3478 C   0  0  0  0  0  0  0  0  0  0  0  0
    2.7335   -3.2044    0.7311 H   0  0  0  0  0  0  0  0  0  0  0  0
    3.7236   -2.4149   -0.5233 H   0  0  0  0  0  0  0  0  0  0  0  0
    3.6694   -1.7506    1.1282 H   0  0  0  0  0  0  0  0  0  0  0  0
  5  6  2  0  0  0  0
  5  7  1  0  0  0  0
  2  3  1  0  0  0  0
  2  4  1  0  0  0  0
  2  5  1  0  0  0  0
  1  2  1  0  0  0  0
 20 21  2  0  0  0  0
 20 22  1  0  0  0  0
 17 18  1  0  0  0  0
 17 19  2  0  0  0  0
 14 15  1  0  0  0  0
 14 16  1  0  0  0  0
 14 17  1  0  0  0  0
 11 12  1  0  0  0  0
 11 13  1  0  0  0  0
 11 14  1  0  0  0  0
  9 10  1  0  0  0  0
  9 11  1  0  0  0  0
  9 20  1  0  0  0  0
  7  8  1  0  0  0  0
  7  9  1  0  0  0  0
 24 25  1  0  0  0  0
 24 26  1  0  0  0  0
 24 27  1  0  0  0  0
 22 23  1  0  0  0  0
 22 24  1  0  0  0  0
M  CHG  1  18  -1
M  END
$$$$
default_name
  -OEChem-01062215323D

 27 26  0     1  0  0  0  0  0999 V2000
   -3.2406   -3.5400    1.2326 H   0  0  0  0  0  0  0  0  0  0  0  0
   -3.1436   -2.6190    0.6606 C   0  0  0  0  0  0  0  0  0  0  0  0
   -3.8786   -1.8920    0.9996 H   0  0  0  0  0  0  0  0  0  0  0  0
   -3.2846   -2.8280   -0.3984 H   0  0  0  0  0  0  0  0  0  0  0  0
   -1.7586   -2.0580    0.8686 C   0  0  0  0  0  0  0  0  0  0  0  0
   -0.9666   -2.6340    1.6026 O   0  0  0  0  0  0  0  0  0  0  0  0
   -1.4866   -0.9220    0.2366 N   0  0  0  0  0  0  0  0  0  0  0  0
   -2.2166   -0.4790   -0.2994 H   0  0  0  0  0  0  0  0  0  0  0  0
   -0.1956   -0.2250    0.2596 C   0  0  1  0  0  0  0  0  0  0  0  0
    0.0735    0.0499   -0.7606 H   0  0  0  0  0  0  0  0  0  0  0  0
   -0.3397    1.0790    1.0698 C   0  0  0  0  0  0  0  0  0  0  0  0
   -0.7616    0.8250    2.0435 H   0  0  0  0  0  0  0  0  0  0  0  0
    0.6473    1.5171    1.2256 H   0  0  0  0  0  0  0  0  0  0  0  0
   -1.2530    2.1188    0.3989 C   0  0  0  0  0  0  0  0  0  0  0  0
   -0.8428    2.3755   -0.5807 H   0  0  0  0  0  0  0  0  0  0  0  0
   -2.2350    1.6638    0.2444 H   0  0  0  0  0  0  0  0  0  0  0  0
   -1.4153    3.4076    1.2184 C   0  0  0  0  0  0  0  0  0  0  0  0
   -0.9268    3.4447    2.3701 O   0  5  0  0  0  0  0  0  0  0  0  0
   -2.0125    4.3553    0.6611 O   0  0  0  0  0  0  0  0  0  0  0  0
    0.9159   -1.1505    0.7970 C   0  0  0  0  0  0  0  0  0  0  0  0
    0.7197   -1.8584    1.7870 O   0  0  0  0  0  0  0  0  0  0  0  0
    2.0786   -1.1669    0.1322 N   0  0  0  0  0  0  0  0  0  0  0  0
    2.1848   -0.5210   -0.6360 H   0  0  0  0  0  0  0  0  0  0  0  0
    3.2340   -1.9716    0.5206 C   0  0  0  0  0  0  0  0  0  0  0  0
    2.9288   -3.0097    0.6625 H   0  0  0  0  0  0  0  0  0  0  0  0
    4.0038   -1.9200   -0.2506 H   0  0  0  0  0  0  0  0  0  0  0  0
    3.6386   -1.5940    1.4616 H   0  0  0  0  0  0  0  0  0  0  0  0
  5  6  2  0  0  0  0
  5  7  1  0  0  0  0
  2  3  1  0  0  0  0
  2  4  1  0  0  0  0
  2  5  1  0  0  0  0
  1  2  1  0  0  0  0
 20 21  2  0  0  0  0
 20 22  1  0  0  0  0
 17 18  1  0  0  0  0
 17 19  2  0  0  0  0
 14 15  1  0  0  0  0
 14 16  1  0  0  0  0
 14 17  1  0  0  0  0
 11 12  1  0  0  0  0
 11 13  1  0  0  0  0
 11 14  1  0  0  0  0
  9 10  1  0  0  0  0
  9 11  1  0  0  0  0
  9 20  1  0  0  0  0
  7  8  1  0  0  0  0
  7  9  1  0  0  0  0
 24 25  1  0  0  0  0
 24 26  1  0  0  0  0
 24 27  1  0  0  0  0
 22 23  1  0  0  0  0
 22 24  1  0  0  0  0
M  CHG  1  18  -1
M  END
$$$$
default_name
  -OEChem-01062215323D

 27 26  0     1  0  0  0  0  0999 V2000
   -3.2406   -3.5400    1.2326 H   0  0  0  0  0  0  0  0  0  0  0  0
   -3.1436   -2.6190    0.6606 C   0  0  0  0  0  0  0  0  0  0  0  0
   -3.8786   -1.8920    0.9996 H   0  0  0  0  0  0  0  0  0  0  0  0
   -3.2846   -2.8280   -0.3984 H   0  0  0  0  0  0  0  0  0  0  0  0
   -1.7586   -2.0580    0.8686 C   0  0  0  0  0  0  0  0  0  0  0  0
   -0.9666   -2.6340    1.6026 O   0  0  0  0  0  0  0  0  0  0  0  0
   -1.4866   -0.9220    0.2366 N   0  0  0  0  0  0  0  0  0  0  0  0
   -2.2166   -0.4790   -0.2994 H   0  0  0  0  0  0  0  0  0  0  0  0
   -0.1956   -0.2250    0.2596 C   0  0  1  0  0  0  0  0  0  0  0  0
    0.0735    0.0499   -0.7606 H   0  0  0  0  0  0  0  0  0  0  0  0
   -0.3397    1.0790    1.0698 C   0  0  0  0  0  0  0  0  0  0  0  0
   -0.7616    0.8250    2.0435 H   0  0  0  0  0  0  0  0  0  0  0  0
    0.6473    1.5171    1.2256 H   0  0  0  0  0  0  0  0  0  0  0  0
   -1.2530    2.1188    0.3989 C   0  0  0  0  0  0  0  0  0  0  0  0
   -0.8428    2.3755   -0.5807 H   0  0  0  0  0  0  0  0  0  0  0  0
   -2.2350    1.6638    0.2444 H   0  0  0  0  0  0  0  0  0  0  0  0
   -1.4153    3.4076    1.2184 C   0  0  0  0  0  0  0  0  0  0  0  0
   -0.9268    3.4447    2.3701 O   0  5  0  0  0  0  0  0  0  0  0  0
   -2.0125    4.3553    0.6611 O   0  0  0  0  0  0  0  0  0  0  0  0
    0.9159   -1.1505    0.7970 C   0  0  0  0  0  0  0  0  0  0  0  0
    0.6520   -2.0493    1.5983 O   0  0  0  0  0  0  0  0  0  0  0  0
    2.1587   -0.9502    0.3395 N   0  0  0  0  0  0  0  0  0  0  0  0
    2.3082   -0.1617   -0.2723 H   0  0  0  0  0  0  0  0  0  0  0  0
    3.3226   -1.7254    0.7613 C   0  0  0  0  0  0  0  0  0  0  0  0
    3.1105   -2.7913    0.6627 H   0  0  0  0  0  0  0  0  0  0  0  0
    4.1876   -1.4676    0.1485 H   0  0  0  0  0  0  0  0  0  0  0  0
    3.5430   -1.5076    1.8081 H   0  0  0  0  0  0  0  0  0  0  0  0
  5  6  2  0  0  0  0
  5  7  1  0  0  0  0
  2  3  1  0  0  0  0
  2  4  1  0  0  0  0
  2  5  1  0  0  0  0
  1  2  1  0  0  0  0
 20 21  2  0  0  0  0
 20 22  1  0  0  0  0
 17 18  1  0  0  0  0
 17 19  2  0  0  0  0
 14 15  1  0  0  0  0
 14 16  1  0  0  0  0
 14 17  1  0  0  0  0
 11 12  1  0  0  0  0
 11 13  1  0  0  0  0
 11 14  1  0  0  0  0
  9 10  1  0  0  0  0
  9 11  1  0  0  0  0
  9 20  1  0  0  0  0
  7  8  1  0  0  0  0
  7  9  1  0  0  0  0
 24 25  1  0  0  0  0
 24 26  1  0  0  0  0
 24 27  1  0  0  0  0
 22 23  1  0  0  0  0
 22 24  1  0  0  0  0
M  CHG  1  18  -1
M  END
$$$$
default_name
  -OEChem-01062215323D

 27 26  0     1  0  0  0  0  0999 V2000
   -3.2406   -3.5400    1.2326 H   0  0  0  0  0  0  0  0  0  0  0  0
   -3.1436   -2.6190    0.6606 C   0  0  0  0  0  0  0  0  0  0  0  0
   -3.8786   -1.8920    0.9996 H   0  0  0  0  0  0  0  0  0  0  0  0
   -3.2846   -2.8280   -0.3984 H   0  0  0  0  0  0  0  0  0  0  0  0
   -1.7586   -2.0580    0.8686 C   0  0  0  0  0  0  0  0  0  0  0  0
   -0.9666   -2.6340    1.6026 O   0  0  0  0  0  0  0  0  0  0  0  0
   -1.4866   -0.9220    0.2366 N   0  0  0  0  0  0  0  0  0  0  0  0
   -2.2166   -0.4790   -0.2994 H   0  0  0  0  0  0  0  0  0  0  0  0
   -0.1956   -0.2250    0.2596 C   0  0  1  0  0  0  0  0  0  0  0  0
    0.0735    0.0499   -0.7606 H   0  0  0  0  0  0  0  0  0  0  0  0
   -0.3397    1.0790    1.0698 C   0  0  0  0  0  0  0  0  0  0  0  0
   -0.7616    0.8250    2.0435 H   0  0  0  0  0  0  0  0  0  0  0  0
    0.6473    1.5171    1.2256 H   0  0  0  0  0  0  0  0  0  0  0  0
   -1.2530    2.1188    0.3989 C   0  0  0  0  0  0  0  0  0  0  0  0
   -0.8428    2.3755   -0.5807 H   0  0  0  0  0  0  0  0  0  0  0  0
   -2.2350    1.6638    0.2444 H   0  0  0  0  0  0  0  0  0  0  0  0
   -1.4153    3.4076    1.2184 C   0  0  0  0  0  0  0  0  0  0  0  0
   -0.9268    3.4447    2.3701 O   0  5  0  0  0  0  0  0  0  0  0  0
   -2.0125    4.3553    0.6611 O   0  0  0  0  0  0  0  0  0  0  0  0
    0.9159   -1.1505    0.7970 C   0  0  0  0  0  0  0  0  0  0  0  0
    0.6330   -2.2047    1.3698 O   0  0  0  0  0  0  0  0  0  0  0  0
    2.1845   -0.7723    0.5927 N   0  0  0  0  0  0  0  0  0  0  0  0
    2.3386    0.1288    0.1650 H   0  0  0  0  0  0  0  0  0  0  0  0
    3.3487   -1.5244    1.0534 C   0  0  0  0  0  0  0  0  0  0  0  0
    3.2662   -2.5640    0.7320 H   0  0  0  0  0  0  0  0  0  0  0  0
    4.2623   -1.0884    0.6469 H   0  0  0  0  0  0  0  0  0  0  0  0
    3.3891   -1.4974    2.1441 H   0  0  0  0  0  0  0  0  0  0  0  0
  5  6  2  0  0  0  0
  5  7  1  0  0  0  0
  2  3  1  0  0  0  0
  2  4  1  0  0  0  0
  2  5  1  0  0  0  0
  1  2  1  0  0  0  0
 20 21  2  0  0  0  0
 20 22  1  0  0  0  0
 17 18  1  0  0  0  0
 17 19  2  0  0  0  0
 14 15  1  0  0  0  0
 14 16  1  0  0  0  0
 14 17  1  0  0  0  0
 11 12  1  0  0  0  0
 11 13  1  0  0  0  0
 11 14  1  0  0  0  0
  9 10  1  0  0  0  0
  9 11  1  0  0  0  0
  9 20  1  0  0  0  0
  7  8  1  0  0  0  0
  7  9  1  0  0  0  0
 24 25  1  0  0  0  0
 24 26  1  0  0  0  0
 24 27  1  0  0  0  0
 22 23  1  0  0  0  0
 22 24  1  0  0  0  0
M  CHG  1  18  -1
M  END
$$$$
default_name
  -OEChem-01062215323D

 27 26  0     1  0  0  0  0  0999 V2000
   -3.2406   -3.5400    1.2326 H   0  0  0  0  0  0  0  0  0  0  0  0
   -3.1436   -2.6190    0.6606 C   0  0  0  0  0  0  0  0  0  0  0  0
   -3.8786   -1.8920    0.9996 H   0  0  0  0  0  0  0  0  0  0  0  0
   -3.2846   -2.8280   -0.3984 H   0  0  0  0  0  0  0  0  0  0  0  0
   -1.7586   -2.0580    0.8686 C   0  0  0  0  0  0  0  0  0  0  0  0
   -0.9666   -2.6340    1.6026 O   0  0  0  0  0  0  0  0  0  0  0  0
   -1.4866   -0.9220    0.2366 N   0  0  0  0  0  0  0  0  0  0  0  0
   -2.2166   -0.4790   -0.2994 H   0  0  0  0  0  0  0  0  0  0  0  0
   -0.1956   -0.2250    0.2596 C   0  0  1  0  0  0  0  0  0  0  0  0
   -0.0516    0.2796   -0.6961 H   0  0  0  0  0  0  0  0  0  0  0  0
   -0.2253    0.8577    1.3572 C   0  0  0  0  0  0  0  0  0  0  0  0
   -0.5264    0.3811    2.2914 H   0  0  0  0  0  0  0  0  0  0  0  0
    0.7777    1.2668    1.4867 H   0  0  0  0  0  0  0  0  0  0  0  0
   -1.2038    2.0059    1.0580 C   0  0  0  0  0  0  0  0  0  0  0  0
   -0.9150    2.4862    0.1201 H   0  0  0  0  0  0  0  0  0  0  0  0
   -2.2019    1.5802    0.9253 H   0  0  0  0  0  0  0  0  0  0  0  0
   -1.2506    3.0714    2.1633 C   0  0  0  0  0  0  0  0  0  0  0  0
   -0.6233    2.8545    3.2244 O   0  5  0  0  0  0  0  0  0  0  0  0
   -1.9023    4.1098    1.9141 O   0  0  0  0  0  0  0  0  0  0  0  0
    0.9642   -1.2279    0.4316 C   0  0  0  0  0  0  0  0  0  0  0  0
    0.7421   -2.4382    0.5066 O   0  0  0  0  0  0  0  0  0  0  0  0
    2.2075   -0.7311    0.4699 N   0  0  0  0  0  0  0  0  0  0  0  0
    2.3082    0.2730    0.4574 H   0  0  0  0  0  0  0  0  0  0  0  0
    3.4096   -1.5419    0.6458 C   0  0  0  0  0  0  0  0  0  0  0  0
    3.4111   -2.3597   -0.0768 H   0  0  0  0  0  0  0  0  0  0  0  0
    4.3004   -0.9284    0.5041 H   0  0  0  0  0  0  0  0  0  0  0  0
    3.4175   -1.9643    1.6525 H   0  0  0  0  0  0  0  0  0  0  0  0
  5  6  2  0  0  0  0
  5  7  1  0  0  0  0
  2  3  1  0  0  0  0
  2  4  1  0  0  0  0
  2  5  1  0  0  0  0
  1  2  1  0  0  0  0
 20 21  2  0  0  0  0
 20 22  1  0  0  0  0
 17 18  1  0  0  0  0
 17 19  2  0  0  0  0
 14 15  1  0  0  0  0
 14 16  1  0  0  0  0
 14 17  1  0  0  0  0
 11 12  1  0  0  0  0
 11 13  1  0  0  0  0
 11 14  1  0  0  0  0
  9 10  1  0  0  0  0
  9 11  1  0  0  0  0
  9 20  1  0  0  0  0
  7  8  1  0  0  0  0
  7  9  1  0  0  0  0
 24 25  1  0  0  0  0
 24 26  1  0  0  0  0
 24 27  1  0  0  0  0
 22 23  1  0  0  0  0
 22 24  1  0  0  0  0
M  CHG  1  18  -1
M  END
$$$$
default_name
  -OEChem-01062215323D

 27 26  0     1  0  0  0  0  0999 V2000
   -3.2406   -3.5400    1.2326 H   0  0  0  0  0  0  0  0  0  0  0  0
   -3.1436   -2.6190    0.6606 C   0  0  0  0  0  0  0  0  0  0  0  0
   -3.8786   -1.8920    0.9996 H   0  0  0  0  0  0  0  0  0  0  0  0
   -3.2846   -2.8280   -0.3984 H   0  0  0  0  0  0  0  0  0  0  0  0
   -1.7586   -2.0580    0.8686 C   0  0  0  0  0  0  0  0  0  0  0  0
   -0.9666   -2.6340    1.6026 O   0  0  0  0  0  0  0  0  0  0  0  0
   -1.4866   -0.9220    0.2366 N   0  0  0  0  0  0  0  0  0  0  0  0
   -2.2166   -0.4790   -0.2994 H   0  0  0  0  0  0  0  0  0  0  0  0
   -0.1956   -0.2250    0.2596 C   0  0  1  0  0  0  0  0  0  0  0  0
   -0.0516    0.2796   -0.6961 H   0  0  0  0  0  0  0  0  0  0  0  0
   -0.2253    0.8577    1.3572 C   0  0  0  0  0  0  0  0  0  0  0  0
   -0.5264    0.3811    2.2914 H   0  0  0  0  0  0  0  0  0  0  0  0
    0.7777    1.2668    1.4867 H   0  0  0  0  0  0  0  0  0  0  0  0
   -1.2038    2.0059    1.0580 C   0  0  0  0  0  0  0  0  0  0  0  0
   -0.9150    2.4862    0.1201 H   0  0  0  0  0  0  0  0  0  0  0  0
   -2.2019    1.5802    0.9253 H   0  0  0  0  0  0  0  0  0  0  0  0
   -1.2506    3.0714    2.1633 C   0  0  0  0  0  0  0  0  0  0  0  0
   -0.6233    2.8545    3.2244 O   0  5  0  0  0  0  0  0  0  0  0  0
   -1.9023    4.1098    1.9141 O   0  0  0  0  0  0  0  0  0  0  0  0
    0.9642   -1.2279    0.4316 C   0  0  0  0  0  0  0  0  0  0  0  0
    0.7881   -2.4319    0.2336 O   0  0  0  0  0  0  0  0  0  0  0  0
    2.1601   -0.7332    0.7768 N   0  0  0  0  0  0  0  0  0  0  0  0
    2.2157    0.2548    0.9748 H   0  0  0  0  0  0  0  0  0  0  0  0
    3.3522   -1.5481    0.9967 C   0  0  0  0  0  0  0  0  0  0  0  0
    3.5104   -2.2074    0.1416 H   0  0  0  0  0  0  0  0  0  0  0  0
    4.2253   -0.9079    1.1300 H   0  0  0  0  0  0  0  0  0  0  0  0
    3.2127   -2.1604    1.8897 H   0  0  0  0  0  0  0  0  0  0  0  0
  5  6  2  0  0  0  0
  5  7  1  0  0  0  0
  2  3  1  0  0  0  0
  2  4  1  0  0  0  0
  2  5  1  0  0  0  0
  1  2  1  0  0  0  0
 20 21  2  0  0  0  0
 20 22  1  0  0  0  0
 17 18  1  0  0  0  0
 17 19  2  0  0  0  0
 14 15  1  0  0  0  0
 14 16  1  0  0  0  0
 14 17  1  0  0  0  0
 11 12  1  0  0  0  0
 11 13  1  0  0  0  0
 11 14  1  0  0  0  0
  9 10  1  0  0  0  0
  9 11  1  0  0  0  0
  9 20  1  0  0  0  0
  7  8  1  0  0  0  0
  7  9  1  0  0  0  0
 24 25  1  0  0  0  0
 24 26  1  0  0  0  0
 24 27  1  0  0  0  0
 22 23  1  0  0  0  0
 22 24  1  0  0  0  0
M  CHG  1  18  -1
M  END
$$$$
default_name
  -OEChem-01062215323D

 27 26  0     1  0  0  0  0  0999 V2000
   -3.2406   -3.5400    1.2326 H   0  0  0  0  0  0  0  0  0  0  0  0
   -3.1436   -2.6190    0.6606 C   0  0  0  0  0  0  0  0  0  0  0  0
   -3.8786   -1.8920    0.9996 H   0  0  0  0  0  0  0  0  0  0  0  0
   -3.2846   -2.8280   -0.3984 H   0  0  0  0  0  0  0  0  0  0  0  0
   -1.7586   -2.0580    0.8686 C   0  0  0  0  0  0  0  0  0  0  0  0
   -0.9666   -2.6340    1.6026 O   0  0  0  0  0  0  0  0  0  0  0  0
   -1.4866   -0.9220    0.2366 N   0  0  0  0  0  0  0  0  0  0  0  0
   -2.2166   -0.4790   -0.2994 H   0  0  0  0  0  0  0  0  0  0  0  0
   -0.1956   -0.2250    0.2596 C   0  0  1  0  0  0  0  0  0  0  0  0
   -0.0516    0.2796   -0.6961 H   0  0  0  0  0  0  0  0  0  0  0  0
   -0.2253    0.8577    1.3572 C   0  0  0  0  0  0  0  0  0  0  0  0
   -0.5264    0.3811    2.2914 H   0  0  0  0  0  0  0  0  0  0  0  0
    0.7777    1.2668    1.4867 H   0  0  0  0  0  0  0  0  0  0  0  0
   -1.2038    2.0059    1.0580 C   0  0  0  0  0  0  0  0  0  0  0  0
   -0.9150    2.4862    0.1201 H   0  0  0  0  0  0  0  0  0  0  0  0
   -2.2019    1.5802    0.9253 H   0  0  0  0  0  0  0  0  0  0  0  0
   -1.2506    3.0714    2.1633 C   0  0  0  0  0  0  0  0  0  0  0  0
   -0.6233    2.8545    3.2244 O   0  5  0  0  0  0  0  0  0  0  0  0
   -1.9023    4.1098    1.9141 O   0  0  0  0  0  0  0  0  0  0  0  0
    0.9642   -1.2279    0.4316 C   0  0  0  0  0  0  0  0  0  0  0  0
    0.8782   -2.3713   -0.0212 O   0  0  0  0  0  0  0  0  0  0  0  0
    2.0628   -0.7964    1.0648 N   0  0  0  0  0  0  0  0  0  0  0  0
    2.0399    0.1339    1.4554 H   0  0  0  0  0  0  0  0  0  0  0  0
    3.2379   -1.6241    1.3247 C   0  0  0  0  0  0  0  0  0  0  0  0
    3.5652   -2.1000    0.3988 H   0  0  0  0  0  0  0  0  0  0  0  0
    4.0469   -1.0120    1.7259 H   0  0  0  0  0  0  0  0  0  0  0  0
    2.9807   -2.4020    2.0462 H   0  0  0  0  0  0  0  0  0  0  0  0
  5  6  2  0  0  0  0
  5  7  1  0  0  0  0
  2  3  1  0  0  0  0
  2  4  1  0  0  0  0
  2  5  1  0  0  0  0
  1  2  1  0  0  0  0
 20 21  2  0  0  0  0
 20 22  1  0  0  0  0
 17 18  1  0  0  0  0
 17 19  2  0  0  0  0
 14 15  1  0  0  0  0
 14 16  1  0  0  0  0
 14 17  1  0  0  0  0
 11 12  1  0  0  0  0
 11 13  1  0  0  0  0
 11 14  1  0  0  0  0
  9 10  1  0  0  0  0
  9 11  1  0  0  0  0
  9 20  1  0  0  0  0
  7  8  1  0  0  0  0
  7  9  1  0  0  0  0
 24 25  1  0  0  0  0
 24 26  1  0  0  0  0
 24 27  1  0  0  0  0
 22 23  1  0  0  0  0
 22 24  1  0  0  0  0
M  CHG  1  18  -1
M  END
$$$$
default_name
  -OEChem-01062215323D

 27 26  0     1  0  0  0  0  0999 V2000
   -3.2406   -3.5400    1.2326 H   0  0  0  0  0  0  0  0  0  0  0  0
   -3.1436   -2.6190    0.6606 C   0  0  0  0  0  0  0  0  0  0  0  0
   -3.8786   -1.8920    0.9996 H   0  0  0  0  0  0  0  0  0  0  0  0
   -3.2846   -2.8280   -0.3984 H   0  0  0  0  0  0  0  0  0  0  0  0
   -1.7586   -2.0580    0.8686 C   0  0  0  0  0  0  0  0  0  0  0  0
   -0.9666   -2.6340    1.6026 O   0  0  0  0  0  0  0  0  0  0  0  0
   -1.4866   -0.9220    0.2366 N   0  0  0  0  0  0  0  0  0  0  0  0
   -2.2166   -0.4790   -0.2994 H   0  0  0  0  0  0  0  0  0  0  0  0
   -0.1956   -0.2250    0.2596 C   0  0  1  0  0  0  0  0  0  0  0  0
   -0.0516    0.2796   -0.6961 H   0  0  0  0  0  0  0  0  0  0  0  0
   -0.2253    0.8577    1.3572 C   0  0  0  0  0  0  0  0  0  0  0  0
   -0.5264    0.3811    2.2914 H   0  0  0  0  0  0  0  0  0  0  0  0
    0.7777    1.2668    1.4867 H   0  0  0  0  0  0  0  0  0  0  0  0
   -1.2038    2.0059    1.0580 C   0  0  0  0  0  0  0  0  0  0  0  0
   -0.9150    2.4862    0.1201 H   0  0  0  0  0  0  0  0  0  0  0  0
   -2.2019    1.5802    0.9253 H   0  0  0  0  0  0  0  0  0  0  0  0
   -1.2506    3.0714    2.1633 C   0  0  0  0  0  0  0  0  0  0  0  0
   -0.6233    2.8545    3.2244 O   0  5  0  0  0  0  0  0  0  0  0  0
   -1.9023    4.1098    1.9141 O   0  0  0  0  0  0  0  0  0  0  0  0
    0.9642   -1.2279    0.4316 C   0  0  0  0  0  0  0  0  0  0  0  0
    1.0064   -2.2607   -0.2403 O   0  0  0  0  0  0  0  0  0  0  0  0
    1.9222   -0.9163    1.3143 N   0  0  0  0  0  0  0  0  0  0  0  0
    1.7926   -0.0815    1.8666 H   0  0  0  0  0  0  0  0  0  0  0  0
    3.0745   -1.7645    1.6076 C   0  0  0  0  0  0  0  0  0  0  0  0
    3.5718   -2.0446    0.6774 H   0  0  0  0  0  0  0  0  0  0  0  0
    3.7774   -1.2337    2.2512 H   0  0  0  0  0  0  0  0  0  0  0  0
    2.7372   -2.6724    2.1114 H   0  0  0  0  0  0  0  0  0  0  0  0
  5  6  2  0  0  0  0
  5  7  1  0  0  0  0
  2  3  1  0  0  0  0
  2  4  1  0  0  0  0
  2  5  1  0  0  0  0
  1  2  1  0  0  0  0
 20 21  2  0  0  0  0
 20 22  1  0  0  0  0
 17 18  1  0  0  0  0
 17 19  2  0  0  0  0
 14 15  1  0  0  0  0
 14 16  1  0  0  0  0
 14 17  1  0  0  0  0
 11 12  1  0  0  0  0
 11 13  1  0  0  0  0
 11 14  1  0  0  0  0
  9 10  1  0  0  0  0
  9 11  1  0  0  0  0
  9 20  1  0  0  0  0
  7  8  1  0  0  0  0
  7  9  1  0  0  0  0
 24 25  1  0  0  0  0
 24 26  1  0  0  0  0
 24 27  1  0  0  0  0
 22 23  1  0  0  0  0
 22 24  1  0  0  0  0
M  CHG  1  18  -1
M  END
$$$$
default_name
  -OEChem-01062215323D

 27 26  0     1  0  0  0  0  0999 V2000
   -3.2406   -3.5400    1.2326 H   0  0  0  0  0  0  0  0  0  0  0  0
   -3.1436   -2.6190    0.6606 C   0  0  0  0  0  0  0  0  0  0  0  0
   -3.8786   -1.8920    0.9996 H   0  0  0  0  0  0  0  0  0  0  0  0
   -3.2846   -2.8280   -0.3984 H   0  0  0  0  0  0  0  0  0  0  0  0
   -1.7586   -2.0580    0.8686 C   0  0  0  0  0  0  0  0  0  0  0  0
   -0.9666   -2.6340    1.6026 O   0  0  0  0  0  0  0  0  0  0  0  0
   -1.4866   -0.9220    0.2366 N   0  0  0  0  0  0  0  0  0  0  0  0
   -2.2166   -0.4790   -0.2994 H   0  0  0  0  0  0  0  0  0  0  0  0
   -0.1956   -0.2250    0.2596 C   0  0  1  0  0  0  0  0  0  0  0  0
   -0.0516    0.2796   -0.6961 H   0  0  0  0  0  0  0  0  0  0  0  0
   -0.2253    0.8577    1.3572 C   0  0  0  0  0  0  0  0  0  0  0  0
   -0.5264    0.3811    2.2914 H   0  0  0  0  0  0  0  0  0  0  0  0
    0.7777    1.2668    1.4867 H   0  0  0  0  0  0  0  0  0  0  0  0
   -1.2038    2.0059    1.0580 C   0  0  0  0  0  0  0  0  0  0  0  0
   -0.9150    2.4862    0.1201 H   0  0  0  0  0  0  0  0  0  0  0  0
   -2.2019    1.5802    0.9253 H   0  0  0  0  0  0  0  0  0  0  0  0
   -1.2506    3.0714    2.1633 C   0  0  0  0  0  0  0  0  0  0  0  0
   -0.6233    2.8545    3.2244 O   0  5  0  0  0  0  0  0  0  0  0  0
   -1.9023    4.1098    1.9141 O   0  0  0  0  0  0  0  0  0  0  0  0
    0.9642   -1.2279    0.4316 C   0  0  0  0  0  0  0  0  0  0  0  0
    1.1639   -2.1074   -0.4088 O   0  0  0  0  0  0  0  0  0  0  0  0
    1.7478   -1.0846    1.5084 N   0  0  0  0  0  0  0  0  0  0  0  0
    1.4909   -0.3767    2.1802 H   0  0  0  0  0  0  0  0  0  0  0  0
    2.8732   -1.9599    1.8260 C   0  0  0  0  0  0  0  0  0  0  0  0
    3.5296   -2.0452    0.9584 H   0  0  0  0  0  0  0  0  0  0  0  0
    3.4350   -1.5578    2.6702 H   0  0  0  0  0  0  0  0  0  0  0  0
    2.4988   -2.9533    2.0807 H   0  0  0  0  0  0  0  0  0  0  0  0
  5  6  2  0  0  0  0
  5  7  1  0  0  0  0
  2  3  1  0  0  0  0
  2  4  1  0  0  0  0
  2  5  1  0  0  0  0
  1  2  1  0  0  0  0
 20 21  2  0  0  0  0
 20 22  1  0  0  0  0
 17 18  1  0  0  0  0
 17 19  2  0  0  0  0
 14 15  1  0  0  0  0
 14 16  1  0  0  0  0
 14 17  1  0  0  0  0
 11 12  1  0  0  0  0
 11 13  1  0  0  0  0
 11 14  1  0  0  0  0
  9 10  1  0  0  0  0
  9 11  1  0  0  0  0
  9 20  1  0  0  0  0
  7  8  1  0  0  0  0
  7  9  1  0  0  0  0
 24 25  1  0  0  0  0
 24 26  1  0  0  0  0
 24 27  1  0  0  0  0
 22 23  1  0  0  0  0
 22 24  1  0  0  0  0
M  CHG  1  18  -1
M  END
$$$$
default_name
  -OEChem-01062215323D

 27 26  0     1  0  0  0  0  0999 V2000
   -3.2406   -3.5400    1.2326 H   0  0  0  0  0  0  0  0  0  0  0  0
   -3.1436   -2.6190    0.6606 C   0  0  0  0  0  0  0  0  0  0  0  0
   -3.8786   -1.8920    0.9996 H   0  0  0  0  0  0  0  0  0  0  0  0
   -3.2846   -2.8280   -0.3984 H   0  0  0  0  0  0  0  0  0  0  0  0
   -1.7586   -2.0580    0.8686 C   0  0  0  0  0  0  0  0  0  0  0  0
   -0.9666   -2.6340    1.6026 O   0  0  0  0  0  0  0  0  0  0  0  0
   -1.4866   -0.9220    0.2366 N   0  0  0  0  0  0  0  0  0  0  0  0
   -2.2166   -0.4790   -0.2994 H   0  0  0  0  0  0  0  0  0  0  0  0
   -0.1956   -0.2250    0.2596 C   0  0  1  0  0  0  0  0  0  0  0  0
   -0.0516    0.2796   -0.6961 H   0  0  0  0  0  0  0  0  0  0  0  0
   -0.2253    0.8577    1.3572 C   0  0  0  0  0  0  0  0  0  0  0  0
   -0.5264    0.3811    2.2914 H   0  0  0  0  0  0  0  0  0  0  0  0
    0.7777    1.2668    1.4867 H   0  0  0  0  0  0  0  0  0  0  0  0
   -1.2038    2.0059    1.0580 C   0  0  0  0  0  0  0  0  0  0  0  0
   -0.9150    2.4862    0.1201 H   0  0  0  0  0  0  0  0  0  0  0  0
   -2.2019    1.5802    0.9253 H   0  0  0  0  0  0  0  0  0  0  0  0
   -1.2506    3.0714    2.1633 C   0  0  0  0  0  0  0  0  0  0  0  0
   -0.6233    2.8545    3.2244 O   0  5  0  0  0  0  0  0  0  0  0  0
   -1.9023    4.1098    1.9141 O   0  0  0  0  0  0  0  0  0  0  0  0
    0.9642   -1.2279    0.4316 C   0  0  0  0  0  0  0  0  0  0  0  0
    1.3399   -1.9221   -0.5154 O   0  0  0  0  0  0  0  0  0  0  0  0
    1.5516   -1.2900    1.6337 N   0  0  0  0  0  0  0  0  0  0  0  0
    1.1552   -0.7316    2.3750 H   0  0  0  0  0  0  0  0  0  0  0  0
    2.6476   -2.1969    1.9651 C   0  0  0  0  0  0  0  0  0  0  0  0
    3.4417   -2.1016    1.2226 H   0  0  0  0  0  0  0  0  0  0  0  0
    3.0432   -1.9622    2.9542 H   0  0  0  0  0  0  0  0  0  0  0  0
    2.2818   -3.2256    1.9564 H   0  0  0  0  0  0  0  0  0  0  0  0
  5  6  2  0  0  0  0
  5  7  1  0  0  0  0
  2  3  1  0  0  0  0
  2  4  1  0  0  0  0
  2  5  1  0  0  0  0
  1  2  1  0  0  0  0
 20 21  2  0  0  0  0
 20 22  1  0  0  0  0
 17 18  1  0  0  0  0
 17 19  2  0  0  0  0
 14 15  1  0  0  0  0
 14 16  1  0  0  0  0
 14 17  1  0  0  0  0
 11 12  1  0  0  0  0
 11 13  1  0  0  0  0
 11 14  1  0  0  0  0
  9 10  1  0  0  0  0
  9 11  1  0  0  0  0
  9 20  1  0  0  0  0
  7  8  1  0  0  0  0
  7  9  1  0  0  0  0
 24 25  1  0  0  0  0
 24 26  1  0  0  0  0
 24 27  1  0  0  0  0
 22 23  1  0  0  0  0
 22 24  1  0  0  0  0
M  CHG  1  18  -1
M  END
$$$$
default_name
  -OEChem-01062215323D

 27 26  0     1  0  0  0  0  0999 V2000
   -3.2406   -3.5400    1.2326 H   0  0  0  0  0  0  0  0  0  0  0  0
   -3.1436   -2.6190    0.6606 C   0  0  0  0  0  0  0  0  0  0  0  0
   -3.8786   -1.8920    0.9996 H   0  0  0  0  0  0  0  0  0  0  0  0
   -3.2846   -2.8280   -0.3984 H   0  0  0  0  0  0  0  0  0  0  0  0
   -1.7586   -2.0580    0.8686 C   0  0  0  0  0  0  0  0  0  0  0  0
   -0.9666   -2.6340    1.6026 O   0  0  0  0  0  0  0  0  0  0  0  0
   -1.4866   -0.9220    0.2366 N   0  0  0  0  0  0  0  0  0  0  0  0
   -2.2166   -0.4790   -0.2994 H   0  0  0  0  0  0  0  0  0  0  0  0
   -0.1956   -0.2250    0.2596 C   0  0  1  0  0  0  0  0  0  0  0  0
   -0.0516    0.2796   -0.6961 H   0  0  0  0  0  0  0  0  0  0  0  0
   -0.2253    0.8577    1.3572 C   0  0  0  0  0  0  0  0  0  0  0  0
   -0.5264    0.3811    2.2914 H   0  0  0  0  0  0  0  0  0  0  0  0
    0.7777    1.2668    1.4867 H   0  0  0  0  0  0  0  0  0  0  0  0
   -1.2038    2.0059    1.0580 C   0  0  0  0  0  0  0  0  0  0  0  0
   -0.9150    2.4862    0.1201 H   0  0  0  0  0  0  0  0  0  0  0  0
   -2.2019    1.5802    0.9253 H   0  0  0  0  0  0  0  0  0  0  0  0
   -1.2506    3.0714    2.1633 C   0  0  0  0  0  0  0  0  0  0  0  0
   -0.6233    2.8545    3.2244 O   0  5  0  0  0  0  0  0  0  0  0  0
   -1.9023    4.1098    1.9141 O   0  0  0  0  0  0  0  0  0  0  0  0
    0.9642   -1.2279    0.4316 C   0  0  0  0  0  0  0  0  0  0  0  0
    1.5225   -1.7173   -0.5526 O   0  0  0  0  0  0  0  0  0  0  0  0
    1.3469   -1.5185    1.6818 N   0  0  0  0  0  0  0  0  0  0  0  0
    0.8084   -1.1219    2.4376 H   0  0  0  0  0  0  0  0  0  0  0  0
    2.4131   -2.4595    2.0153 C   0  0  0  0  0  0  0  0  0  0  0  0
    3.3139   -2.2101    1.4520 H   0  0  0  0  0  0  0  0  0  0  0  0
    2.6286   -2.4194    3.0840 H   0  0  0  0  0  0  0  0  0  0  0  0
    2.1010   -3.4706    1.7468 H   0  0  0  0  0  0  0  0  0  0  0  0
  5  6  2  0  0  0  0
  5  7  1  0  0  0  0
  2  3  1  0  0  0  0
  2  4  1  0  0  0  0
  2  5  1  0  0  0  0
  1  2  1  0  0  0  0
 20 21  2  0  0  0  0
 20 22  1  0  0  0  0
 17 18  1  0  0  0  0
 17 19  2  0  0  0  0
 14 15  1  0  0  0  0
 14 16  1  0  0  0  0
 14 17  1  0  0  0  0
 11 12  1  0  0  0  0
 11 13  1  0  0  0  0
 11 14  1  0  0  0  0
  9 10  1  0  0  0  0
  9 11  1  0  0  0  0
  9 20  1  0  0  0  0
  7  8  1  0  0  0  0
  7  9  1  0  0  0  0
 24 25  1  0  0  0  0
 24 26  1  0  0  0  0
 24 27  1  0  0  0  0
 22 23  1  0  0  0  0
 22 24  1  0  0  0  0
M  CHG  1  18  -1
M  END
$$$$
default_name
  -OEChem-01062215323D

 27 26  0     1  0  0  0  0  0999 V2000
   -3.2406   -3.5400    1.2326 H   0  0  0  0  0  0  0  0  0  0  0  0
   -3.1436   -2.6190    0.6606 C   0  0  0  0  0  0  0  0  0  0  0  0
   -3.8786   -1.8920    0.9996 H   0  0  0  0  0  0  0  0  0  0  0  0
   -3.2846   -2.8280   -0.3984 H   0  0  0  0  0  0  0  0  0  0  0  0
   -1.7586   -2.0580    0.8686 C   0  0  0  0  0  0  0  0  0  0  0  0
   -0.9666   -2.6340    1.6026 O   0  0  0  0  0  0  0  0  0  0  0  0
   -1.4866   -0.9220    0.2366 N   0  0  0  0  0  0  0  0  0  0  0  0
   -2.2166   -0.4790   -0.2994 H   0  0  0  0  0  0  0  0  0  0  0  0
   -0.1956   -0.2250    0.2596 C   0  0  1  0  0  0  0  0  0  0  0  0
   -0.0516    0.2796   -0.6961 H   0  0  0  0  0  0  0  0  0  0  0  0
   -0.2253    0.8577    1.3572 C   0  0  0  0  0  0  0  0  0  0  0  0
   -0.5264    0.3811    2.2914 H   0  0  0  0  0  0  0  0  0  0  0  0
    0.7777    1.2668    1.4867 H   0  0  0  0  0  0  0  0  0  0  0  0
   -1.2038    2.0059    1.0580 C   0  0  0  0  0  0  0  0  0  0  0  0
   -0.9150    2.4862    0.1201 H   0  0  0  0  0  0  0  0  0  0  0  0
   -2.2019    1.5802    0.9253 H   0  0  0  0  0  0  0  0  0  0  0  0
   -1.2506    3.0714    2.1633 C   0  0  0  0  0  0  0  0  0  0  0  0
   -0.6233    2.8545    3.2244 O   0  5  0  0  0  0  0  0  0  0  0  0
   -1.9023    4.1098    1.9141 O   0  0  0  0  0  0  0  0  0  0  0  0
    0.9642   -1.2279    0.4316 C   0  0  0  0  0  0  0  0  0  0  0  0
    1.6993   -1.5070   -0.5179 O   0  0  0  0  0  0  0  0  0  0  0  0
    1.1477   -1.7545    1.6494 N   0  0  0  0  0  0  0  0  0  0  0  0
    0.4741   -1.5212    2.3638 H   0  0  0  0  0  0  0  0  0  0  0  0
    2.1857   -2.7296    1.9733 C   0  0  0  0  0  0  0  0  0  0  0  0
    3.1550   -2.3631    1.6310 H   0  0  0  0  0  0  0  0  0  0  0  0
    2.2194   -2.8983    3.0506 H   0  0  0  0  0  0  0  0  0  0  0  0
    1.9687   -3.6717    1.4662 H   0  0  0  0  0  0  0  0  0  0  0  0
  5  6  2  0  0  0  0
  5  7  1  0  0  0  0
  2  3  1  0  0  0  0
  2  4  1  0  0  0  0
  2  5  1  0  0  0  0
  1  2  1  0  0  0  0
 20 21  2  0  0  0  0
 20 22  1  0  0  0  0
 17 18  1  0  0  0  0
 17 19  2  0  0  0  0
 14 15  1  0  0  0  0
 14 16  1  0  0  0  0
 14 17  1  0  0  0  0
 11 12  1  0  0  0  0
 11 13  1  0  0  0  0
 11 14  1  0  0  0  0
  9 10  1  0  0  0  0
  9 11  1  0  0  0  0
  9 20  1  0  0  0  0
  7  8  1  0  0  0  0
  7  9  1  0  0  0  0
 24 25  1  0  0  0  0
 24 26  1  0  0  0  0
 24 27  1  0  0  0  0
 22 23  1  0  0  0  0
 22 24  1  0  0  0  0
M  CHG  1  18  -1
M  END
$$$$
default_name
  -OEChem-01062215323D

 27 26  0     1  0  0  0  0  0999 V2000
   -3.2406   -3.5400    1.2326 H   0  0  0  0  0  0  0  0  0  0  0  0
   -3.1436   -2.6190    0.6606 C   0  0  0  0  0  0  0  0  0  0  0  0
   -3.8786   -1.8920    0.9996 H   0  0  0  0  0  0  0  0  0  0  0  0
   -3.2846   -2.8280   -0.3984 H   0  0  0  0  0  0  0  0  0  0  0  0
   -1.7586   -2.0580    0.8686 C   0  0  0  0  0  0  0  0  0  0  0  0
   -0.9666   -2.6340    1.6026 O   0  0  0  0  0  0  0  0  0  0  0  0
   -1.4866   -0.9220    0.2366 N   0  0  0  0  0  0  0  0  0  0  0  0
   -2.2166   -0.4790   -0.2994 H   0  0  0  0  0  0  0  0  0  0  0  0
   -0.1956   -0.2250    0.2596 C   0  0  1  0  0  0  0  0  0  0  0  0
   -0.0516    0.2796   -0.6961 H   0  0  0  0  0  0  0  0  0  0  0  0
   -0.2253    0.8577    1.3572 C   0  0  0  0  0  0  0  0  0  0  0  0
   -0.5264    0.3811    2.2914 H   0  0  0  0  0  0  0  0  0  0  0  0
    0.7777    1.2668    1.4867 H   0  0  0  0  0  0  0  0  0  0  0  0
   -1.2038    2.0059    1.0580 C   0  0  0  0  0  0  0  0  0  0  0  0
   -0.9150    2.4862    0.1201 H   0  0  0  0  0  0  0  0  0  0  0  0
   -2.2019    1.5802    0.9253 H   0  0  0  0  0  0  0  0  0  0  0  0
   -1.2506    3.0714    2.1633 C   0  0  0  0  0  0  0  0  0  0  0  0
   -0.6233    2.8545    3.2244 O   0  5  0  0  0  0  0  0  0  0  0  0
   -1.9023    4.1098    1.9141 O   0  0  0  0  0  0  0  0  0  0  0  0
    0.9642   -1.2279    0.4316 C   0  0  0  0  0  0  0  0  0  0  0  0
    1.8581   -1.3054   -0.4138 O   0  0  0  0  0  0  0  0  0  0  0  0
    0.9675   -1.9818    1.5387 N   0  0  0  0  0  0  0  0  0  0  0  0
    0.1751   -1.9021    2.1586 H   0  0  0  0  0  0  0  0  0  0  0  0
    1.9810   -2.9889    1.8420 C   0  0  0  0  0  0  0  0  0  0  0  0
    2.9758   -2.5504    1.7474 H   0  0  0  0  0  0  0  0  0  0  0  0
    1.8437   -3.3661    2.8564 H   0  0  0  0  0  0  0  0  0  0  0  0
    1.8939   -3.8152    1.1338 H   0  0  0  0  0  0  0  0  0  0  0  0
  5  6  2  0  0  0  0
  5  7  1  0  0  0  0
  2  3  1  0  0  0  0
  2  4  1  0  0  0  0
  2  5  1  0  0  0  0
  1  2  1  0  0  0  0
 20 21  2  0  0  0  0
 20 22  1  0  0  0  0
 17 18  1  0  0  0  0
 17 19  2  0  0  0  0
 14 15  1  0  0  0  0
 14 16  1  0  0  0  0
 14 17  1  0  0  0  0
 11 12  1  0  0  0  0
 11 13  1  0  0  0  0
 11 14  1  0  0  0  0
  9 10  1  0  0  0  0
  9 11  1  0  0  0  0
  9 20  1  0  0  0  0
  7  8  1  0  0  0  0
  7  9  1  0  0  0  0
 24 25  1  0  0  0  0
 24 26  1  0  0  0  0
 24 27  1  0  0  0  0
 22 23  1  0  0  0  0
 22 24  1  0  0  0  0
M  CHG  1  18  -1
M  END
$$$$
default_name
  -OEChem-01062215323D

 27 26  0     1  0  0  0  0  0999 V2000
   -3.2406   -3.5400    1.2326 H   0  0  0  0  0  0  0  0  0  0  0  0
   -3.1436   -2.6190    0.6606 C   0  0  0  0  0  0  0  0  0  0  0  0
   -3.8786   -1.8920    0.9996 H   0  0  0  0  0  0  0  0  0  0  0  0
   -3.2846   -2.8280   -0.3984 H   0  0  0  0  0  0  0  0  0  0  0  0
   -1.7586   -2.0580    0.8686 C   0  0  0  0  0  0  0  0  0  0  0  0
   -0.9666   -2.6340    1.6026 O   0  0  0  0  0  0  0  0  0  0  0  0
   -1.4866   -0.9220    0.2366 N   0  0  0  0  0  0  0  0  0  0  0  0
   -2.2166   -0.4790   -0.2994 H   0  0  0  0  0  0  0  0  0  0  0  0
   -0.1956   -0.2250    0.2596 C   0  0  1  0  0  0  0  0  0  0  0  0
   -0.0516    0.2796   -0.6961 H   0  0  0  0  0  0  0  0  0  0  0  0
   -0.2253    0.8577    1.3572 C   0  0  0  0  0  0  0  0  0  0  0  0
   -0.5264    0.3811    2.2914 H   0  0  0  0  0  0  0  0  0  0  0  0
    0.7777    1.2668    1.4867 H   0  0  0  0  0  0  0  0  0  0  0  0
   -1.2038    2.0059    1.0580 C   0  0  0  0  0  0  0  0  0  0  0  0
   -0.9150    2.4862    0.1201 H   0  0  0  0  0  0  0  0  0  0  0  0
   -2.2019    1.5802    0.9253 H   0  0  0  0  0  0  0  0  0  0  0  0
   -1.2506    3.0714    2.1633 C   0  0  0  0  0  0  0  0  0  0  0  0
   -0.6233    2.8545    3.2244 O   0  5  0  0  0  0  0  0  0  0  0  0
   -1.9023    4.1098    1.9141 O   0  0  0  0  0  0  0  0  0  0  0  0
    0.9642   -1.2279    0.4316 C   0  0  0  0  0  0  0  0  0  0  0  0
    1.9882   -1.1264   -0.2473 O   0  0  0  0  0  0  0  0  0  0  0  0
    0.8187   -2.1851    1.3572 N   0  0  0  0  0  0  0  0  0  0  0  0
   -0.0681   -2.2387    1.8360 H   0  0  0  0  0  0  0  0  0  0  0  0
    1.8128   -3.2198    1.6302 C   0  0  0  0  0  0  0  0  0  0  0  0
    2.7885   -2.7591    1.7932 H   0  0  0  0  0  0  0  0  0  0  0  0
    1.5269   -3.7910    2.5145 H   0  0  0  0  0  0  0  0  0  0  0  0
    1.8817   -3.8914    0.7723 H   0  0  0  0  0  0  0  0  0  0  0  0
  5  6  2  0  0  0  0
  5  7  1  0  0  0  0
  2  3  1  0  0  0  0
  2  4  1  0  0  0  0
  2  5  1  0  0  0  0
  1  2  1  0  0  0  0
 20 21  2  0  0  0  0
 20 22  1  0  0  0  0
 17 18  1  0  0  0  0
 17 19  2  0  0  0  0
 14 15  1  0  0  0  0
 14 16  1  0  0  0  0
 14 17  1  0  0  0  0
 11 12  1  0  0  0  0
 11 13  1  0  0  0  0
 11 14  1  0  0  0  0
  9 10  1  0  0  0  0
  9 11  1  0  0  0  0
  9 20  1  0  0  0  0
  7  8  1  0  0  0  0
  7  9  1  0  0  0  0
 24 25  1  0  0  0  0
 24 26  1  0  0  0  0
 24 27  1  0  0  0  0
 22 23  1  0  0  0  0
 22 24  1  0  0  0  0
M  CHG  1  18  -1
M  END
$$$$
default_name
  -OEChem-01062215323D

 27 26  0     1  0  0  0  0  0999 V2000
   -3.2406   -3.5400    1.2326 H   0  0  0  0  0  0  0  0  0  0  0  0
   -3.1436   -2.6190    0.6606 C   0  0  0  0  0  0  0  0  0  0  0  0
   -3.8786   -1.8920    0.9996 H   0  0  0  0  0  0  0  0  0  0  0  0
   -3.2846   -2.8280   -0.3984 H   0  0  0  0  0  0  0  0  0  0  0  0
   -1.7586   -2.0580    0.8686 C   0  0  0  0  0  0  0  0  0  0  0  0
   -0.9666   -2.6340    1.6026 O   0  0  0  0  0  0  0  0  0  0  0  0
   -1.4866   -0.9220    0.2366 N   0  0  0  0  0  0  0  0  0  0  0  0
   -2.2166   -0.4790   -0.2994 H   0  0  0  0  0  0  0  0  0  0  0  0
   -0.1956   -0.2250    0.2596 C   0  0  1  0  0  0  0  0  0  0  0  0
   -0.0516    0.2796   -0.6961 H   0  0  0  0  0  0  0  0  0  0  0  0
   -0.2253    0.8577    1.3572 C   0  0  0  0  0  0  0  0  0  0  0  0
   -0.5264    0.3811    2.2914 H   0  0  0  0  0  0  0  0  0  0  0  0
    0.7777    1.2668    1.4867 H   0  0  0  0  0  0  0  0  0  0  0  0
   -1.2038    2.0059    1.0580 C   0  0  0  0  0  0  0  0  0  0  0  0
   -0.9150    2.4862    0.1201 H   0  0  0  0  0  0  0  0  0  0  0  0
   -2.2019    1.5802    0.9253 H   0  0  0  0  0  0  0  0  0  0  0  0
   -1.2506    3.0714    2.1633 C   0  0  0  0  0  0  0  0  0  0  0  0
   -0.6233    2.8545    3.2244 O   0  5  0  0  0  0  0  0  0  0  0  0
   -1.9023    4.1098    1.9141 O   0  0  0  0  0  0  0  0  0  0  0  0
    0.9642   -1.2279    0.4316 C   0  0  0  0  0  0  0  0  0  0  0  0
    2.0807   -0.9822   -0.0298 O   0  0  0  0  0  0  0  0  0  0  0  0
    0.7113   -2.3504    1.1173 N   0  0  0  0  0  0  0  0  0  0  0  0
   -0.2391   -2.5081    1.4179 H   0  0  0  0  0  0  0  0  0  0  0  0
    1.6926   -3.4064    1.3525 C   0  0  0  0  0  0  0  0  0  0  0  0
    2.6060   -2.9750    1.7654 H   0  0  0  0  0  0  0  0  0  0  0  0
    1.2907   -4.1441    2.0484 H   0  0  0  0  0  0  0  0  0  0  0  0
    1.9329   -3.8949    0.4061 H   0  0  0  0  0  0  0  0  0  0  0  0
  5  6  2  0  0  0  0
  5  7  1  0  0  0  0
  2  3  1  0  0  0  0
  2  4  1  0  0  0  0
  2  5  1  0  0  0  0
  1  2  1  0  0  0  0
 20 21  2  0  0  0  0
 20 22  1  0  0  0  0
 17 18  1  0  0  0  0
 17 19  2  0  0  0  0
 14 15  1  0  0  0  0
 14 16  1  0  0  0  0
 14 17  1  0  0  0  0
 11 12  1  0  0  0  0
 11 13  1  0  0  0  0
 11 14  1  0  0  0  0
  9 10  1  0  0  0  0
  9 11  1  0  0  0  0
  9 20  1  0  0  0  0
  7  8  1  0  0  0  0
  7  9  1  0  0  0  0
 24 25  1  0  0  0  0
 24 26  1  0  0  0  0
 24 27  1  0  0  0  0
 22 23  1  0  0  0  0
 22 24  1  0  0  0  0
M  CHG  1  18  -1
M  END
$$$$
default_name
  -OEChem-01062215323D

 27 26  0     1  0  0  0  0  0999 V2000
   -3.2406   -3.5400    1.2326 H   0  0  0  0  0  0  0  0  0  0  0  0
   -3.1436   -2.6190    0.6606 C   0  0  0  0  0  0  0  0  0  0  0  0
   -3.8786   -1.8920    0.9996 H   0  0  0  0  0  0  0  0  0  0  0  0
   -3.2846   -2.8280   -0.3984 H   0  0  0  0  0  0  0  0  0  0  0  0
   -1.7586   -2.0580    0.8686 C   0  0  0  0  0  0  0  0  0  0  0  0
   -0.9666   -2.6340    1.6026 O   0  0  0  0  0  0  0  0  0  0  0  0
   -1.4866   -0.9220    0.2366 N   0  0  0  0  0  0  0  0  0  0  0  0
   -2.2166   -0.4790   -0.2994 H   0  0  0  0  0  0  0  0  0  0  0  0
   -0.1956   -0.2250    0.2596 C   0  0  1  0  0  0  0  0  0  0  0  0
   -0.0516    0.2796   -0.6961 H   0  0  0  0  0  0  0  0  0  0  0  0
   -0.2253    0.8577    1.3572 C   0  0  0  0  0  0  0  0  0  0  0  0
   -0.5264    0.3811    2.2914 H   0  0  0  0  0  0  0  0  0  0  0  0
    0.7777    1.2668    1.4867 H   0  0  0  0  0  0  0  0  0  0  0  0
   -1.2038    2.0059    1.0580 C   0  0  0  0  0  0  0  0  0  0  0  0
   -0.9150    2.4862    0.1201 H   0  0  0  0  0  0  0  0  0  0  0  0
   -2.2019    1.5802    0.9253 H   0  0  0  0  0  0  0  0  0  0  0  0
   -1.2506    3.0714    2.1633 C   0  0  0  0  0  0  0  0  0  0  0  0
   -0.6233    2.8545    3.2244 O   0  5  0  0  0  0  0  0  0  0  0  0
   -1.9023    4.1098    1.9141 O   0  0  0  0  0  0  0  0  0  0  0  0
    0.9642   -1.2279    0.4316 C   0  0  0  0  0  0  0  0  0  0  0  0
    2.1293   -0.8825    0.2239 O   0  0  0  0  0  0  0  0  0  0  0  0
    0.6527   -2.4665    0.8353 N   0  0  0  0  0  0  0  0  0  0  0  0
   -0.3261   -2.6919    0.9330 H   0  0  0  0  0  0  0  0  0  0  0  0
    1.6286   -3.5361    1.0276 C   0  0  0  0  0  0  0  0  0  0  0  0
    2.4405   -3.1834    1.6659 H   0  0  0  0  0  0  0  0  0  0  0  0
    1.1512   -4.4013    1.4897 H   0  0  0  0  0  0  0  0  0  0  0  0
    2.0441   -3.8256    0.0604 H   0  0  0  0  0  0  0  0  0  0  0  0
  5  6  2  0  0  0  0
  5  7  1  0  0  0  0
  2  3  1  0  0  0  0
  2  4  1  0  0  0  0
  2  5  1  0  0  0  0
  1  2  1  0  0  0  0
 20 21  2  0  0  0  0
 20 22  1  0  0  0  0
 17 18  1  0  0  0  0
 17 19  2  0  0  0  0
 14 15  1  0  0  0  0
 14 16  1  0  0  0  0
 14 17  1  0  0  0  0
 11 12  1  0  0  0  0
 11 13  1  0  0  0  0
 11 14  1  0  0  0  0
  9 10  1  0  0  0  0
  9 11  1  0  0  0  0
  9 20  1  0  0  0  0
  7  8  1  0  0  0  0
  7  9  1  0  0  0  0
 24 25  1  0  0  0  0
 24 26  1  0  0  0  0
 24 27  1  0  0  0  0
 22 23  1  0  0  0  0
 22 24  1  0  0  0  0
M  CHG  1  18  -1
M  END
$$$$
default_name
  -OEChem-01062215323D

 27 26  0     1  0  0  0  0  0999 V2000
   -3.2406   -3.5400    1.2326 H   0  0  0  0  0  0  0  0  0  0  0  0
   -3.1436   -2.6190    0.6606 C   0  0  0  0  0  0  0  0  0  0  0  0
   -3.8786   -1.8920    0.9996 H   0  0  0  0  0  0  0  0  0  0  0  0
   -3.2846   -2.8280   -0.3984 H   0  0  0  0  0  0  0  0  0  0  0  0
   -1.7586   -2.0580    0.8686 C   0  0  0  0  0  0  0  0  0  0  0  0
   -0.9666   -2.6340    1.6026 O   0  0  0  0  0  0  0  0  0  0  0  0
   -1.4866   -0.9220    0.2366 N   0  0  0  0  0  0  0  0  0  0  0  0
   -2.2166   -0.4790   -0.2994 H   0  0  0  0  0  0  0  0  0  0  0  0
   -0.1956   -0.2250    0.2596 C   0  0  1  0  0  0  0  0  0  0  0  0
   -0.0516    0.2796   -0.6961 H   0  0  0  0  0  0  0  0  0  0  0  0
   -0.2253    0.8577    1.3572 C   0  0  0  0  0  0  0  0  0  0  0  0
   -0.5264    0.3811    2.2914 H   0  0  0  0  0  0  0  0  0  0  0  0
    0.7777    1.2668    1.4867 H   0  0  0  0  0  0  0  0  0  0  0  0
   -1.2038    2.0059    1.0580 C   0  0  0  0  0  0  0  0  0  0  0  0
   -0.9150    2.4862    0.1201 H   0  0  0  0  0  0  0  0  0  0  0  0
   -2.2019    1.5802    0.9253 H   0  0  0  0  0  0  0  0  0  0  0  0
   -1.2506    3.0714    2.1633 C   0  0  0  0  0  0  0  0  0  0  0  0
   -0.6233    2.8545    3.2244 O   0  5  0  0  0  0  0  0  0  0  0  0
   -1.9023    4.1098    1.9141 O   0  0  0  0  0  0  0  0  0  0  0  0
    0.9642   -1.2279    0.4316 C   0  0  0  0  0  0  0  0  0  0  0  0
    2.1306   -0.8342    0.4966 O   0  0  0  0  0  0  0  0  0  0  0  0
    0.6469   -2.5254    0.5305 N   0  0  0  0  0  0  0  0  0  0  0  0
   -0.3233   -2.7776    0.4141 H   0  0  0  0  0  0  0  0  0  0  0  0
    1.6252   -3.6000    0.6779 C   0  0  0  0  0  0  0  0  0  0  0  0
    2.3035   -3.3701    1.5013 H   0  0  0  0  0  0  0  0  0  0  0  0
    1.1178   -4.5451    0.8765 H   0  0  0  0  0  0  0  0  0  0  0  0
    2.2076   -3.6882   -0.2413 H   0  0  0  0  0  0  0  0  0  0  0  0
  5  6  2  0  0  0  0
  5  7  1  0  0  0  0
  2  3  1  0  0  0  0
  2  4  1  0  0  0  0
  2  5  1  0  0  0  0
  1  2  1  0  0  0  0
 20 21  2  0  0  0  0
 20 22  1  0  0  0  0
 17 18  1  0  0  0  0
 17 19  2  0  0  0  0
 14 15  1  0  0  0  0
 14 16  1  0  0  0  0
 14 17  1  0  0  0  0
 11 12  1  0  0  0  0
 11 13  1  0  0  0  0
 11 14  1  0  0  0  0
  9 10  1  0  0  0  0
  9 11  1  0  0  0  0
  9 20  1  0  0  0  0
  7  8  1  0  0  0  0
  7  9  1  0  0  0  0
 24 25  1  0  0  0  0
 24 26  1  0  0  0  0
 24 27  1  0  0  0  0
 22 23  1  0  0  0  0
 22 24  1  0  0  0  0
M  CHG  1  18  -1
M  END
$$$$
default_name
  -OEChem-01062215323D

 27 26  0     1  0  0  0  0  0999 V2000
   -3.2406   -3.5400    1.2326 H   0  0  0  0  0  0  0  0  0  0  0  0
   -3.1436   -2.6190    0.6606 C   0  0  0  0  0  0  0  0  0  0  0  0
   -3.8786   -1.8920    0.9996 H   0  0  0  0  0  0  0  0  0  0  0  0
   -3.2846   -2.8280   -0.3984 H   0  0  0  0  0  0  0  0  0  0  0  0
   -1.7586   -2.0580    0.8686 C   0  0  0  0  0  0  0  0  0  0  0  0
   -0.9666   -2.6340    1.6026 O   0  0  0  0  0  0  0  0  0  0  0  0
   -1.4866   -0.9220    0.2366 N   0  0  0  0  0  0  0  0  0  0  0  0
   -2.2166   -0.4790   -0.2994 H   0  0  0  0  0  0  0  0  0  0  0  0
   -0.1956   -0.2250    0.2596 C   0  0  1  0  0  0  0  0  0  0  0  0
   -0.0516    0.2796   -0.6961 H   0  0  0  0  0  0  0  0  0  0  0  0
   -0.2253    0.8577    1.3572 C   0  0  0  0  0  0  0  0  0  0  0  0
   -0.5264    0.3811    2.2914 H   0  0  0  0  0  0  0  0  0  0  0  0
    0.7777    1.2668    1.4867 H   0  0  0  0  0  0  0  0  0  0  0  0
   -1.2038    2.0059    1.0580 C   0  0  0  0  0  0  0  0  0  0  0  0
   -0.9150    2.4862    0.1201 H   0  0  0  0  0  0  0  0  0  0  0  0
   -2.2019    1.5802    0.9253 H   0  0  0  0  0  0  0  0  0  0  0  0
   -1.2506    3.0714    2.1633 C   0  0  0  0  0  0  0  0  0  0  0  0
   -0.6233    2.8545    3.2244 O   0  5  0  0  0  0  0  0  0  0  0  0
   -1.9023    4.1098    1.9141 O   0  0  0  0  0  0  0  0  0  0  0  0
    0.9642   -1.2279    0.4316 C   0  0  0  0  0  0  0  0  0  0  0  0
    2.0847   -0.8405    0.7696 O   0  0  0  0  0  0  0  0  0  0  0  0
    0.6943   -2.5233    0.2237 N   0  0  0  0  0  0  0  0  0  0  0  0
   -0.2309   -2.7594   -0.1033 H   0  0  0  0  0  0  0  0  0  0  0  0
    1.6826   -3.5938    0.3270 C   0  0  0  0  0  0  0  0  0  0  0  0
    2.2042   -3.5223    1.2829 H   0  0  0  0  0  0  0  0  0  0  0  0
    1.1928   -4.5656    0.2506 H   0  0  0  0  0  0  0  0  0  0  0  0
    2.4124   -3.4920   -0.4785 H   0  0  0  0  0  0  0  0  0  0  0  0
  5  6  2  0  0  0  0
  5  7  1  0  0  0  0
  2  3  1  0  0  0  0
  2  4  1  0  0  0  0
  2  5  1  0  0  0  0
  1  2  1  0  0  0  0
 20 21  2  0  0  0  0
 20 22  1  0  0  0  0
 17 18  1  0  0  0  0
 17 19  2  0  0  0  0
 14 15  1  0  0  0  0
 14 16  1  0  0  0  0
 14 17  1  0  0  0  0
 11 12  1  0  0  0  0
 11 13  1  0  0  0  0
 11 14  1  0  0  0  0
  9 10  1  0  0  0  0
  9 11  1  0  0  0  0
  9 20  1  0  0  0  0
  7  8  1  0  0  0  0
  7  9  1  0  0  0  0
 24 25  1  0  0  0  0
 24 26  1  0  0  0  0
 24 27  1  0  0  0  0
 22 23  1  0  0  0  0
 22 24  1  0  0  0  0
M  CHG  1  18  -1
M  END
$$$$
default_name
  -OEChem-01062215323D

 27 26  0     1  0  0  0  0  0999 V2000
   -3.2406   -3.5400    1.2326 H   0  0  0  0  0  0  0  0  0  0  0  0
   -3.1436   -2.6190    0.6606 C   0  0  0  0  0  0  0  0  0  0  0  0
   -3.8786   -1.8920    0.9996 H   0  0  0  0  0  0  0  0  0  0  0  0
   -3.2846   -2.8280   -0.3984 H   0  0  0  0  0  0  0  0  0  0  0  0
   -1.7586   -2.0580    0.8686 C   0  0  0  0  0  0  0  0  0  0  0  0
   -0.9666   -2.6340    1.6026 O   0  0  0  0  0  0  0  0  0  0  0  0
   -1.4866   -0.9220    0.2366 N   0  0  0  0  0  0  0  0  0  0  0  0
   -2.2166   -0.4790   -0.2994 H   0  0  0  0  0  0  0  0  0  0  0  0
   -0.1956   -0.2250    0.2596 C   0  0  1  0  0  0  0  0  0  0  0  0
   -0.0516    0.2796   -0.6961 H   0  0  0  0  0  0  0  0  0  0  0  0
   -0.2253    0.8577    1.3572 C   0  0  0  0  0  0  0  0  0  0  0  0
   -0.5264    0.3811    2.2914 H   0  0  0  0  0  0  0  0  0  0  0  0
    0.7777    1.2668    1.4867 H   0  0  0  0  0  0  0  0  0  0  0  0
   -1.2038    2.0059    1.0580 C   0  0  0  0  0  0  0  0  0  0  0  0
   -0.9150    2.4862    0.1201 H   0  0  0  0  0  0  0  0  0  0  0  0
   -2.2019    1.5802    0.9253 H   0  0  0  0  0  0  0  0  0  0  0  0
   -1.2506    3.0714    2.1633 C   0  0  0  0  0  0  0  0  0  0  0  0
   -0.6233    2.8545    3.2244 O   0  5  0  0  0  0  0  0  0  0  0  0
   -1.9023    4.1098    1.9141 O   0  0  0  0  0  0  0  0  0  0  0  0
    0.9642   -1.2279    0.4316 C   0  0  0  0  0  0  0  0  0  0  0  0
    1.9945   -0.9011    1.0243 O   0  0  0  0  0  0  0  0  0  0  0  0
    0.7916   -2.4601   -0.0644 N   0  0  0  0  0  0  0  0  0  0  0  0
   -0.0550   -2.6384   -0.5839 H   0  0  0  0  0  0  0  0  0  0  0  0
    1.7969   -3.5179   -0.0010 C   0  0  0  0  0  0  0  0  0  0  0  0
    2.1494   -3.6298    1.0257 H   0  0  0  0  0  0  0  0  0  0  0  0
    1.3712   -4.4615   -0.3453 H   0  0  0  0  0  0  0  0  0  0  0  0
    2.6445   -3.2505   -0.6350 H   0  0  0  0  0  0  0  0  0  0  0  0
  5  6  2  0  0  0  0
  5  7  1  0  0  0  0
  2  3  1  0  0  0  0
  2  4  1  0  0  0  0
  2  5  1  0  0  0  0
  1  2  1  0  0  0  0
 20 21  2  0  0  0  0
 20 22  1  0  0  0  0
 17 18  1  0  0  0  0
 17 19  2  0  0  0  0
 14 15  1  0  0  0  0
 14 16  1  0  0  0  0
 14 17  1  0  0  0  0
 11 12  1  0  0  0  0
 11 13  1  0  0  0  0
 11 14  1  0  0  0  0
  9 10  1  0  0  0  0
  9 11  1  0  0  0  0
  9 20  1  0  0  0  0
  7  8  1  0  0  0  0
  7  9  1  0  0  0  0
 24 25  1  0  0  0  0
 24 26  1  0  0  0  0
 24 27  1  0  0  0  0
 22 23  1  0  0  0  0
 22 24  1  0  0  0  0
M  CHG  1  18  -1
M  END
$$$$
default_name
  -OEChem-01062215323D

 27 26  0     1  0  0  0  0  0999 V2000
   -3.2406   -3.5400    1.2326 H   0  0  0  0  0  0  0  0  0  0  0  0
   -3.1436   -2.6190    0.6606 C   0  0  0  0  0  0  0  0  0  0  0  0
   -3.8786   -1.8920    0.9996 H   0  0  0  0  0  0  0  0  0  0  0  0
   -3.2846   -2.8280   -0.3984 H   0  0  0  0  0  0  0  0  0  0  0  0
   -1.7586   -2.0580    0.8686 C   0  0  0  0  0  0  0  0  0  0  0  0
   -0.9666   -2.6340    1.6026 O   0  0  0  0  0  0  0  0  0  0  0  0
   -1.4866   -0.9220    0.2366 N   0  0  0  0  0  0  0  0  0  0  0  0
   -2.2166   -0.4790   -0.2994 H   0  0  0  0  0  0  0  0  0  0  0  0
   -0.1956   -0.2250    0.2596 C   0  0  1  0  0  0  0  0  0  0  0  0
   -0.0516    0.2796   -0.6961 H   0  0  0  0  0  0  0  0  0  0  0  0
   -0.2253    0.8577    1.3572 C   0  0  0  0  0  0  0  0  0  0  0  0
   -0.5264    0.3811    2.2914 H   0  0  0  0  0  0  0  0  0  0  0  0
    0.7777    1.2668    1.4867 H   0  0  0  0  0  0  0  0  0  0  0  0
   -1.2038    2.0059    1.0580 C   0  0  0  0  0  0  0  0  0  0  0  0
   -0.9150    2.4862    0.1201 H   0  0  0  0  0  0  0  0  0  0  0  0
   -2.2019    1.5802    0.9253 H   0  0  0  0  0  0  0  0  0  0  0  0
   -1.2506    3.0714    2.1633 C   0  0  0  0  0  0  0  0  0  0  0  0
   -0.6233    2.8545    3.2244 O   0  5  0  0  0  0  0  0  0  0  0  0
   -1.9023    4.1098    1.9141 O   0  0  0  0  0  0  0  0  0  0  0  0
    0.9642   -1.2279    0.4316 C   0  0  0  0  0  0  0  0  0  0  0  0
    1.8664   -1.0117    1.2435 O   0  0  0  0  0  0  0  0  0  0  0  0
    0.9322   -2.3403   -0.3139 N   0  0  0  0  0  0  0  0  0  0  0  0
    0.1922   -2.4230   -0.9951 H   0  0  0  0  0  0  0  0  0  0  0  0
    1.9602   -3.3774   -0.2839 C   0  0  0  0  0  0  0  0  0  0  0  0
    2.1428   -3.6851    0.7471 H   0  0  0  0  0  0  0  0  0  0  0  0
    1.6408   -4.2398   -0.8707 H   0  0  0  0  0  0  0  0  0  0  0  0
    2.8880   -2.9801   -0.7001 H   0  0  0  0  0  0  0  0  0  0  0  0
  5  6  2  0  0  0  0
  5  7  1  0  0  0  0
  2  3  1  0  0  0  0
  2  4  1  0  0  0  0
  2  5  1  0  0  0  0
  1  2  1  0  0  0  0
 20 21  2  0  0  0  0
 20 22  1  0  0  0  0
 17 18  1  0  0  0  0
 17 19  2  0  0  0  0
 14 15  1  0  0  0  0
 14 16  1  0  0  0  0
 14 17  1  0  0  0  0
 11 12  1  0  0  0  0
 11 13  1  0  0  0  0
 11 14  1  0  0  0  0
  9 10  1  0  0  0  0
  9 11  1  0  0  0  0
  9 20  1  0  0  0  0
  7  8  1  0  0  0  0
  7  9  1  0  0  0  0
 24 25  1  0  0  0  0
 24 26  1  0  0  0  0
 24 27  1  0  0  0  0
 22 23  1  0  0  0  0
 22 24  1  0  0  0  0
M  CHG  1  18  -1
M  END
$$$$
default_name
  -OEChem-01062215323D

 27 26  0     1  0  0  0  0  0999 V2000
   -3.2406   -3.5400    1.2326 H   0  0  0  0  0  0  0  0  0  0  0  0
   -3.1436   -2.6190    0.6606 C   0  0  0  0  0  0  0  0  0  0  0  0
   -3.8786   -1.8920    0.9996 H   0  0  0  0  0  0  0  0  0  0  0  0
   -3.2846   -2.8280   -0.3984 H   0  0  0  0  0  0  0  0  0  0  0  0
   -1.7586   -2.0580    0.8686 C   0  0  0  0  0  0  0  0  0  0  0  0
   -0.9666   -2.6340    1.6026 O   0  0  0  0  0  0  0  0  0  0  0  0
   -1.4866   -0.9220    0.2366 N   0  0  0  0  0  0  0  0  0  0  0  0
   -2.2166   -0.4790   -0.2994 H   0  0  0  0  0  0  0  0  0  0  0  0
   -0.1956   -0.2250    0.2596 C   0  0  1  0  0  0  0  0  0  0  0  0
   -0.0516    0.2796   -0.6961 H   0  0  0  0  0  0  0  0  0  0  0  0
   -0.2253    0.8577    1.3572 C   0  0  0  0  0  0  0  0  0  0  0  0
   -0.5264    0.3811    2.2914 H   0  0  0  0  0  0  0  0  0  0  0  0
    0.7777    1.2668    1.4867 H   0  0  0  0  0  0  0  0  0  0  0  0
   -1.2038    2.0059    1.0580 C   0  0  0  0  0  0  0  0  0  0  0  0
   -0.9150    2.4862    0.1201 H   0  0  0  0  0  0  0  0  0  0  0  0
   -2.2019    1.5802    0.9253 H   0  0  0  0  0  0  0  0  0  0  0  0
   -1.2506    3.0714    2.1633 C   0  0  0  0  0  0  0  0  0  0  0  0
   -0.6233    2.8545    3.2244 O   0  5  0  0  0  0  0  0  0  0  0  0
   -1.9023    4.1098    1.9141 O   0  0  0  0  0  0  0  0  0  0  0  0
    0.9642   -1.2279    0.4316 C   0  0  0  0  0  0  0  0  0  0  0  0
    1.7089   -1.1649    1.4120 O   0  0  0  0  0  0  0  0  0  0  0  0
    1.1066   -2.1719   -0.5079 N   0  0  0  0  0  0  0  0  0  0  0  0
    0.4939   -2.1279   -1.3087 H   0  0  0  0  0  0  0  0  0  0  0  0
    2.1616   -3.1820   -0.5023 C   0  0  0  0  0  0  0  0  0  0  0  0
    2.1850   -3.6846    0.4661 H   0  0  0  0  0  0  0  0  0  0  0  0
    1.9832   -3.9157   -1.2896 H   0  0  0  0  0  0  0  0  0  0  0  0
    3.1264   -2.6991   -0.6695 H   0  0  0  0  0  0  0  0  0  0  0  0
  5  6  2  0  0  0  0
  5  7  1  0  0  0  0
  2  3  1  0  0  0  0
  2  4  1  0  0  0  0
  2  5  1  0  0  0  0
  1  2  1  0  0  0  0
 20 21  2  0  0  0  0
 20 22  1  0  0  0  0
 17 18  1  0  0  0  0
 17 19  2  0  0  0  0
 14 15  1  0  0  0  0
 14 16  1  0  0  0  0
 14 17  1  0  0  0  0
 11 12  1  0  0  0  0
 11 13  1  0  0  0  0
 11 14  1  0  0  0  0
  9 10  1  0  0  0  0
  9 11  1  0  0  0  0
  9 20  1  0  0  0  0
  7  8  1  0  0  0  0
  7  9  1  0  0  0  0
 24 25  1  0  0  0  0
 24 26  1  0  0  0  0
 24 27  1  0  0  0  0
 22 23  1  0  0  0  0
 22 24  1  0  0  0  0
M  CHG  1  18  -1
M  END
$$$$
default_name
  -OEChem-01062215323D

 27 26  0     1  0  0  0  0  0999 V2000
   -3.2406   -3.5400    1.2326 H   0  0  0  0  0  0  0  0  0  0  0  0
   -3.1436   -2.6190    0.6606 C   0  0  0  0  0  0  0  0  0  0  0  0
   -3.8786   -1.8920    0.9996 H   0  0  0  0  0  0  0  0  0  0  0  0
   -3.2846   -2.8280   -0.3984 H   0  0  0  0  0  0  0  0  0  0  0  0
   -1.7586   -2.0580    0.8686 C   0  0  0  0  0  0  0  0  0  0  0  0
   -0.9666   -2.6340    1.6026 O   0  0  0  0  0  0  0  0  0  0  0  0
   -1.4866   -0.9220    0.2366 N   0  0  0  0  0  0  0  0  0  0  0  0
   -2.2166   -0.4790   -0.2994 H   0  0  0  0  0  0  0  0  0  0  0  0
   -0.1956   -0.2250    0.2596 C   0  0  1  0  0  0  0  0  0  0  0  0
   -0.0516    0.2796   -0.6961 H   0  0  0  0  0  0  0  0  0  0  0  0
   -0.2253    0.8577    1.3572 C   0  0  0  0  0  0  0  0  0  0  0  0
   -0.5264    0.3811    2.2914 H   0  0  0  0  0  0  0  0  0  0  0  0
    0.7777    1.2668    1.4867 H   0  0  0  0  0  0  0  0  0  0  0  0
   -1.2038    2.0059    1.0580 C   0  0  0  0  0  0  0  0  0  0  0  0
   -0.9150    2.4862    0.1201 H   0  0  0  0  0  0  0  0  0  0  0  0
   -2.2019    1.5802    0.9253 H   0  0  0  0  0  0  0  0  0  0  0  0
   -1.2506    3.0714    2.1633 C   0  0  0  0  0  0  0  0  0  0  0  0
   -0.6233    2.8545    3.2244 O   0  5  0  0  0  0  0  0  0  0  0  0
   -1.9023    4.1098    1.9141 O   0  0  0  0  0  0  0  0  0  0  0  0
    0.9642   -1.2279    0.4316 C   0  0  0  0  0  0  0  0  0  0  0  0
    1.5328   -1.3503    1.5185 O   0  0  0  0  0  0  0  0  0  0  0  0
    1.3028   -1.9665   -0.6333 N   0  0  0  0  0  0  0  0  0  0  0  0
    0.8297   -1.7730   -1.5035 H   0  0  0  0  0  0  0  0  0  0  0  0
    2.3872   -2.9450   -0.6413 C   0  0  0  0  0  0  0  0  0  0  0  0
    2.2729   -3.6282    0.2019 H   0  0  0  0  0  0  0  0  0  0  0  0
    2.3750   -3.5113   -1.5737 H   0  0  0  0  0  0  0  0  0  0  0  0
    3.3433   -2.4269   -0.5451 H   0  0  0  0  0  0  0  0  0  0  0  0
  5  6  2  0  0  0  0
  5  7  1  0  0  0  0
  2  3  1  0  0  0  0
  2  4  1  0  0  0  0
  2  5  1  0  0  0  0
  1  2  1  0  0  0  0
 20 21  2  0  0  0  0
 20 22  1  0  0  0  0
 17 18  1  0  0  0  0
 17 19  2  0  0  0  0
 14 15  1  0  0  0  0
 14 16  1  0  0  0  0
 14 17  1  0  0  0  0
 11 12  1  0  0  0  0
 11 13  1  0  0  0  0
 11 14  1  0  0  0  0
  9 10  1  0  0  0  0
  9 11  1  0  0  0  0
  9 20  1  0  0  0  0
  7  8  1  0  0  0  0
  7  9  1  0  0  0  0
 24 25  1  0  0  0  0
 24 26  1  0  0  0  0
 24 27  1  0  0  0  0
 22 23  1  0  0  0  0
 22 24  1  0  0  0  0
M  CHG  1  18  -1
M  END
$$$$
default_name
  -OEChem-01062215323D

 27 26  0     1  0  0  0  0  0999 V2000
   -3.2406   -3.5400    1.2326 H   0  0  0  0  0  0  0  0  0  0  0  0
   -3.1436   -2.6190    0.6606 C   0  0  0  0  0  0  0  0  0  0  0  0
   -3.8786   -1.8920    0.9996 H   0  0  0  0  0  0  0  0  0  0  0  0
   -3.2846   -2.8280   -0.3984 H   0  0  0  0  0  0  0  0  0  0  0  0
   -1.7586   -2.0580    0.8686 C   0  0  0  0  0  0  0  0  0  0  0  0
   -0.9666   -2.6340    1.6026 O   0  0  0  0  0  0  0  0  0  0  0  0
   -1.4866   -0.9220    0.2366 N   0  0  0  0  0  0  0  0  0  0  0  0
   -2.2166   -0.4790   -0.2994 H   0  0  0  0  0  0  0  0  0  0  0  0
   -0.1956   -0.2250    0.2596 C   0  0  1  0  0  0  0  0  0  0  0  0
   -0.0516    0.2796   -0.6961 H   0  0  0  0  0  0  0  0  0  0  0  0
   -0.2253    0.8577    1.3572 C   0  0  0  0  0  0  0  0  0  0  0  0
   -0.5264    0.3811    2.2914 H   0  0  0  0  0  0  0  0  0  0  0  0
    0.7777    1.2668    1.4867 H   0  0  0  0  0  0  0  0  0  0  0  0
   -1.2038    2.0059    1.0580 C   0  0  0  0  0  0  0  0  0  0  0  0
   -0.9150    2.4862    0.1201 H   0  0  0  0  0  0  0  0  0  0  0  0
   -2.2019    1.5802    0.9253 H   0  0  0  0  0  0  0  0  0  0  0  0
   -1.2506    3.0714    2.1633 C   0  0  0  0  0  0  0  0  0  0  0  0
   -0.6233    2.8545    3.2244 O   0  5  0  0  0  0  0  0  0  0  0  0
   -1.9023    4.1098    1.9141 O   0  0  0  0  0  0  0  0  0  0  0  0
    0.9642   -1.2279    0.4316 C   0  0  0  0  0  0  0  0  0  0  0  0
    1.3502   -1.5551    1.5557 O   0  0  0  0  0  0  0  0  0  0  0  0
    1.5075   -1.7380   -0.6814 N   0  0  0  0  0  0  0  0  0  0  0  0
    1.1765   -1.3827   -1.5661 H   0  0  0  0  0  0  0  0  0  0  0  0
    2.6217   -2.6824   -0.6916 C   0  0  0  0  0  0  0  0  0  0  0  0
    2.4007   -3.5197   -0.0275 H   0  0  0  0  0  0  0  0  0  0  0  0
    2.7896   -3.0540   -1.7034 H   0  0  0  0  0  0  0  0  0  0  0  0
    3.5242   -2.1818   -0.3355 H   0  0  0  0  0  0  0  0  0  0  0  0
  5  6  2  0  0  0  0
  5  7  1  0  0  0  0
  2  3  1  0  0  0  0
  2  4  1  0  0  0  0
  2  5  1  0  0  0  0
  1  2  1  0  0  0  0
 20 21  2  0  0  0  0
 20 22  1  0  0  0  0
 17 18  1  0  0  0  0
 17 19  2  0  0  0  0
 14 15  1  0  0  0  0
 14 16  1  0  0  0  0
 14 17  1  0  0  0  0
 11 12  1  0  0  0  0
 11 13  1  0  0  0  0
 11 14  1  0  0  0  0
  9 10  1  0  0  0  0
  9 11  1  0  0  0  0
  9 20  1  0  0  0  0
  7  8  1  0  0  0  0
  7  9  1  0  0  0  0
 24 25  1  0  0  0  0
 24 26  1  0  0  0  0
 24 27  1  0  0  0  0
 22 23  1  0  0  0  0
 22 24  1  0  0  0  0
M  CHG  1  18  -1
M  END
$$$$
default_name
  -OEChem-01062215323D

 27 26  0     1  0  0  0  0  0999 V2000
   -3.2406   -3.5400    1.2326 H   0  0  0  0  0  0  0  0  0  0  0  0
   -3.1436   -2.6190    0.6606 C   0  0  0  0  0  0  0  0  0  0  0  0
   -3.8786   -1.8920    0.9996 H   0  0  0  0  0  0  0  0  0  0  0  0
   -3.2846   -2.8280   -0.3984 H   0  0  0  0  0  0  0  0  0  0  0  0
   -1.7586   -2.0580    0.8686 C   0  0  0  0  0  0  0  0  0  0  0  0
   -0.9666   -2.6340    1.6026 O   0  0  0  0  0  0  0  0  0  0  0  0
   -1.4866   -0.9220    0.2366 N   0  0  0  0  0  0  0  0  0  0  0  0
   -2.2166   -0.4790   -0.2994 H   0  0  0  0  0  0  0  0  0  0  0  0
   -0.1956   -0.2250    0.2596 C   0  0  1  0  0  0  0  0  0  0  0  0
   -0.0516    0.2796   -0.6961 H   0  0  0  0  0  0  0  0  0  0  0  0
   -0.2253    0.8577    1.3572 C   0  0  0  0  0  0  0  0  0  0  0  0
   -0.5264    0.3811    2.2914 H   0  0  0  0  0  0  0  0  0  0  0  0
    0.7777    1.2668    1.4867 H   0  0  0  0  0  0  0  0  0  0  0  0
   -1.2038    2.0059    1.0580 C   0  0  0  0  0  0  0  0  0  0  0  0
   -0.9150    2.4862    0.1201 H   0  0  0  0  0  0  0  0  0  0  0  0
   -2.2019    1.5802    0.9253 H   0  0  0  0  0  0  0  0  0  0  0  0
   -1.2506    3.0714    2.1633 C   0  0  0  0  0  0  0  0  0  0  0  0
   -0.6233    2.8545    3.2244 O   0  5  0  0  0  0  0  0  0  0  0  0
   -1.9023    4.1098    1.9141 O   0  0  0  0  0  0  0  0  0  0  0  0
    0.9642   -1.2279    0.4316 C   0  0  0  0  0  0  0  0  0  0  0  0
    1.1735   -1.7654    1.5211 O   0  0  0  0  0  0  0  0  0  0  0  0
    1.7067   -1.5020   -0.6490 N   0  0  0  0  0  0  0  0  0  0  0  0
    1.5108   -0.9834   -1.4923 H   0  0  0  0  0  0  0  0  0  0  0  0
    2.8490   -2.4123   -0.6496 C   0  0  0  0  0  0  0  0  0  0  0  0
    2.5596   -3.3667   -0.2065 H   0  0  0  0  0  0  0  0  0  0  0  0
    3.1987   -2.5752   -1.6701 H   0  0  0  0  0  0  0  0  0  0  0  0
    3.6565   -1.9807   -0.0550 H   0  0  0  0  0  0  0  0  0  0  0  0
  5  6  2  0  0  0  0
  5  7  1  0  0  0  0
  2  3  1  0  0  0  0
  2  4  1  0  0  0  0
  2  5  1  0  0  0  0
  1  2  1  0  0  0  0
 20 21  2  0  0  0  0
 20 22  1  0  0  0  0
 17 18  1  0  0  0  0
 17 19  2  0  0  0  0
 14 15  1  0  0  0  0
 14 16  1  0  0  0  0
 14 17  1  0  0  0  0
 11 12  1  0  0  0  0
 11 13  1  0  0  0  0
 11 14  1  0  0  0  0
  9 10  1  0  0  0  0
  9 11  1  0  0  0  0
  9 20  1  0  0  0  0
  7  8  1  0  0  0  0
  7  9  1  0  0  0  0
 24 25  1  0  0  0  0
 24 26  1  0  0  0  0
 24 27  1  0  0  0  0
 22 23  1  0  0  0  0
 22 24  1  0  0  0  0
M  CHG  1  18  -1
M  END
$$$$
default_name
  -OEChem-01062215323D

 27 26  0     1  0  0  0  0  0999 V2000
   -3.2406   -3.5400    1.2326 H   0  0  0  0  0  0  0  0  0  0  0  0
   -3.1436   -2.6190    0.6606 C   0  0  0  0  0  0  0  0  0  0  0  0
   -3.8786   -1.8920    0.9996 H   0  0  0  0  0  0  0  0  0  0  0  0
   -3.2846   -2.8280   -0.3984 H   0  0  0  0  0  0  0  0  0  0  0  0
   -1.7586   -2.0580    0.8686 C   0  0  0  0  0  0  0  0  0  0  0  0
   -0.9666   -2.6340    1.6026 O   0  0  0  0  0  0  0  0  0  0  0  0
   -1.4866   -0.9220    0.2366 N   0  0  0  0  0  0  0  0  0  0  0  0
   -2.2166   -0.4790   -0.2994 H   0  0  0  0  0  0  0  0  0  0  0  0
   -0.1956   -0.2250    0.2596 C   0  0  1  0  0  0  0  0  0  0  0  0
   -0.0516    0.2796   -0.6961 H   0  0  0  0  0  0  0  0  0  0  0  0
   -0.2253    0.8577    1.3572 C   0  0  0  0  0  0  0  0  0  0  0  0
   -0.5264    0.3811    2.2914 H   0  0  0  0  0  0  0  0  0  0  0  0
    0.7777    1.2668    1.4867 H   0  0  0  0  0  0  0  0  0  0  0  0
   -1.2038    2.0059    1.0580 C   0  0  0  0  0  0  0  0  0  0  0  0
   -0.9150    2.4862    0.1201 H   0  0  0  0  0  0  0  0  0  0  0  0
   -2.2019    1.5802    0.9253 H   0  0  0  0  0  0  0  0  0  0  0  0
   -1.2506    3.0714    2.1633 C   0  0  0  0  0  0  0  0  0  0  0  0
   -0.6233    2.8545    3.2244 O   0  5  0  0  0  0  0  0  0  0  0  0
   -1.9023    4.1098    1.9141 O   0  0  0  0  0  0  0  0  0  0  0  0
    0.9642   -1.2279    0.4316 C   0  0  0  0  0  0  0  0  0  0  0  0
    1.0146   -1.9669    1.4170 O   0  0  0  0  0  0  0  0  0  0  0  0
    1.8869   -1.2747   -0.5382 N   0  0  0  0  0  0  0  0  0  0  0  0
    1.8097   -0.6025   -1.2871 H   0  0  0  0  0  0  0  0  0  0  0  0
    3.0538   -2.1530   -0.5183 C   0  0  0  0  0  0  0  0  0  0  0  0
    2.7388   -3.1794   -0.3229 H   0  0  0  0  0  0  0  0  0  0  0  0
    3.5745   -2.1073   -1.4758 H   0  0  0  0  0  0  0  0  0  0  0  0
    3.7313   -1.8372    0.2774 H   0  0  0  0  0  0  0  0  0  0  0  0
  5  6  2  0  0  0  0
  5  7  1  0  0  0  0
  2  3  1  0  0  0  0
  2  4  1  0  0  0  0
  2  5  1  0  0  0  0
  1  2  1  0  0  0  0
 20 21  2  0  0  0  0
 20 22  1  0  0  0  0
 17 18  1  0  0  0  0
 17 19  2  0  0  0  0
 14 15  1  0  0  0  0
 14 16  1  0  0  0  0
 14 17  1  0  0  0  0
 11 12  1  0  0  0  0
 11 13  1  0  0  0  0
 11 14  1  0  0  0  0
  9 10  1  0  0  0  0
  9 11  1  0  0  0  0
  9 20  1  0  0  0  0
  7  8  1  0  0  0  0
  7  9  1  0  0  0  0
 24 25  1  0  0  0  0
 24 26  1  0  0  0  0
 24 27  1  0  0  0  0
 22 23  1  0  0  0  0
 22 24  1  0  0  0  0
M  CHG  1  18  -1
M  END
$$$$
default_name
  -OEChem-01062215323D

 27 26  0     1  0  0  0  0  0999 V2000
   -3.2406   -3.5400    1.2326 H   0  0  0  0  0  0  0  0  0  0  0  0
   -3.1436   -2.6190    0.6606 C   0  0  0  0  0  0  0  0  0  0  0  0
   -3.8786   -1.8920    0.9996 H   0  0  0  0  0  0  0  0  0  0  0  0
   -3.2846   -2.8280   -0.3984 H   0  0  0  0  0  0  0  0  0  0  0  0
   -1.7586   -2.0580    0.8686 C   0  0  0  0  0  0  0  0  0  0  0  0
   -0.9666   -2.6340    1.6026 O   0  0  0  0  0  0  0  0  0  0  0  0
   -1.4866   -0.9220    0.2366 N   0  0  0  0  0  0  0  0  0  0  0  0
   -2.2166   -0.4790   -0.2994 H   0  0  0  0  0  0  0  0  0  0  0  0
   -0.1956   -0.2250    0.2596 C   0  0  1  0  0  0  0  0  0  0  0  0
   -0.0516    0.2796   -0.6961 H   0  0  0  0  0  0  0  0  0  0  0  0
   -0.2253    0.8577    1.3572 C   0  0  0  0  0  0  0  0  0  0  0  0
   -0.5264    0.3811    2.2914 H   0  0  0  0  0  0  0  0  0  0  0  0
    0.7777    1.2668    1.4867 H   0  0  0  0  0  0  0  0  0  0  0  0
   -1.2038    2.0059    1.0580 C   0  0  0  0  0  0  0  0  0  0  0  0
   -0.9150    2.4862    0.1201 H   0  0  0  0  0  0  0  0  0  0  0  0
   -2.2019    1.5802    0.9253 H   0  0  0  0  0  0  0  0  0  0  0  0
   -1.2506    3.0714    2.1633 C   0  0  0  0  0  0  0  0  0  0  0  0
   -0.6233    2.8545    3.2244 O   0  5  0  0  0  0  0  0  0  0  0  0
   -1.9023    4.1098    1.9141 O   0  0  0  0  0  0  0  0  0  0  0  0
    0.9642   -1.2279    0.4316 C   0  0  0  0  0  0  0  0  0  0  0  0
    0.8846   -2.1459    1.2505 O   0  0  0  0  0  0  0  0  0  0  0  0
    2.0357   -1.0714   -0.3567 N   0  0  0  0  0  0  0  0  0  0  0  0
    2.0530   -0.2659   -0.9645 H   0  0  0  0  0  0  0  0  0  0  0  0
    3.2220   -1.9221   -0.3065 C   0  0  0  0  0  0  0  0  0  0  0  0
    2.9261   -2.9707   -0.3687 H   0  0  0  0  0  0  0  0  0  0  0  0
    3.8912   -1.6824   -1.1340 H   0  0  0  0  0  0  0  0  0  0  0  0
    3.7435   -1.7611    0.6390 H   0  0  0  0  0  0  0  0  0  0  0  0
  5  6  2  0  0  0  0
  5  7  1  0  0  0  0
  2  3  1  0  0  0  0
  2  4  1  0  0  0  0
  2  5  1  0  0  0  0
  1  2  1  0  0  0  0
 20 21  2  0  0  0  0
 20 22  1  0  0  0  0
 17 18  1  0  0  0  0
 17 19  2  0  0  0  0
 14 15  1  0  0  0  0
 14 16  1  0  0  0  0
 14 17  1  0  0  0  0
 11 12  1  0  0  0  0
 11 13  1  0  0  0  0
 11 14  1  0  0  0  0
  9 10  1  0  0  0  0
  9 11  1  0  0  0  0
  9 20  1  0  0  0  0
  7  8  1  0  0  0  0
  7  9  1  0  0  0  0
 24 25  1  0  0  0  0
 24 26  1  0  0  0  0
 24 27  1  0  0  0  0
 22 23  1  0  0  0  0
 22 24  1  0  0  0  0
M  CHG  1  18  -1
M  END
$$$$
default_name
  -OEChem-01062215323D

 27 26  0     1  0  0  0  0  0999 V2000
   -3.2406   -3.5400    1.2326 H   0  0  0  0  0  0  0  0  0  0  0  0
   -3.1436   -2.6190    0.6606 C   0  0  0  0  0  0  0  0  0  0  0  0
   -3.8786   -1.8920    0.9996 H   0  0  0  0  0  0  0  0  0  0  0  0
   -3.2846   -2.8280   -0.3984 H   0  0  0  0  0  0  0  0  0  0  0  0
   -1.7586   -2.0580    0.8686 C   0  0  0  0  0  0  0  0  0  0  0  0
   -0.9666   -2.6340    1.6026 O   0  0  0  0  0  0  0  0  0  0  0  0
   -1.4866   -0.9220    0.2366 N   0  0  0  0  0  0  0  0  0  0  0  0
   -2.2166   -0.4790   -0.2994 H   0  0  0  0  0  0  0  0  0  0  0  0
   -0.1956   -0.2250    0.2596 C   0  0  1  0  0  0  0  0  0  0  0  0
   -0.0516    0.2796   -0.6961 H   0  0  0  0  0  0  0  0  0  0  0  0
   -0.2253    0.8577    1.3572 C   0  0  0  0  0  0  0  0  0  0  0  0
   -0.5264    0.3811    2.2914 H   0  0  0  0  0  0  0  0  0  0  0  0
    0.7777    1.2668    1.4867 H   0  0  0  0  0  0  0  0  0  0  0  0
   -1.2038    2.0059    1.0580 C   0  0  0  0  0  0  0  0  0  0  0  0
   -0.9150    2.4862    0.1201 H   0  0  0  0  0  0  0  0  0  0  0  0
   -2.2019    1.5802    0.9253 H   0  0  0  0  0  0  0  0  0  0  0  0
   -1.2506    3.0714    2.1633 C   0  0  0  0  0  0  0  0  0  0  0  0
   -0.6233    2.8545    3.2244 O   0  5  0  0  0  0  0  0  0  0  0  0
   -1.9023    4.1098    1.9141 O   0  0  0  0  0  0  0  0  0  0  0  0
    0.9642   -1.2279    0.4316 C   0  0  0  0  0  0  0  0  0  0  0  0
    0.7921   -2.2902    1.0330 O   0  0  0  0  0  0  0  0  0  0  0  0
    2.1431   -0.9061   -0.1168 N   0  0  0  0  0  0  0  0  0  0  0  0
    2.2239    0.0035   -0.5464 H   0  0  0  0  0  0  0  0  0  0  0  0
    3.3422   -1.7355   -0.0287 C   0  0  0  0  0  0  0  0  0  0  0  0
    3.1086   -2.7548   -0.3409 H   0  0  0  0  0  0  0  0  0  0  0  0
    4.1275   -1.3293   -0.6678 H   0  0  0  0  0  0  0  0  0  0  0  0
    3.6923   -1.7576    1.0051 H   0  0  0  0  0  0  0  0  0  0  0  0
  5  6  2  0  0  0  0
  5  7  1  0  0  0  0
  2  3  1  0  0  0  0
  2  4  1  0  0  0  0
  2  5  1  0  0  0  0
  1  2  1  0  0  0  0
 20 21  2  0  0  0  0
 20 22  1  0  0  0  0
 17 18  1  0  0  0  0
 17 19  2  0  0  0  0
 14 15  1  0  0  0  0
 14 16  1  0  0  0  0
 14 17  1  0  0  0  0
 11 12  1  0  0  0  0
 11 13  1  0  0  0  0
 11 14  1  0  0  0  0
  9 10  1  0  0  0  0
  9 11  1  0  0  0  0
  9 20  1  0  0  0  0
  7  8  1  0  0  0  0
  7  9  1  0  0  0  0
 24 25  1  0  0  0  0
 24 26  1  0  0  0  0
 24 27  1  0  0  0  0
 22 23  1  0  0  0  0
 22 24  1  0  0  0  0
M  CHG  1  18  -1
M  END
$$$$
default_name
  -OEChem-01062215323D

 27 26  0     1  0  0  0  0  0999 V2000
   -3.2406   -3.5400    1.2326 H   0  0  0  0  0  0  0  0  0  0  0  0
   -3.1436   -2.6190    0.6606 C   0  0  0  0  0  0  0  0  0  0  0  0
   -3.8786   -1.8920    0.9996 H   0  0  0  0  0  0  0  0  0  0  0  0
   -3.2846   -2.8280   -0.3984 H   0  0  0  0  0  0  0  0  0  0  0  0
   -1.7586   -2.0580    0.8686 C   0  0  0  0  0  0  0  0  0  0  0  0
   -0.9666   -2.6340    1.6026 O   0  0  0  0  0  0  0  0  0  0  0  0
   -1.4866   -0.9220    0.2366 N   0  0  0  0  0  0  0  0  0  0  0  0
   -2.2166   -0.4790   -0.2994 H   0  0  0  0  0  0  0  0  0  0  0  0
   -0.1956   -0.2250    0.2596 C   0  0  1  0  0  0  0  0  0  0  0  0
   -0.0516    0.2796   -0.6961 H   0  0  0  0  0  0  0  0  0  0  0  0
   -0.2253    0.8577    1.3572 C   0  0  0  0  0  0  0  0  0  0  0  0
   -0.5264    0.3811    2.2914 H   0  0  0  0  0  0  0  0  0  0  0  0
    0.7777    1.2668    1.4867 H   0  0  0  0  0  0  0  0  0  0  0  0
   -1.2038    2.0059    1.0580 C   0  0  0  0  0  0  0  0  0  0  0  0
   -0.9150    2.4862    0.1201 H   0  0  0  0  0  0  0  0  0  0  0  0
   -2.2019    1.5802    0.9253 H   0  0  0  0  0  0  0  0  0  0  0  0
   -1.2506    3.0714    2.1633 C   0  0  0  0  0  0  0  0  0  0  0  0
   -0.6233    2.8545    3.2244 O   0  5  0  0  0  0  0  0  0  0  0  0
   -1.9023    4.1098    1.9141 O   0  0  0  0  0  0  0  0  0  0  0  0
    0.9642   -1.2279    0.4316 C   0  0  0  0  0  0  0  0  0  0  0  0
    0.7435   -2.3899    0.7792 O   0  0  0  0  0  0  0  0  0  0  0  0
    2.2017   -0.7900    0.1651 N   0  0  0  0  0  0  0  0  0  0  0  0
    2.3110    0.1873   -0.0614 H   0  0  0  0  0  0  0  0  0  0  0  0
    3.4062   -1.6058    0.2961 C   0  0  0  0  0  0  0  0  0  0  0  0
    3.2741   -2.5464   -0.2413 H   0  0  0  0  0  0  0  0  0  0  0  0
    4.2670   -1.0721   -0.1091 H   0  0  0  0  0  0  0  0  0  0  0  0
    3.5811   -1.8269    1.3508 H   0  0  0  0  0  0  0  0  0  0  0  0
  5  6  2  0  0  0  0
  5  7  1  0  0  0  0
  2  3  1  0  0  0  0
  2  4  1  0  0  0  0
  2  5  1  0  0  0  0
  1  2  1  0  0  0  0
 20 21  2  0  0  0  0
 20 22  1  0  0  0  0
 17 18  1  0  0  0  0
 17 19  2  0  0  0  0
 14 15  1  0  0  0  0
 14 16  1  0  0  0  0
 14 17  1  0  0  0  0
 11 12  1  0  0  0  0
 11 13  1  0  0  0  0
 11 14  1  0  0  0  0
  9 10  1  0  0  0  0
  9 11  1  0  0  0  0
  9 20  1  0  0  0  0
  7  8  1  0  0  0  0
  7  9  1  0  0  0  0
 24 25  1  0  0  0  0
 24 26  1  0  0  0  0
 24 27  1  0  0  0  0
 22 23  1  0  0  0  0
 22 24  1  0  0  0  0
M  CHG  1  18  -1
M  END
$$$$
default_name
  -OEChem-01062215323D

 27 26  0     1  0  0  0  0  0999 V2000
   -3.2406   -3.5400    1.2326 H   0  0  0  0  0  0  0  0  0  0  0  0
   -3.1436   -2.6190    0.6606 C   0  0  0  0  0  0  0  0  0  0  0  0
   -3.8786   -1.8920    0.9996 H   0  0  0  0  0  0  0  0  0  0  0  0
   -3.2846   -2.8280   -0.3984 H   0  0  0  0  0  0  0  0  0  0  0  0
   -1.7586   -2.0580    0.8686 C   0  0  0  0  0  0  0  0  0  0  0  0
   -0.9666   -2.6340    1.6026 O   0  0  0  0  0  0  0  0  0  0  0  0
   -1.4866   -0.9220    0.2366 N   0  0  0  0  0  0  0  0  0  0  0  0
   -2.2166   -0.4790   -0.2994 H   0  0  0  0  0  0  0  0  0  0  0  0
   -0.1956   -0.2250    0.2596 C   0  0  1  0  0  0  0  0  0  0  0  0
   -0.1656    0.4863   -0.5662 H   0  0  0  0  0  0  0  0  0  0  0  0
   -0.0786    0.5789    1.5703 C   0  0  0  0  0  0  0  0  0  0  0  0
   -0.2669   -0.1031    2.4009 H   0  0  0  0  0  0  0  0  0  0  0  0
    0.9369    0.9662    1.6658 H   0  0  0  0  0  0  0  0  0  0  0  0
   -1.0748    1.7470    1.6629 C   0  0  0  0  0  0  0  0  0  0  0  0
   -0.8991    2.4333    0.8310 H   0  0  0  0  0  0  0  0  0  0  0  0
   -2.0860    1.3444    1.5599 H   0  0  0  0  0  0  0  0  0  0  0  0
   -0.9740    2.5321    2.9791 C   0  0  0  0  0  0  0  0  0  0  0  0
   -0.2228    2.0910    3.8778 O   0  5  0  0  0  0  0  0  0  0  0  0
   -1.6409    3.5879    3.0550 O   0  0  0  0  0  0  0  0  0  0  0  0
    0.9663   -1.2194    0.0551 C   0  0  0  0  0  0  0  0  0  0  0  0
    0.7428   -2.4188   -0.1212 O   0  0  0  0  0  0  0  0  0  0  0  0
    2.2098   -0.7216    0.0531 N   0  0  0  0  0  0  0  0  0  0  0  0
    2.3184    0.2607    0.2576 H   0  0  0  0  0  0  0  0  0  0  0  0
    3.4161   -1.5291   -0.1091 C   0  0  0  0  0  0  0  0  0  0  0  0
    3.3201   -2.1609   -0.9937 H   0  0  0  0  0  0  0  0  0  0  0  0
    4.2888   -0.8832   -0.2152 H   0  0  0  0  0  0  0  0  0  0  0  0
    3.5439   -2.1691    0.7661 H   0  0  0  0  0  0  0  0  0  0  0  0
  5  6  2  0  0  0  0
  5  7  1  0  0  0  0
  2  3  1  0  0  0  0
  2  4  1  0  0  0  0
  2  5  1  0  0  0  0
  1  2  1  0  0  0  0
 20 21  2  0  0  0  0
 20 22  1  0  0  0  0
 17 18  1  0  0  0  0
 17 19  2  0  0  0  0
 14 15  1  0  0  0  0
 14 16  1  0  0  0  0
 14 17  1  0  0  0  0
 11 12  1  0  0  0  0
 11 13  1  0  0  0  0
 11 14  1  0  0  0  0
  9 10  1  0  0  0  0
  9 11  1  0  0  0  0
  9 20  1  0  0  0  0
  7  8  1  0  0  0  0
  7  9  1  0  0  0  0
 24 25  1  0  0  0  0
 24 26  1  0  0  0  0
 24 27  1  0  0  0  0
 22 23  1  0  0  0  0
 22 24  1  0  0  0  0
M  CHG  1  18  -1
M  END
$$$$
default_name
  -OEChem-01062215323D

 27 26  0     1  0  0  0  0  0999 V2000
   -3.2406   -3.5400    1.2326 H   0  0  0  0  0  0  0  0  0  0  0  0
   -3.1436   -2.6190    0.6606 C   0  0  0  0  0  0  0  0  0  0  0  0
   -3.8786   -1.8920    0.9996 H   0  0  0  0  0  0  0  0  0  0  0  0
   -3.2846   -2.8280   -0.3984 H   0  0  0  0  0  0  0  0  0  0  0  0
   -1.7586   -2.0580    0.8686 C   0  0  0  0  0  0  0  0  0  0  0  0
   -0.9666   -2.6340    1.6026 O   0  0  0  0  0  0  0  0  0  0  0  0
   -1.4866   -0.9220    0.2366 N   0  0  0  0  0  0  0  0  0  0  0  0
   -2.2166   -0.4790   -0.2994 H   0  0  0  0  0  0  0  0  0  0  0  0
   -0.1956   -0.2250    0.2596 C   0  0  1  0  0  0  0  0  0  0  0  0
   -0.1656    0.4863   -0.5662 H   0  0  0  0  0  0  0  0  0  0  0  0
   -0.0786    0.5789    1.5703 C   0  0  0  0  0  0  0  0  0  0  0  0
   -0.2669   -0.1031    2.4009 H   0  0  0  0  0  0  0  0  0  0  0  0
    0.9369    0.9662    1.6658 H   0  0  0  0  0  0  0  0  0  0  0  0
   -1.0748    1.7470    1.6629 C   0  0  0  0  0  0  0  0  0  0  0  0
   -0.8991    2.4333    0.8310 H   0  0  0  0  0  0  0  0  0  0  0  0
   -2.0860    1.3444    1.5599 H   0  0  0  0  0  0  0  0  0  0  0  0
   -0.9740    2.5321    2.9791 C   0  0  0  0  0  0  0  0  0  0  0  0
   -0.2228    2.0910    3.8778 O   0  5  0  0  0  0  0  0  0  0  0  0
   -1.6409    3.5879    3.0550 O   0  0  0  0  0  0  0  0  0  0  0  0
    0.9663   -1.2194    0.0551 C   0  0  0  0  0  0  0  0  0  0  0  0
    0.7548   -2.3497   -0.3891 O   0  0  0  0  0  0  0  0  0  0  0  0
    2.2006   -0.7944    0.3548 N   0  0  0  0  0  0  0  0  0  0  0  0
    2.2903    0.1236    0.7645 H   0  0  0  0  0  0  0  0  0  0  0  0
    3.4024   -1.6160    0.2354 C   0  0  0  0  0  0  0  0  0  0  0  0
    3.4471   -2.0605   -0.7602 H   0  0  0  0  0  0  0  0  0  0  0  0
    4.2918   -1.0069    0.4032 H   0  0  0  0  0  0  0  0  0  0  0  0
    3.3680   -2.4178    0.9756 H   0  0  0  0  0  0  0  0  0  0  0  0
  5  6  2  0  0  0  0
  5  7  1  0  0  0  0
  2  3  1  0  0  0  0
  2  4  1  0  0  0  0
  2  5  1  0  0  0  0
  1  2  1  0  0  0  0
 20 21  2  0  0  0  0
 20 22  1  0  0  0  0
 17 18  1  0  0  0  0
 17 19  2  0  0  0  0
 14 15  1  0  0  0  0
 14 16  1  0  0  0  0
 14 17  1  0  0  0  0
 11 12  1  0  0  0  0
 11 13  1  0  0  0  0
 11 14  1  0  0  0  0
  9 10  1  0  0  0  0
  9 11  1  0  0  0  0
  9 20  1  0  0  0  0
  7  8  1  0  0  0  0
  7  9  1  0  0  0  0
 24 25  1  0  0  0  0
 24 26  1  0  0  0  0
 24 27  1  0  0  0  0
 22 23  1  0  0  0  0
 22 24  1  0  0  0  0
M  CHG  1  18  -1
M  END
$$$$
default_name
  -OEChem-01062215323D

 27 26  0     1  0  0  0  0  0999 V2000
   -3.2406   -3.5400    1.2326 H   0  0  0  0  0  0  0  0  0  0  0  0
   -3.1436   -2.6190    0.6606 C   0  0  0  0  0  0  0  0  0  0  0  0
   -3.8786   -1.8920    0.9996 H   0  0  0  0  0  0  0  0  0  0  0  0
   -3.2846   -2.8280   -0.3984 H   0  0  0  0  0  0  0  0  0  0  0  0
   -1.7586   -2.0580    0.8686 C   0  0  0  0  0  0  0  0  0  0  0  0
   -0.9666   -2.6340    1.6026 O   0  0  0  0  0  0  0  0  0  0  0  0
   -1.4866   -0.9220    0.2366 N   0  0  0  0  0  0  0  0  0  0  0  0
   -2.2166   -0.4790   -0.2994 H   0  0  0  0  0  0  0  0  0  0  0  0
   -0.1956   -0.2250    0.2596 C   0  0  1  0  0  0  0  0  0  0  0  0
   -0.1656    0.4863   -0.5662 H   0  0  0  0  0  0  0  0  0  0  0  0
   -0.0786    0.5789    1.5703 C   0  0  0  0  0  0  0  0  0  0  0  0
   -0.2669   -0.1031    2.4009 H   0  0  0  0  0  0  0  0  0  0  0  0
    0.9369    0.9662    1.6658 H   0  0  0  0  0  0  0  0  0  0  0  0
   -1.0748    1.7470    1.6629 C   0  0  0  0  0  0  0  0  0  0  0  0
   -0.8991    2.4333    0.8310 H   0  0  0  0  0  0  0  0  0  0  0  0
   -2.0860    1.3444    1.5599 H   0  0  0  0  0  0  0  0  0  0  0  0
   -0.9740    2.5321    2.9791 C   0  0  0  0  0  0  0  0  0  0  0  0
   -0.2228    2.0910    3.8778 O   0  5  0  0  0  0  0  0  0  0  0  0
   -1.6409    3.5879    3.0550 O   0  0  0  0  0  0  0  0  0  0  0  0
    0.9663   -1.2194    0.0551 C   0  0  0  0  0  0  0  0  0  0  0  0
    0.8134   -2.2312   -0.6324 O   0  0  0  0  0  0  0  0  0  0  0  0
    2.1390   -0.9231    0.6305 N   0  0  0  0  0  0  0  0  0  0  0  0
    2.1739   -0.1067    1.2227 H   0  0  0  0  0  0  0  0  0  0  0  0
    3.3287   -1.7666    0.5490 C   0  0  0  0  0  0  0  0  0  0  0  0
    3.5343   -2.0133   -0.4940 H   0  0  0  0  0  0  0  0  0  0  0  0
    4.1872   -1.2471    0.9769 H   0  0  0  0  0  0  0  0  0  0  0  0
    3.1546   -2.6928    1.1001 H   0  0  0  0  0  0  0  0  0  0  0  0
  5  6  2  0  0  0  0
  5  7  1  0  0  0  0
  2  3  1  0  0  0  0
  2  4  1  0  0  0  0
  2  5  1  0  0  0  0
  1  2  1  0  0  0  0
 20 21  2  0  0  0  0
 20 22  1  0  0  0  0
 17 18  1  0  0  0  0
 17 19  2  0  0  0  0
 14 15  1  0  0  0  0
 14 16  1  0  0  0  0
 14 17  1  0  0  0  0
 11 12  1  0  0  0  0
 11 13  1  0  0  0  0
 11 14  1  0  0  0  0
  9 10  1  0  0  0  0
  9 11  1  0  0  0  0
  9 20  1  0  0  0  0
  7  8  1  0  0  0  0
  7  9  1  0  0  0  0
 24 25  1  0  0  0  0
 24 26  1  0  0  0  0
 24 27  1  0  0  0  0
 22 23  1  0  0  0  0
 22 24  1  0  0  0  0
M  CHG  1  18  -1
M  END
$$$$
default_name
  -OEChem-01062215323D

 27 26  0     1  0  0  0  0  0999 V2000
   -3.2406   -3.5400    1.2326 H   0  0  0  0  0  0  0  0  0  0  0  0
   -3.1436   -2.6190    0.6606 C   0  0  0  0  0  0  0  0  0  0  0  0
   -3.8786   -1.8920    0.9996 H   0  0  0  0  0  0  0  0  0  0  0  0
   -3.2846   -2.8280   -0.3984 H   0  0  0  0  0  0  0  0  0  0  0  0
   -1.7586   -2.0580    0.8686 C   0  0  0  0  0  0  0  0  0  0  0  0
   -0.9666   -2.6340    1.6026 O   0  0  0  0  0  0  0  0  0  0  0  0
   -1.4866   -0.9220    0.2366 N   0  0  0  0  0  0  0  0  0  0  0  0
   -2.2166   -0.4790   -0.2994 H   0  0  0  0  0  0  0  0  0  0  0  0
   -0.1956   -0.2250    0.2596 C   0  0  1  0  0  0  0  0  0  0  0  0
   -0.1656    0.4863   -0.5662 H   0  0  0  0  0  0  0  0  0  0  0  0
   -0.0786    0.5789    1.5703 C   0  0  0  0  0  0  0  0  0  0  0  0
   -0.2669   -0.1031    2.4009 H   0  0  0  0  0  0  0  0  0  0  0  0
    0.9369    0.9662    1.6658 H   0  0  0  0  0  0  0  0  0  0  0  0
   -1.0748    1.7470    1.6629 C   0  0  0  0  0  0  0  0  0  0  0  0
   -0.8991    2.4333    0.8310 H   0  0  0  0  0  0  0  0  0  0  0  0
   -2.0860    1.3444    1.5599 H   0  0  0  0  0  0  0  0  0  0  0  0
   -0.9740    2.5321    2.9791 C   0  0  0  0  0  0  0  0  0  0  0  0
   -0.2228    2.0910    3.8778 O   0  5  0  0  0  0  0  0  0  0  0  0
   -1.6409    3.5879    3.0550 O   0  0  0  0  0  0  0  0  0  0  0  0
    0.9663   -1.2194    0.0551 C   0  0  0  0  0  0  0  0  0  0  0  0
    0.9147   -2.0712   -0.8345 O   0  0  0  0  0  0  0  0  0  0  0  0
    2.0290   -1.0992    0.8615 N   0  0  0  0  0  0  0  0  0  0  0  0
    1.9771   -0.4145    1.6011 H   0  0  0  0  0  0  0  0  0  0  0  0
    3.2000   -1.9707    0.8102 C   0  0  0  0  0  0  0  0  0  0  0  0
    3.5758   -2.0227   -0.2131 H   0  0  0  0  0  0  0  0  0  0  0  0
    3.9823   -1.5874    1.4669 H   0  0  0  0  0  0  0  0  0  0  0  0
    2.9182   -2.9754    1.1312 H   0  0  0  0  0  0  0  0  0  0  0  0
  5  6  2  0  0  0  0
  5  7  1  0  0  0  0
  2  3  1  0  0  0  0
  2  4  1  0  0  0  0
  2  5  1  0  0  0  0
  1  2  1  0  0  0  0
 20 21  2  0  0  0  0
 20 22  1  0  0  0  0
 17 18  1  0  0  0  0
 17 19  2  0  0  0  0
 14 15  1  0  0  0  0
 14 16  1  0  0  0  0
 14 17  1  0  0  0  0
 11 12  1  0  0  0  0
 11 13  1  0  0  0  0
 11 14  1  0  0  0  0
  9 10  1  0  0  0  0
  9 11  1  0  0  0  0
  9 20  1  0  0  0  0
  7  8  1  0  0  0  0
  7  9  1  0  0  0  0
 24 25  1  0  0  0  0
 24 26  1  0  0  0  0
 24 27  1  0  0  0  0
 22 23  1  0  0  0  0
 22 24  1  0  0  0  0
M  CHG  1  18  -1
M  END
$$$$
default_name
  -OEChem-01062215323D

 27 26  0     1  0  0  0  0  0999 V2000
   -3.2406   -3.5400    1.2326 H   0  0  0  0  0  0  0  0  0  0  0  0
   -3.1436   -2.6190    0.6606 C   0  0  0  0  0  0  0  0  0  0  0  0
   -3.8786   -1.8920    0.9996 H   0  0  0  0  0  0  0  0  0  0  0  0
   -3.2846   -2.8280   -0.3984 H   0  0  0  0  0  0  0  0  0  0  0  0
   -1.7586   -2.0580    0.8686 C   0  0  0  0  0  0  0  0  0  0  0  0
   -0.9666   -2.6340    1.6026 O   0  0  0  0  0  0  0  0  0  0  0  0
   -1.4866   -0.9220    0.2366 N   0  0  0  0  0  0  0  0  0  0  0  0
   -2.2166   -0.4790   -0.2994 H   0  0  0  0  0  0  0  0  0  0  0  0
   -0.1956   -0.2250    0.2596 C   0  0  1  0  0  0  0  0  0  0  0  0
   -0.1656    0.4863   -0.5662 H   0  0  0  0  0  0  0  0  0  0  0  0
   -0.0786    0.5789    1.5703 C   0  0  0  0  0  0  0  0  0  0  0  0
   -0.2669   -0.1031    2.4009 H   0  0  0  0  0  0  0  0  0  0  0  0
    0.9369    0.9662    1.6658 H   0  0  0  0  0  0  0  0  0  0  0  0
   -1.0748    1.7470    1.6629 C   0  0  0  0  0  0  0  0  0  0  0  0
   -0.8991    2.4333    0.8310 H   0  0  0  0  0  0  0  0  0  0  0  0
   -2.0860    1.3444    1.5599 H   0  0  0  0  0  0  0  0  0  0  0  0
   -0.9740    2.5321    2.9791 C   0  0  0  0  0  0  0  0  0  0  0  0
   -0.2228    2.0910    3.8778 O   0  5  0  0  0  0  0  0  0  0  0  0
   -1.6409    3.5879    3.0550 O   0  0  0  0  0  0  0  0  0  0  0  0
    0.9663   -1.2194    0.0551 C   0  0  0  0  0  0  0  0  0  0  0  0
    1.0517   -1.8808   -0.9817 O   0  0  0  0  0  0  0  0  0  0  0  0
    1.8782   -1.3104    1.0319 N   0  0  0  0  0  0  0  0  0  0  0  0
    1.7134   -0.7787    1.8737 H   0  0  0  0  0  0  0  0  0  0  0  0
    3.0252   -2.2143    1.0013 C   0  0  0  0  0  0  0  0  0  0  0  0
    3.5686   -2.0879    0.0634 H   0  0  0  0  0  0  0  0  0  0  0  0
    3.6910   -2.0045    1.8396 H   0  0  0  0  0  0  0  0  0  0  0  0
    2.6750   -3.2463    1.0667 H   0  0  0  0  0  0  0  0  0  0  0  0
  5  6  2  0  0  0  0
  5  7  1  0  0  0  0
  2  3  1  0  0  0  0
  2  4  1  0  0  0  0
  2  5  1  0  0  0  0
  1  2  1  0  0  0  0
 20 21  2  0  0  0  0
 20 22  1  0  0  0  0
 17 18  1  0  0  0  0
 17 19  2  0  0  0  0
 14 15  1  0  0  0  0
 14 16  1  0  0  0  0
 14 17  1  0  0  0  0
 11 12  1  0  0  0  0
 11 13  1  0  0  0  0
 11 14  1  0  0  0  0
  9 10  1  0  0  0  0
  9 11  1  0  0  0  0
  9 20  1  0  0  0  0
  7  8  1  0  0  0  0
  7  9  1  0  0  0  0
 24 25  1  0  0  0  0
 24 26  1  0  0  0  0
 24 27  1  0  0  0  0
 22 23  1  0  0  0  0
 22 24  1  0  0  0  0
M  CHG  1  18  -1
M  END
$$$$
default_name
  -OEChem-01062215323D

 27 26  0     1  0  0  0  0  0999 V2000
   -3.2406   -3.5400    1.2326 H   0  0  0  0  0  0  0  0  0  0  0  0
   -3.1436   -2.6190    0.6606 C   0  0  0  0  0  0  0  0  0  0  0  0
   -3.8786   -1.8920    0.9996 H   0  0  0  0  0  0  0  0  0  0  0  0
   -3.2846   -2.8280   -0.3984 H   0  0  0  0  0  0  0  0  0  0  0  0
   -1.7586   -2.0580    0.8686 C   0  0  0  0  0  0  0  0  0  0  0  0
   -0.9666   -2.6340    1.6026 O   0  0  0  0  0  0  0  0  0  0  0  0
   -1.4866   -0.9220    0.2366 N   0  0  0  0  0  0  0  0  0  0  0  0
   -2.2166   -0.4790   -0.2994 H   0  0  0  0  0  0  0  0  0  0  0  0
   -0.1956   -0.2250    0.2596 C   0  0  1  0  0  0  0  0  0  0  0  0
   -0.1656    0.4863   -0.5662 H   0  0  0  0  0  0  0  0  0  0  0  0
   -0.0786    0.5789    1.5703 C   0  0  0  0  0  0  0  0  0  0  0  0
   -0.2669   -0.1031    2.4009 H   0  0  0  0  0  0  0  0  0  0  0  0
    0.9369    0.9662    1.6658 H   0  0  0  0  0  0  0  0  0  0  0  0
   -1.0748    1.7470    1.6629 C   0  0  0  0  0  0  0  0  0  0  0  0
   -0.8991    2.4333    0.8310 H   0  0  0  0  0  0  0  0  0  0  0  0
   -2.0860    1.3444    1.5599 H   0  0  0  0  0  0  0  0  0  0  0  0
   -0.9740    2.5321    2.9791 C   0  0  0  0  0  0  0  0  0  0  0  0
   -0.2228    2.0910    3.8778 O   0  5  0  0  0  0  0  0  0  0  0  0
   -1.6409    3.5879    3.0550 O   0  0  0  0  0  0  0  0  0  0  0  0
    0.9663   -1.2194    0.0551 C   0  0  0  0  0  0  0  0  0  0  0  0
    1.2152   -1.6730   -1.0639 O   0  0  0  0  0  0  0  0  0  0  0  0
    1.6969   -1.5425    1.1302 N   0  0  0  0  0  0  0  0  0  0  0  0
    1.4007   -1.1747    2.0220 H   0  0  0  0  0  0  0  0  0  0  0  0
    2.8161   -2.4808    1.1092 C   0  0  0  0  0  0  0  0  0  0  0  0
    3.5134   -2.2046    0.3165 H   0  0  0  0  0  0  0  0  0  0  0  0
    3.3331   -2.4700    2.0698 H   0  0  0  0  0  0  0  0  0  0  0  0
    2.4416   -3.4870    0.9111 H   0  0  0  0  0  0  0  0  0  0  0  0
  5  6  2  0  0  0  0
  5  7  1  0  0  0  0
  2  3  1  0  0  0  0
  2  4  1  0  0  0  0
  2  5  1  0  0  0  0
  1  2  1  0  0  0  0
 20 21  2  0  0  0  0
 20 22  1  0  0  0  0
 17 18  1  0  0  0  0
 17 19  2  0  0  0  0
 14 15  1  0  0  0  0
 14 16  1  0  0  0  0
 14 17  1  0  0  0  0
 11 12  1  0  0  0  0
 11 13  1  0  0  0  0
 11 14  1  0  0  0  0
  9 10  1  0  0  0  0
  9 11  1  0  0  0  0
  9 20  1  0  0  0  0
  7  8  1  0  0  0  0
  7  9  1  0  0  0  0
 24 25  1  0  0  0  0
 24 26  1  0  0  0  0
 24 27  1  0  0  0  0
 22 23  1  0  0  0  0
 22 24  1  0  0  0  0
M  CHG  1  18  -1
M  END
$$$$
default_name
  -OEChem-01062215323D

 27 26  0     1  0  0  0  0  0999 V2000
   -3.2406   -3.5400    1.2326 H   0  0  0  0  0  0  0  0  0  0  0  0
   -3.1436   -2.6190    0.6606 C   0  0  0  0  0  0  0  0  0  0  0  0
   -3.8786   -1.8920    0.9996 H   0  0  0  0  0  0  0  0  0  0  0  0
   -3.2846   -2.8280   -0.3984 H   0  0  0  0  0  0  0  0  0  0  0  0
   -1.7586   -2.0580    0.8686 C   0  0  0  0  0  0  0  0  0  0  0  0
   -0.9666   -2.6340    1.6026 O   0  0  0  0  0  0  0  0  0  0  0  0
   -1.4866   -0.9220    0.2366 N   0  0  0  0  0  0  0  0  0  0  0  0
   -2.2166   -0.4790   -0.2994 H   0  0  0  0  0  0  0  0  0  0  0  0
   -0.1956   -0.2250    0.2596 C   0  0  1  0  0  0  0  0  0  0  0  0
   -0.1656    0.4863   -0.5662 H   0  0  0  0  0  0  0  0  0  0  0  0
   -0.0786    0.5789    1.5703 C   0  0  0  0  0  0  0  0  0  0  0  0
   -0.2669   -0.1031    2.4009 H   0  0  0  0  0  0  0  0  0  0  0  0
    0.9369    0.9662    1.6658 H   0  0  0  0  0  0  0  0  0  0  0  0
   -1.0748    1.7470    1.6629 C   0  0  0  0  0  0  0  0  0  0  0  0
   -0.8991    2.4333    0.8310 H   0  0  0  0  0  0  0  0  0  0  0  0
   -2.0860    1.3444    1.5599 H   0  0  0  0  0  0  0  0  0  0  0  0
   -0.9740    2.5321    2.9791 C   0  0  0  0  0  0  0  0  0  0  0  0
   -0.2228    2.0910    3.8778 O   0  5  0  0  0  0  0  0  0  0  0  0
   -1.6409    3.5879    3.0550 O   0  0  0  0  0  0  0  0  0  0  0  0
    0.9663   -1.2194    0.0551 C   0  0  0  0  0  0  0  0  0  0  0  0
    1.3939   -1.4617   -1.0755 O   0  0  0  0  0  0  0  0  0  0  0  0
    1.4974   -1.7797    1.1496 N   0  0  0  0  0  0  0  0  0  0  0  0
    1.0603   -1.5753    2.0360 H   0  0  0  0  0  0  0  0  0  0  0  0
    2.5869   -2.7521    1.1266 C   0  0  0  0  0  0  0  0  0  0  0  0
    3.4138   -2.3647    0.5290 H   0  0  0  0  0  0  0  0  0  0  0  0
    2.9330   -2.9523    2.1416 H   0  0  0  0  0  0  0  0  0  0  0  0
    2.2338   -3.6812    0.6749 H   0  0  0  0  0  0  0  0  0  0  0  0
  5  6  2  0  0  0  0
  5  7  1  0  0  0  0
  2  3  1  0  0  0  0
  2  4  1  0  0  0  0
  2  5  1  0  0  0  0
  1  2  1  0  0  0  0
 20 21  2  0  0  0  0
 20 22  1  0  0  0  0
 17 18  1  0  0  0  0
 17 19  2  0  0  0  0
 14 15  1  0  0  0  0
 14 16  1  0  0  0  0
 14 17  1  0  0  0  0
 11 12  1  0  0  0  0
 11 13  1  0  0  0  0
 11 14  1  0  0  0  0
  9 10  1  0  0  0  0
  9 11  1  0  0  0  0
  9 20  1  0  0  0  0
  7  8  1  0  0  0  0
  7  9  1  0  0  0  0
 24 25  1  0  0  0  0
 24 26  1  0  0  0  0
 24 27  1  0  0  0  0
 22 23  1  0  0  0  0
 22 24  1  0  0  0  0
M  CHG  1  18  -1
M  END
$$$$
default_name
  -OEChem-01062215323D

 27 26  0     1  0  0  0  0  0999 V2000
   -3.2406   -3.5400    1.2326 H   0  0  0  0  0  0  0  0  0  0  0  0
   -3.1436   -2.6190    0.6606 C   0  0  0  0  0  0  0  0  0  0  0  0
   -3.8786   -1.8920    0.9996 H   0  0  0  0  0  0  0  0  0  0  0  0
   -3.2846   -2.8280   -0.3984 H   0  0  0  0  0  0  0  0  0  0  0  0
   -1.7586   -2.0580    0.8686 C   0  0  0  0  0  0  0  0  0  0  0  0
   -0.9666   -2.6340    1.6026 O   0  0  0  0  0  0  0  0  0  0  0  0
   -1.4866   -0.9220    0.2366 N   0  0  0  0  0  0  0  0  0  0  0  0
   -2.2166   -0.4790   -0.2994 H   0  0  0  0  0  0  0  0  0  0  0  0
   -0.1956   -0.2250    0.2596 C   0  0  1  0  0  0  0  0  0  0  0  0
   -0.1656    0.4863   -0.5662 H   0  0  0  0  0  0  0  0  0  0  0  0
   -0.0786    0.5789    1.5703 C   0  0  0  0  0  0  0  0  0  0  0  0
   -0.2669   -0.1031    2.4009 H   0  0  0  0  0  0  0  0  0  0  0  0
    0.9369    0.9662    1.6658 H   0  0  0  0  0  0  0  0  0  0  0  0
   -1.0748    1.7470    1.6629 C   0  0  0  0  0  0  0  0  0  0  0  0
   -0.8991    2.4333    0.8310 H   0  0  0  0  0  0  0  0  0  0  0  0
   -2.0860    1.3444    1.5599 H   0  0  0  0  0  0  0  0  0  0  0  0
   -0.9740    2.5321    2.9791 C   0  0  0  0  0  0  0  0  0  0  0  0
   -0.2228    2.0910    3.8778 O   0  5  0  0  0  0  0  0  0  0  0  0
   -1.6409    3.5879    3.0550 O   0  0  0  0  0  0  0  0  0  0  0  0
    0.9663   -1.2194    0.0551 C   0  0  0  0  0  0  0  0  0  0  0  0
    1.5757   -1.2616   -1.0157 O   0  0  0  0  0  0  0  0  0  0  0  0
    1.2933   -2.0057    1.0889 N   0  0  0  0  0  0  0  0  0  0  0  0
    0.7154   -1.9533    1.9146 H   0  0  0  0  0  0  0  0  0  0  0  0
    2.3534   -3.0098    1.0523 C   0  0  0  0  0  0  0  0  0  0  0  0
    3.2767   -2.5573    0.6865 H   0  0  0  0  0  0  0  0  0  0  0  0
    2.5181   -3.4184    2.0503 H   0  0  0  0  0  0  0  0  0  0  0  0
    2.0658   -3.8156    0.3743 H   0  0  0  0  0  0  0  0  0  0  0  0
  5  6  2  0  0  0  0
  5  7  1  0  0  0  0
  2  3  1  0  0  0  0
  2  4  1  0  0  0  0
  2  5  1  0  0  0  0
  1  2  1  0  0  0  0
 20 21  2  0  0  0  0
 20 22  1  0  0  0  0
 17 18  1  0  0  0  0
 17 19  2  0  0  0  0
 14 15  1  0  0  0  0
 14 16  1  0  0  0  0
 14 17  1  0  0  0  0
 11 12  1  0  0  0  0
 11 13  1  0  0  0  0
 11 14  1  0  0  0  0
  9 10  1  0  0  0  0
  9 11  1  0  0  0  0
  9 20  1  0  0  0  0
  7  8  1  0  0  0  0
  7  9  1  0  0  0  0
 24 25  1  0  0  0  0
 24 26  1  0  0  0  0
 24 27  1  0  0  0  0
 22 23  1  0  0  0  0
 22 24  1  0  0  0  0
M  CHG  1  18  -1
M  END
$$$$
default_name
  -OEChem-01062215323D

 27 26  0     1  0  0  0  0  0999 V2000
   -3.2406   -3.5400    1.2326 H   0  0  0  0  0  0  0  0  0  0  0  0
   -3.1436   -2.6190    0.6606 C   0  0  0  0  0  0  0  0  0  0  0  0
   -3.8786   -1.8920    0.9996 H   0  0  0  0  0  0  0  0  0  0  0  0
   -3.2846   -2.8280   -0.3984 H   0  0  0  0  0  0  0  0  0  0  0  0
   -1.7586   -2.0580    0.8686 C   0  0  0  0  0  0  0  0  0  0  0  0
   -0.9666   -2.6340    1.6026 O   0  0  0  0  0  0  0  0  0  0  0  0
   -1.4866   -0.9220    0.2366 N   0  0  0  0  0  0  0  0  0  0  0  0
   -2.2166   -0.4790   -0.2994 H   0  0  0  0  0  0  0  0  0  0  0  0
   -0.1956   -0.2250    0.2596 C   0  0  1  0  0  0  0  0  0  0  0  0
   -0.1656    0.4863   -0.5662 H   0  0  0  0  0  0  0  0  0  0  0  0
   -0.0786    0.5789    1.5703 C   0  0  0  0  0  0  0  0  0  0  0  0
   -0.2669   -0.1031    2.4009 H   0  0  0  0  0  0  0  0  0  0  0  0
    0.9369    0.9662    1.6658 H   0  0  0  0  0  0  0  0  0  0  0  0
   -1.0748    1.7470    1.6629 C   0  0  0  0  0  0  0  0  0  0  0  0
   -0.8991    2.4333    0.8310 H   0  0  0  0  0  0  0  0  0  0  0  0
   -2.0860    1.3444    1.5599 H   0  0  0  0  0  0  0  0  0  0  0  0
   -0.9740    2.5321    2.9791 C   0  0  0  0  0  0  0  0  0  0  0  0
   -0.2228    2.0910    3.8778 O   0  5  0  0  0  0  0  0  0  0  0  0
   -1.6409    3.5879    3.0550 O   0  0  0  0  0  0  0  0  0  0  0  0
    0.9663   -1.2194    0.0551 C   0  0  0  0  0  0  0  0  0  0  0  0
    1.7482   -1.0862   -0.8887 O   0  0  0  0  0  0  0  0  0  0  0  0
    1.0985   -2.2051    0.9522 N   0  0  0  0  0  0  0  0  0  0  0  0
    0.3896   -2.2830    1.6662 H   0  0  0  0  0  0  0  0  0  0  0  0
    2.1314   -3.2361    0.8914 C   0  0  0  0  0  0  0  0  0  0  0  0
    3.1113   -2.7694    0.7782 H   0  0  0  0  0  0  0  0  0  0  0  0
    2.1165   -3.8366    1.8021 H   0  0  0  0  0  0  0  0  0  0  0  0
    1.9491   -3.8811    0.0297 H   0  0  0  0  0  0  0  0  0  0  0  0
  5  6  2  0  0  0  0
  5  7  1  0  0  0  0
  2  3  1  0  0  0  0
  2  4  1  0  0  0  0
  2  5  1  0  0  0  0
  1  2  1  0  0  0  0
 20 21  2  0  0  0  0
 20 22  1  0  0  0  0
 17 18  1  0  0  0  0
 17 19  2  0  0  0  0
 14 15  1  0  0  0  0
 14 16  1  0  0  0  0
 14 17  1  0  0  0  0
 11 12  1  0  0  0  0
 11 13  1  0  0  0  0
 11 14  1  0  0  0  0
  9 10  1  0  0  0  0
  9 11  1  0  0  0  0
  9 20  1  0  0  0  0
  7  8  1  0  0  0  0
  7  9  1  0  0  0  0
 24 25  1  0  0  0  0
 24 26  1  0  0  0  0
 24 27  1  0  0  0  0
 22 23  1  0  0  0  0
 22 24  1  0  0  0  0
M  CHG  1  18  -1
M  END
$$$$
default_name
  -OEChem-01062215323D

 27 26  0     1  0  0  0  0  0999 V2000
   -3.2406   -3.5400    1.2326 H   0  0  0  0  0  0  0  0  0  0  0  0
   -3.1436   -2.6190    0.6606 C   0  0  0  0  0  0  0  0  0  0  0  0
   -3.8786   -1.8920    0.9996 H   0  0  0  0  0  0  0  0  0  0  0  0
   -3.2846   -2.8280   -0.3984 H   0  0  0  0  0  0  0  0  0  0  0  0
   -1.7586   -2.0580    0.8686 C   0  0  0  0  0  0  0  0  0  0  0  0
   -0.9666   -2.6340    1.6026 O   0  0  0  0  0  0  0  0  0  0  0  0
   -1.4866   -0.9220    0.2366 N   0  0  0  0  0  0  0  0  0  0  0  0
   -2.2166   -0.4790   -0.2994 H   0  0  0  0  0  0  0  0  0  0  0  0
   -0.1956   -0.2250    0.2596 C   0  0  1  0  0  0  0  0  0  0  0  0
   -0.1656    0.4863   -0.5662 H   0  0  0  0  0  0  0  0  0  0  0  0
   -0.0786    0.5789    1.5703 C   0  0  0  0  0  0  0  0  0  0  0  0
   -0.2669   -0.1031    2.4009 H   0  0  0  0  0  0  0  0  0  0  0  0
    0.9369    0.9662    1.6658 H   0  0  0  0  0  0  0  0  0  0  0  0
   -1.0748    1.7470    1.6629 C   0  0  0  0  0  0  0  0  0  0  0  0
   -0.8991    2.4333    0.8310 H   0  0  0  0  0  0  0  0  0  0  0  0
   -2.0860    1.3444    1.5599 H   0  0  0  0  0  0  0  0  0  0  0  0
   -0.9740    2.5321    2.9791 C   0  0  0  0  0  0  0  0  0  0  0  0
   -0.2228    2.0910    3.8778 O   0  5  0  0  0  0  0  0  0  0  0  0
   -1.6409    3.5879    3.0550 O   0  0  0  0  0  0  0  0  0  0  0  0
    0.9663   -1.2194    0.0551 C   0  0  0  0  0  0  0  0  0  0  0  0
    1.8996   -0.9474   -0.7030 O   0  0  0  0  0  0  0  0  0  0  0  0
    0.9263   -2.3644    0.7487 N   0  0  0  0  0  0  0  0  0  0  0  0
    0.1049   -2.5418    1.3076 H   0  0  0  0  0  0  0  0  0  0  0  0
    1.9360   -3.4158    0.6549 C   0  0  0  0  0  0  0  0  0  0  0  0
    2.9290   -2.9864    0.7978 H   0  0  0  0  0  0  0  0  0  0  0  0
    1.7556   -4.1784    1.4138 H   0  0  0  0  0  0  0  0  0  0  0  0
    1.8916   -3.8732   -0.3354 H   0  0  0  0  0  0  0  0  0  0  0  0
  5  6  2  0  0  0  0
  5  7  1  0  0  0  0
  2  3  1  0  0  0  0
  2  4  1  0  0  0  0
  2  5  1  0  0  0  0
  1  2  1  0  0  0  0
 20 21  2  0  0  0  0
 20 22  1  0  0  0  0
 17 18  1  0  0  0  0
 17 19  2  0  0  0  0
 14 15  1  0  0  0  0
 14 16  1  0  0  0  0
 14 17  1  0  0  0  0
 11 12  1  0  0  0  0
 11 13  1  0  0  0  0
 11 14  1  0  0  0  0
  9 10  1  0  0  0  0
  9 11  1  0  0  0  0
  9 20  1  0  0  0  0
  7  8  1  0  0  0  0
  7  9  1  0  0  0  0
 24 25  1  0  0  0  0
 24 26  1  0  0  0  0
 24 27  1  0  0  0  0
 22 23  1  0  0  0  0
 22 24  1  0  0  0  0
M  CHG  1  18  -1
M  END
$$$$
default_name
  -OEChem-01062215323D

 27 26  0     1  0  0  0  0  0999 V2000
   -3.2406   -3.5400    1.2326 H   0  0  0  0  0  0  0  0  0  0  0  0
   -3.1436   -2.6190    0.6606 C   0  0  0  0  0  0  0  0  0  0  0  0
   -3.8786   -1.8920    0.9996 H   0  0  0  0  0  0  0  0  0  0  0  0
   -3.2846   -2.8280   -0.3984 H   0  0  0  0  0  0  0  0  0  0  0  0
   -1.7586   -2.0580    0.8686 C   0  0  0  0  0  0  0  0  0  0  0  0
   -0.9666   -2.6340    1.6026 O   0  0  0  0  0  0  0  0  0  0  0  0
   -1.4866   -0.9220    0.2366 N   0  0  0  0  0  0  0  0  0  0  0  0
   -2.2166   -0.4790   -0.2994 H   0  0  0  0  0  0  0  0  0  0  0  0
   -0.1956   -0.2250    0.2596 C   0  0  1  0  0  0  0  0  0  0  0  0
   -0.1656    0.4863   -0.5662 H   0  0  0  0  0  0  0  0  0  0  0  0
   -0.0786    0.5789    1.5703 C   0  0  0  0  0  0  0  0  0  0  0  0
   -0.2669   -0.1031    2.4009 H   0  0  0  0  0  0  0  0  0  0  0  0
    0.9369    0.9662    1.6658 H   0  0  0  0  0  0  0  0  0  0  0  0
   -1.0748    1.7470    1.6629 C   0  0  0  0  0  0  0  0  0  0  0  0
   -0.8991    2.4333    0.8310 H   0  0  0  0  0  0  0  0  0  0  0  0
   -2.0860    1.3444    1.5599 H   0  0  0  0  0  0  0  0  0  0  0  0
   -0.9740    2.5321    2.9791 C   0  0  0  0  0  0  0  0  0  0  0  0
   -0.2228    2.0910    3.8778 O   0  5  0  0  0  0  0  0  0  0  0  0
   -1.6409    3.5879    3.0550 O   0  0  0  0  0  0  0  0  0  0  0  0
    0.9663   -1.2194    0.0551 C   0  0  0  0  0  0  0  0  0  0  0  0
    2.0197   -0.8547   -0.4713 O   0  0  0  0  0  0  0  0  0  0  0  0
    0.7885   -2.4728    0.4925 N   0  0  0  0  0  0  0  0  0  0  0  0
   -0.1191   -2.7121    0.8633 H   0  0  0  0  0  0  0  0  0  0  0  0
    1.7805   -3.5365    0.3587 C   0  0  0  0  0  0  0  0  0  0  0  0
    2.7422   -3.1937    0.7441 H   0  0  0  0  0  0  0  0  0  0  0  0
    1.4601   -4.4204    0.9120 H   0  0  0  0  0  0  0  0  0  0  0  0
    1.8972   -3.7924   -0.6962 H   0  0  0  0  0  0  0  0  0  0  0  0
  5  6  2  0  0  0  0
  5  7  1  0  0  0  0
  2  3  1  0  0  0  0
  2  4  1  0  0  0  0
  2  5  1  0  0  0  0
  1  2  1  0  0  0  0
 20 21  2  0  0  0  0
 20 22  1  0  0  0  0
 17 18  1  0  0  0  0
 17 19  2  0  0  0  0
 14 15  1  0  0  0  0
 14 16  1  0  0  0  0
 14 17  1  0  0  0  0
 11 12  1  0  0  0  0
 11 13  1  0  0  0  0
 11 14  1  0  0  0  0
  9 10  1  0  0  0  0
  9 11  1  0  0  0  0
  9 20  1  0  0  0  0
  7  8  1  0  0  0  0
  7  9  1  0  0  0  0
 24 25  1  0  0  0  0
 24 26  1  0  0  0  0
 24 27  1  0  0  0  0
 22 23  1  0  0  0  0
 22 24  1  0  0  0  0
M  CHG  1  18  -1
M  END
$$$$
default_name
  -OEChem-01062215323D

 27 26  0     1  0  0  0  0  0999 V2000
   -3.2406   -3.5400    1.2326 H   0  0  0  0  0  0  0  0  0  0  0  0
   -3.1436   -2.6190    0.6606 C   0  0  0  0  0  0  0  0  0  0  0  0
   -3.8786   -1.8920    0.9996 H   0  0  0  0  0  0  0  0  0  0  0  0
   -3.2846   -2.8280   -0.3984 H   0  0  0  0  0  0  0  0  0  0  0  0
   -1.7586   -2.0580    0.8686 C   0  0  0  0  0  0  0  0  0  0  0  0
   -0.9666   -2.6340    1.6026 O   0  0  0  0  0  0  0  0  0  0  0  0
   -1.4866   -0.9220    0.2366 N   0  0  0  0  0  0  0  0  0  0  0  0
   -2.2166   -0.4790   -0.2994 H   0  0  0  0  0  0  0  0  0  0  0  0
   -0.1956   -0.2250    0.2596 C   0  0  1  0  0  0  0  0  0  0  0  0
   -0.1656    0.4863   -0.5662 H   0  0  0  0  0  0  0  0  0  0  0  0
   -0.0786    0.5789    1.5703 C   0  0  0  0  0  0  0  0  0  0  0  0
   -0.2669   -0.1031    2.4009 H   0  0  0  0  0  0  0  0  0  0  0  0
    0.9369    0.9662    1.6658 H   0  0  0  0  0  0  0  0  0  0  0  0
   -1.0748    1.7470    1.6629 C   0  0  0  0  0  0  0  0  0  0  0  0
   -0.8991    2.4333    0.8310 H   0  0  0  0  0  0  0  0  0  0  0  0
   -2.0860    1.3444    1.5599 H   0  0  0  0  0  0  0  0  0  0  0  0
   -0.9740    2.5321    2.9791 C   0  0  0  0  0  0  0  0  0  0  0  0
   -0.2228    2.0910    3.8778 O   0  5  0  0  0  0  0  0  0  0  0  0
   -1.6409    3.5879    3.0550 O   0  0  0  0  0  0  0  0  0  0  0  0
    0.9663   -1.2194    0.0551 C   0  0  0  0  0  0  0  0  0  0  0  0
    2.1003   -0.8145   -0.2095 O   0  0  0  0  0  0  0  0  0  0  0  0
    0.6944   -2.5228    0.2008 N   0  0  0  0  0  0  0  0  0  0  0  0
   -0.2672   -2.7824    0.3636 H   0  0  0  0  0  0  0  0  0  0  0  0
    1.6756   -3.5900    0.0232 C   0  0  0  0  0  0  0  0  0  0  0  0
    2.5637   -3.3769    0.6207 H   0  0  0  0  0  0  0  0  0  0  0  0
    1.2501   -4.5463    0.3307 H   0  0  0  0  0  0  0  0  0  0  0  0
    1.9656   -3.6443   -1.0279 H   0  0  0  0  0  0  0  0  0  0  0  0
  5  6  2  0  0  0  0
  5  7  1  0  0  0  0
  2  3  1  0  0  0  0
  2  4  1  0  0  0  0
  2  5  1  0  0  0  0
  1  2  1  0  0  0  0
 20 21  2  0  0  0  0
 20 22  1  0  0  0  0
 17 18  1  0  0  0  0
 17 19  2  0  0  0  0
 14 15  1  0  0  0  0
 14 16  1  0  0  0  0
 14 17  1  0  0  0  0
 11 12  1  0  0  0  0
 11 13  1  0  0  0  0
 11 14  1  0  0  0  0
  9 10  1  0  0  0  0
  9 11  1  0  0  0  0
  9 20  1  0  0  0  0
  7  8  1  0  0  0  0
  7  9  1  0  0  0  0
 24 25  1  0  0  0  0
 24 26  1  0  0  0  0
 24 27  1  0  0  0  0
 22 23  1  0  0  0  0
 22 24  1  0  0  0  0
M  CHG  1  18  -1
M  END
$$$$
default_name
  -OEChem-01062215323D

 27 26  0     1  0  0  0  0  0999 V2000
   -3.2406   -3.5400    1.2326 H   0  0  0  0  0  0  0  0  0  0  0  0
   -3.1436   -2.6190    0.6606 C   0  0  0  0  0  0  0  0  0  0  0  0
   -3.8786   -1.8920    0.9996 H   0  0  0  0  0  0  0  0  0  0  0  0
   -3.2846   -2.8280   -0.3984 H   0  0  0  0  0  0  0  0  0  0  0  0
   -1.7586   -2.0580    0.8686 C   0  0  0  0  0  0  0  0  0  0  0  0
   -0.9666   -2.6340    1.6026 O   0  0  0  0  0  0  0  0  0  0  0  0
   -1.4866   -0.9220    0.2366 N   0  0  0  0  0  0  0  0  0  0  0  0
   -2.2166   -0.4790   -0.2994 H   0  0  0  0  0  0  0  0  0  0  0  0
   -0.1956   -0.2250    0.2596 C   0  0  1  0  0  0  0  0  0  0  0  0
   -0.1656    0.4863   -0.5662 H   0  0  0  0  0  0  0  0  0  0  0  0
   -0.0786    0.5789    1.5703 C   0  0  0  0  0  0  0  0  0  0  0  0
   -0.2669   -0.1031    2.4009 H   0  0  0  0  0  0  0  0  0  0  0  0
    0.9369    0.9662    1.6658 H   0  0  0  0  0  0  0  0  0  0  0  0
   -1.0748    1.7470    1.6629 C   0  0  0  0  0  0  0  0  0  0  0  0
   -0.8991    2.4333    0.8310 H   0  0  0  0  0  0  0  0  0  0  0  0
   -2.0860    1.3444    1.5599 H   0  0  0  0  0  0  0  0  0  0  0  0
   -0.9740    2.5321    2.9791 C   0  0  0  0  0  0  0  0  0  0  0  0
   -0.2228    2.0910    3.8778 O   0  5  0  0  0  0  0  0  0  0  0  0
   -1.6409    3.5879    3.0550 O   0  0  0  0  0  0  0  0  0  0  0  0
    0.9663   -1.2194    0.0551 C   0  0  0  0  0  0  0  0  0  0  0  0
    2.1358   -0.8295    0.0648 O   0  0  0  0  0  0  0  0  0  0  0  0
    0.6504   -2.5109   -0.1063 N   0  0  0  0  0  0  0  0  0  0  0  0
   -0.3293   -2.7477   -0.1574 H   0  0  0  0  0  0  0  0  0  0  0  0
    1.6284   -3.5728   -0.3288 C   0  0  0  0  0  0  0  0  0  0  0  0
    2.4055   -3.5238    0.4359 H   0  0  0  0  0  0  0  0  0  0  0  0
    1.1398   -4.5474   -0.2902 H   0  0  0  0  0  0  0  0  0  0  0  0
    2.0921   -3.4389   -1.3081 H   0  0  0  0  0  0  0  0  0  0  0  0
  5  6  2  0  0  0  0
  5  7  1  0  0  0  0
  2  3  1  0  0  0  0
  2  4  1  0  0  0  0
  2  5  1  0  0  0  0
  1  2  1  0  0  0  0
 20 21  2  0  0  0  0
 20 22  1  0  0  0  0
 17 18  1  0  0  0  0
 17 19  2  0  0  0  0
 14 15  1  0  0  0  0
 14 16  1  0  0  0  0
 14 17  1  0  0  0  0
 11 12  1  0  0  0  0
 11 13  1  0  0  0  0
 11 14  1  0  0  0  0
  9 10  1  0  0  0  0
  9 11  1  0  0  0  0
  9 20  1  0  0  0  0
  7  8  1  0  0  0  0
  7  9  1  0  0  0  0
 24 25  1  0  0  0  0
 24 26  1  0  0  0  0
 24 27  1  0  0  0  0
 22 23  1  0  0  0  0
 22 24  1  0  0  0  0
M  CHG  1  18  -1
M  END
$$$$
default_name
  -OEChem-01062215323D

 27 26  0     1  0  0  0  0  0999 V2000
   -3.2406   -3.5400    1.2326 H   0  0  0  0  0  0  0  0  0  0  0  0
   -3.1436   -2.6190    0.6606 C   0  0  0  0  0  0  0  0  0  0  0  0
   -3.8786   -1.8920    0.9996 H   0  0  0  0  0  0  0  0  0  0  0  0
   -3.2846   -2.8280   -0.3984 H   0  0  0  0  0  0  0  0  0  0  0  0
   -1.7586   -2.0580    0.8686 C   0  0  0  0  0  0  0  0  0  0  0  0
   -0.9666   -2.6340    1.6026 O   0  0  0  0  0  0  0  0  0  0  0  0
   -1.4866   -0.9220    0.2366 N   0  0  0  0  0  0  0  0  0  0  0  0
   -2.2166   -0.4790   -0.2994 H   0  0  0  0  0  0  0  0  0  0  0  0
   -0.1956   -0.2250    0.2596 C   0  0  1  0  0  0  0  0  0  0  0  0
   -0.1656    0.4863   -0.5662 H   0  0  0  0  0  0  0  0  0  0  0  0
   -0.0786    0.5789    1.5703 C   0  0  0  0  0  0  0  0  0  0  0  0
   -0.2669   -0.1031    2.4009 H   0  0  0  0  0  0  0  0  0  0  0  0
    0.9369    0.9662    1.6658 H   0  0  0  0  0  0  0  0  0  0  0  0
   -1.0748    1.7470    1.6629 C   0  0  0  0  0  0  0  0  0  0  0  0
   -0.8991    2.4333    0.8310 H   0  0  0  0  0  0  0  0  0  0  0  0
   -2.0860    1.3444    1.5599 H   0  0  0  0  0  0  0  0  0  0  0  0
   -0.9740    2.5321    2.9791 C   0  0  0  0  0  0  0  0  0  0  0  0
   -0.2228    2.0910    3.8778 O   0  5  0  0  0  0  0  0  0  0  0  0
   -1.6409    3.5879    3.0550 O   0  0  0  0  0  0  0  0  0  0  0  0
    0.9663   -1.2194    0.0551 C   0  0  0  0  0  0  0  0  0  0  0  0
    2.1238   -0.8986    0.3327 O   0  0  0  0  0  0  0  0  0  0  0  0
    0.6596   -2.4382   -0.4080 N   0  0  0  0  0  0  0  0  0  0  0  0
   -0.3012   -2.6106   -0.6643 H   0  0  0  0  0  0  0  0  0  0  0  0
    1.6421   -3.4858   -0.6733 C   0  0  0  0  0  0  0  0  0  0  0  0
    2.2784   -3.6242    0.2025 H   0  0  0  0  0  0  0  0  0  0  0  0
    1.1368   -4.4236   -0.9087 H   0  0  0  0  0  0  0  0  0  0  0  0
    2.2680   -3.1902   -1.5175 H   0  0  0  0  0  0  0  0  0  0  0  0
  5  6  2  0  0  0  0
  5  7  1  0  0  0  0
  2  3  1  0  0  0  0
  2  4  1  0  0  0  0
  2  5  1  0  0  0  0
  1  2  1  0  0  0  0
 20 21  2  0  0  0  0
 20 22  1  0  0  0  0
 17 18  1  0  0  0  0
 17 19  2  0  0  0  0
 14 15  1  0  0  0  0
 14 16  1  0  0  0  0
 14 17  1  0  0  0  0
 11 12  1  0  0  0  0
 11 13  1  0  0  0  0
 11 14  1  0  0  0  0
  9 10  1  0  0  0  0
  9 11  1  0  0  0  0
  9 20  1  0  0  0  0
  7  8  1  0  0  0  0
  7  9  1  0  0  0  0
 24 25  1  0  0  0  0
 24 26  1  0  0  0  0
 24 27  1  0  0  0  0
 22 23  1  0  0  0  0
 22 24  1  0  0  0  0
M  CHG  1  18  -1
M  END
$$$$
default_name
  -OEChem-01062215323D

 27 26  0     1  0  0  0  0  0999 V2000
   -3.2406   -3.5400    1.2326 H   0  0  0  0  0  0  0  0  0  0  0  0
   -3.1436   -2.6190    0.6606 C   0  0  0  0  0  0  0  0  0  0  0  0
   -3.8786   -1.8920    0.9996 H   0  0  0  0  0  0  0  0  0  0  0  0
   -3.2846   -2.8280   -0.3984 H   0  0  0  0  0  0  0  0  0  0  0  0
   -1.7586   -2.0580    0.8686 C   0  0  0  0  0  0  0  0  0  0  0  0
   -0.9666   -2.6340    1.6026 O   0  0  0  0  0  0  0  0  0  0  0  0
   -1.4866   -0.9220    0.2366 N   0  0  0  0  0  0  0  0  0  0  0  0
   -2.2166   -0.4790   -0.2994 H   0  0  0  0  0  0  0  0  0  0  0  0
   -0.1956   -0.2250    0.2596 C   0  0  1  0  0  0  0  0  0  0  0  0
   -0.1656    0.4863   -0.5662 H   0  0  0  0  0  0  0  0  0  0  0  0
   -0.0786    0.5789    1.5703 C   0  0  0  0  0  0  0  0  0  0  0  0
   -0.2669   -0.1031    2.4009 H   0  0  0  0  0  0  0  0  0  0  0  0
    0.9369    0.9662    1.6658 H   0  0  0  0  0  0  0  0  0  0  0  0
   -1.0748    1.7470    1.6629 C   0  0  0  0  0  0  0  0  0  0  0  0
   -0.8991    2.4333    0.8310 H   0  0  0  0  0  0  0  0  0  0  0  0
   -2.0860    1.3444    1.5599 H   0  0  0  0  0  0  0  0  0  0  0  0
   -0.9740    2.5321    2.9791 C   0  0  0  0  0  0  0  0  0  0  0  0
   -0.2228    2.0910    3.8778 O   0  5  0  0  0  0  0  0  0  0  0  0
   -1.6409    3.5879    3.0550 O   0  0  0  0  0  0  0  0  0  0  0  0
    0.9663   -1.2194    0.0551 C   0  0  0  0  0  0  0  0  0  0  0  0
    2.0652   -1.0171    0.5759 O   0  0  0  0  0  0  0  0  0  0  0  0
    0.7212   -2.3094   -0.6837 N   0  0  0  0  0  0  0  0  0  0  0  0
   -0.1848   -2.3803   -1.1226 H   0  0  0  0  0  0  0  0  0  0  0  0
    1.7158   -3.3352   -0.9868 C   0  0  0  0  0  0  0  0  0  0  0  0
    2.1912   -3.6713   -0.0638 H   0  0  0  0  0  0  0  0  0  0  0  0
    1.2414   -4.1834   -1.4824 H   0  0  0  0  0  0  0  0  0  0  0  0
    2.4814   -2.9152   -1.6421 H   0  0  0  0  0  0  0  0  0  0  0  0
  5  6  2  0  0  0  0
  5  7  1  0  0  0  0
  2  3  1  0  0  0  0
  2  4  1  0  0  0  0
  2  5  1  0  0  0  0
  1  2  1  0  0  0  0
 20 21  2  0  0  0  0
 20 22  1  0  0  0  0
 17 18  1  0  0  0  0
 17 19  2  0  0  0  0
 14 15  1  0  0  0  0
 14 16  1  0  0  0  0
 14 17  1  0  0  0  0
 11 12  1  0  0  0  0
 11 13  1  0  0  0  0
 11 14  1  0  0  0  0
  9 10  1  0  0  0  0
  9 11  1  0  0  0  0
  9 20  1  0  0  0  0
  7  8  1  0  0  0  0
  7  9  1  0  0  0  0
 24 25  1  0  0  0  0
 24 26  1  0  0  0  0
 24 27  1  0  0  0  0
 22 23  1  0  0  0  0
 22 24  1  0  0  0  0
M  CHG  1  18  -1
M  END
$$$$
default_name
  -OEChem-01062215323D

 27 26  0     1  0  0  0  0  0999 V2000
   -3.2406   -3.5400    1.2326 H   0  0  0  0  0  0  0  0  0  0  0  0
   -3.1436   -2.6190    0.6606 C   0  0  0  0  0  0  0  0  0  0  0  0
   -3.8786   -1.8920    0.9996 H   0  0  0  0  0  0  0  0  0  0  0  0
   -3.2846   -2.8280   -0.3984 H   0  0  0  0  0  0  0  0  0  0  0  0
   -1.7586   -2.0580    0.8686 C   0  0  0  0  0  0  0  0  0  0  0  0
   -0.9666   -2.6340    1.6026 O   0  0  0  0  0  0  0  0  0  0  0  0
   -1.4866   -0.9220    0.2366 N   0  0  0  0  0  0  0  0  0  0  0  0
   -2.2166   -0.4790   -0.2994 H   0  0  0  0  0  0  0  0  0  0  0  0
   -0.1956   -0.2250    0.2596 C   0  0  1  0  0  0  0  0  0  0  0  0
   -0.1656    0.4863   -0.5662 H   0  0  0  0  0  0  0  0  0  0  0  0
   -0.0786    0.5789    1.5703 C   0  0  0  0  0  0  0  0  0  0  0  0
   -0.2669   -0.1031    2.4009 H   0  0  0  0  0  0  0  0  0  0  0  0
    0.9369    0.9662    1.6658 H   0  0  0  0  0  0  0  0  0  0  0  0
   -1.0748    1.7470    1.6629 C   0  0  0  0  0  0  0  0  0  0  0  0
   -0.8991    2.4333    0.8310 H   0  0  0  0  0  0  0  0  0  0  0  0
   -2.0860    1.3444    1.5599 H   0  0  0  0  0  0  0  0  0  0  0  0
   -0.9740    2.5321    2.9791 C   0  0  0  0  0  0  0  0  0  0  0  0
   -0.2228    2.0910    3.8778 O   0  5  0  0  0  0  0  0  0  0  0  0
   -1.6409    3.5879    3.0550 O   0  0  0  0  0  0  0  0  0  0  0  0
    0.9663   -1.2194    0.0551 C   0  0  0  0  0  0  0  0  0  0  0  0
    1.9639   -1.1770    0.7781 O   0  0  0  0  0  0  0  0  0  0  0  0
    0.8312   -2.1334   -0.9147 N   0  0  0  0  0  0  0  0  0  0  0  0
    0.0120   -2.0726   -1.5009 H   0  0  0  0  0  0  0  0  0  0  0  0
    1.8445   -3.1312   -1.2480 C   0  0  0  0  0  0  0  0  0  0  0  0
    2.1498   -3.6619   -0.3447 H   0  0  0  0  0  0  0  0  0  0  0  0
    1.4463   -3.8431   -1.9723 H   0  0  0  0  0  0  0  0  0  0  0  0
    2.7177   -2.6326   -1.6732 H   0  0  0  0  0  0  0  0  0  0  0  0
  5  6  2  0  0  0  0
  5  7  1  0  0  0  0
  2  3  1  0  0  0  0
  2  4  1  0  0  0  0
  2  5  1  0  0  0  0
  1  2  1  0  0  0  0
 20 21  2  0  0  0  0
 20 22  1  0  0  0  0
 17 18  1  0  0  0  0
 17 19  2  0  0  0  0
 14 15  1  0  0  0  0
 14 16  1  0  0  0  0
 14 17  1  0  0  0  0
 11 12  1  0  0  0  0
 11 13  1  0  0  0  0
 11 14  1  0  0  0  0
  9 10  1  0  0  0  0
  9 11  1  0  0  0  0
  9 20  1  0  0  0  0
  7  8  1  0  0  0  0
  7  9  1  0  0  0  0
 24 25  1  0  0  0  0
 24 26  1  0  0  0  0
 24 27  1  0  0  0  0
 22 23  1  0  0  0  0
 22 24  1  0  0  0  0
M  CHG  1  18  -1
M  END
$$$$
default_name
  -OEChem-01062215323D

 27 26  0     1  0  0  0  0  0999 V2000
   -3.2406   -3.5400    1.2326 H   0  0  0  0  0  0  0  0  0  0  0  0
   -3.1436   -2.6190    0.6606 C   0  0  0  0  0  0  0  0  0  0  0  0
   -3.8786   -1.8920    0.9996 H   0  0  0  0  0  0  0  0  0  0  0  0
   -3.2846   -2.8280   -0.3984 H   0  0  0  0  0  0  0  0  0  0  0  0
   -1.7586   -2.0580    0.8686 C   0  0  0  0  0  0  0  0  0  0  0  0
   -0.9666   -2.6340    1.6026 O   0  0  0  0  0  0  0  0  0  0  0  0
   -1.4866   -0.9220    0.2366 N   0  0  0  0  0  0  0  0  0  0  0  0
   -2.2166   -0.4790   -0.2994 H   0  0  0  0  0  0  0  0  0  0  0  0
   -0.1956   -0.2250    0.2596 C   0  0  1  0  0  0  0  0  0  0  0  0
   -0.1656    0.4863   -0.5662 H   0  0  0  0  0  0  0  0  0  0  0  0
   -0.0786    0.5789    1.5703 C   0  0  0  0  0  0  0  0  0  0  0  0
   -0.2669   -0.1031    2.4009 H   0  0  0  0  0  0  0  0  0  0  0  0
    0.9369    0.9662    1.6658 H   0  0  0  0  0  0  0  0  0  0  0  0
   -1.0748    1.7470    1.6629 C   0  0  0  0  0  0  0  0  0  0  0  0
   -0.8991    2.4333    0.8310 H   0  0  0  0  0  0  0  0  0  0  0  0
   -2.0860    1.3444    1.5599 H   0  0  0  0  0  0  0  0  0  0  0  0
   -0.9740    2.5321    2.9791 C   0  0  0  0  0  0  0  0  0  0  0  0
   -0.2228    2.0910    3.8778 O   0  5  0  0  0  0  0  0  0  0  0  0
   -1.6409    3.5879    3.0550 O   0  0  0  0  0  0  0  0  0  0  0  0
    0.9663   -1.2194    0.0551 C   0  0  0  0  0  0  0  0  0  0  0  0
    1.8269   -1.3674    0.9252 O   0  0  0  0  0  0  0  0  0  0  0  0
    0.9820   -1.9221   -1.0851 N   0  0  0  0  0  0  0  0  0  0  0  0
    0.2757   -1.7083   -1.7735 H   0  0  0  0  0  0  0  0  0  0  0  0
    2.0193   -2.8875   -1.4391 C   0  0  0  0  0  0  0  0  0  0  0  0
    2.1569   -3.5967   -0.6211 H   0  0  0  0  0  0  0  0  0  0  0  0
    1.7376   -3.4260   -2.3451 H   0  0  0  0  0  0  0  0  0  0  0  0
    2.9609   -2.3617   -1.6087 H   0  0  0  0  0  0  0  0  0  0  0  0
  5  6  2  0  0  0  0
  5  7  1  0  0  0  0
  2  3  1  0  0  0  0
  2  4  1  0  0  0  0
  2  5  1  0  0  0  0
  1  2  1  0  0  0  0
 20 21  2  0  0  0  0
 20 22  1  0  0  0  0
 17 18  1  0  0  0  0
 17 19  2  0  0  0  0
 14 15  1  0  0  0  0
 14 16  1  0  0  0  0
 14 17  1  0  0  0  0
 11 12  1  0  0  0  0
 11 13  1  0  0  0  0
 11 14  1  0  0  0  0
  9 10  1  0  0  0  0
  9 11  1  0  0  0  0
  9 20  1  0  0  0  0
  7  8  1  0  0  0  0
  7  9  1  0  0  0  0
 24 25  1  0  0  0  0
 24 26  1  0  0  0  0
 24 27  1  0  0  0  0
 22 23  1  0  0  0  0
 22 24  1  0  0  0  0
M  CHG  1  18  -1
M  END
$$$$
default_name
  -OEChem-01062215323D

 27 26  0     1  0  0  0  0  0999 V2000
   -3.2406   -3.5400    1.2326 H   0  0  0  0  0  0  0  0  0  0  0  0
   -3.1436   -2.6190    0.6606 C   0  0  0  0  0  0  0  0  0  0  0  0
   -3.8786   -1.8920    0.9996 H   0  0  0  0  0  0  0  0  0  0  0  0
   -3.2846   -2.8280   -0.3984 H   0  0  0  0  0  0  0  0  0  0  0  0
   -1.7586   -2.0580    0.8686 C   0  0  0  0  0  0  0  0  0  0  0  0
   -0.9666   -2.6340    1.6026 O   0  0  0  0  0  0  0  0  0  0  0  0
   -1.4866   -0.9220    0.2366 N   0  0  0  0  0  0  0  0  0  0  0  0
   -2.2166   -0.4790   -0.2994 H   0  0  0  0  0  0  0  0  0  0  0  0
   -0.1956   -0.2250    0.2596 C   0  0  1  0  0  0  0  0  0  0  0  0
   -0.1656    0.4863   -0.5662 H   0  0  0  0  0  0  0  0  0  0  0  0
   -0.0786    0.5789    1.5703 C   0  0  0  0  0  0  0  0  0  0  0  0
   -0.2669   -0.1031    2.4009 H   0  0  0  0  0  0  0  0  0  0  0  0
    0.9369    0.9662    1.6658 H   0  0  0  0  0  0  0  0  0  0  0  0
   -1.0748    1.7470    1.6629 C   0  0  0  0  0  0  0  0  0  0  0  0
   -0.8991    2.4333    0.8310 H   0  0  0  0  0  0  0  0  0  0  0  0
   -2.0860    1.3444    1.5599 H   0  0  0  0  0  0  0  0  0  0  0  0
   -0.9740    2.5321    2.9791 C   0  0  0  0  0  0  0  0  0  0  0  0
   -0.2228    2.0910    3.8778 O   0  5  0  0  0  0  0  0  0  0  0  0
   -1.6409    3.5879    3.0550 O   0  0  0  0  0  0  0  0  0  0  0  0
    0.9663   -1.2194    0.0551 C   0  0  0  0  0  0  0  0  0  0  0  0
    1.6634   -1.5753    1.0074 O   0  0  0  0  0  0  0  0  0  0  0  0
    1.1633   -1.6900   -1.1834 N   0  0  0  0  0  0  0  0  0  0  0  0
    0.5884   -1.3124   -1.9219 H   0  0  0  0  0  0  0  0  0  0  0  0
    2.2284   -2.6210   -1.5470 C   0  0  0  0  0  0  0  0  0  0  0  0
    2.2122   -3.4801   -0.8742 H   0  0  0  0  0  0  0  0  0  0  0  0
    2.0955   -2.9605   -2.5752 H   0  0  0  0  0  0  0  0  0  0  0  0
    3.1944   -2.1210   -1.4531 H   0  0  0  0  0  0  0  0  0  0  0  0
  5  6  2  0  0  0  0
  5  7  1  0  0  0  0
  2  3  1  0  0  0  0
  2  4  1  0  0  0  0
  2  5  1  0  0  0  0
  1  2  1  0  0  0  0
 20 21  2  0  0  0  0
 20 22  1  0  0  0  0
 17 18  1  0  0  0  0
 17 19  2  0  0  0  0
 14 15  1  0  0  0  0
 14 16  1  0  0  0  0
 14 17  1  0  0  0  0
 11 12  1  0  0  0  0
 11 13  1  0  0  0  0
 11 14  1  0  0  0  0
  9 10  1  0  0  0  0
  9 11  1  0  0  0  0
  9 20  1  0  0  0  0
  7  8  1  0  0  0  0
  7  9  1  0  0  0  0
 24 25  1  0  0  0  0
 24 26  1  0  0  0  0
 24 27  1  0  0  0  0
 22 23  1  0  0  0  0
 22 24  1  0  0  0  0
M  CHG  1  18  -1
M  END
$$$$
default_name
  -OEChem-01062215323D

 27 26  0     1  0  0  0  0  0999 V2000
   -3.2406   -3.5400    1.2326 H   0  0  0  0  0  0  0  0  0  0  0  0
   -3.1436   -2.6190    0.6606 C   0  0  0  0  0  0  0  0  0  0  0  0
   -3.8786   -1.8920    0.9996 H   0  0  0  0  0  0  0  0  0  0  0  0
   -3.2846   -2.8280   -0.3984 H   0  0  0  0  0  0  0  0  0  0  0  0
   -1.7586   -2.0580    0.8686 C   0  0  0  0  0  0  0  0  0  0  0  0
   -0.9666   -2.6340    1.6026 O   0  0  0  0  0  0  0  0  0  0  0  0
   -1.4866   -0.9220    0.2366 N   0  0  0  0  0  0  0  0  0  0  0  0
   -2.2166   -0.4790   -0.2994 H   0  0  0  0  0  0  0  0  0  0  0  0
   -0.1956   -0.2250    0.2596 C   0  0  1  0  0  0  0  0  0  0  0  0
   -0.1656    0.4863   -0.5662 H   0  0  0  0  0  0  0  0  0  0  0  0
   -0.0786    0.5789    1.5703 C   0  0  0  0  0  0  0  0  0  0  0  0
   -0.2669   -0.1031    2.4009 H   0  0  0  0  0  0  0  0  0  0  0  0
    0.9369    0.9662    1.6658 H   0  0  0  0  0  0  0  0  0  0  0  0
   -1.0748    1.7470    1.6629 C   0  0  0  0  0  0  0  0  0  0  0  0
   -0.8991    2.4333    0.8310 H   0  0  0  0  0  0  0  0  0  0  0  0
   -2.0860    1.3444    1.5599 H   0  0  0  0  0  0  0  0  0  0  0  0
   -0.9740    2.5321    2.9791 C   0  0  0  0  0  0  0  0  0  0  0  0
   -0.2228    2.0910    3.8778 O   0  5  0  0  0  0  0  0  0  0  0  0
   -1.6409    3.5879    3.0550 O   0  0  0  0  0  0  0  0  0  0  0  0
    0.9663   -1.2194    0.0551 C   0  0  0  0  0  0  0  0  0  0  0  0
    1.4847   -1.7865    1.0190 O   0  0  0  0  0  0  0  0  0  0  0  0
    1.3628   -1.4529   -1.2028 N   0  0  0  0  0  0  0  0  0  0  0  0
    0.9288   -0.9117   -1.9358 H   0  0  0  0  0  0  0  0  0  0  0  0
    2.4576   -2.3497   -1.5645 C   0  0  0  0  0  0  0  0  0  0  0  0
    2.3118   -3.3200   -1.0868 H   0  0  0  0  0  0  0  0  0  0  0  0
    2.4955   -2.4782   -2.6471 H   0  0  0  0  0  0  0  0  0  0  0  0
    3.4021   -1.9268   -1.2169 H   0  0  0  0  0  0  0  0  0  0  0  0
  5  6  2  0  0  0  0
  5  7  1  0  0  0  0
  2  3  1  0  0  0  0
  2  4  1  0  0  0  0
  2  5  1  0  0  0  0
  1  2  1  0  0  0  0
 20 21  2  0  0  0  0
 20 22  1  0  0  0  0
 17 18  1  0  0  0  0
 17 19  2  0  0  0  0
 14 15  1  0  0  0  0
 14 16  1  0  0  0  0
 14 17  1  0  0  0  0
 11 12  1  0  0  0  0
 11 13  1  0  0  0  0
 11 14  1  0  0  0  0
  9 10  1  0  0  0  0
  9 11  1  0  0  0  0
  9 20  1  0  0  0  0
  7  8  1  0  0  0  0
  7  9  1  0  0  0  0
 24 25  1  0  0  0  0
 24 26  1  0  0  0  0
 24 27  1  0  0  0  0
 22 23  1  0  0  0  0
 22 24  1  0  0  0  0
M  CHG  1  18  -1
M  END
$$$$
default_name
  -OEChem-01062215323D

 27 26  0     1  0  0  0  0  0999 V2000
   -3.2406   -3.5400    1.2326 H   0  0  0  0  0  0  0  0  0  0  0  0
   -3.1436   -2.6190    0.6606 C   0  0  0  0  0  0  0  0  0  0  0  0
   -3.8786   -1.8920    0.9996 H   0  0  0  0  0  0  0  0  0  0  0  0
   -3.2846   -2.8280   -0.3984 H   0  0  0  0  0  0  0  0  0  0  0  0
   -1.7586   -2.0580    0.8686 C   0  0  0  0  0  0  0  0  0  0  0  0
   -0.9666   -2.6340    1.6026 O   0  0  0  0  0  0  0  0  0  0  0  0
   -1.4866   -0.9220    0.2366 N   0  0  0  0  0  0  0  0  0  0  0  0
   -2.2166   -0.4790   -0.2994 H   0  0  0  0  0  0  0  0  0  0  0  0
   -0.1956   -0.2250    0.2596 C   0  0  1  0  0  0  0  0  0  0  0  0
   -0.1656    0.4863   -0.5662 H   0  0  0  0  0  0  0  0  0  0  0  0
   -0.0786    0.5789    1.5703 C   0  0  0  0  0  0  0  0  0  0  0  0
   -0.2669   -0.1031    2.4009 H   0  0  0  0  0  0  0  0  0  0  0  0
    0.9369    0.9662    1.6658 H   0  0  0  0  0  0  0  0  0  0  0  0
   -1.0748    1.7470    1.6629 C   0  0  0  0  0  0  0  0  0  0  0  0
   -0.8991    2.4333    0.8310 H   0  0  0  0  0  0  0  0  0  0  0  0
   -2.0860    1.3444    1.5599 H   0  0  0  0  0  0  0  0  0  0  0  0
   -0.9740    2.5321    2.9791 C   0  0  0  0  0  0  0  0  0  0  0  0
   -0.2228    2.0910    3.8778 O   0  5  0  0  0  0  0  0  0  0  0  0
   -1.6409    3.5879    3.0550 O   0  0  0  0  0  0  0  0  0  0  0  0
    0.9663   -1.2194    0.0551 C   0  0  0  0  0  0  0  0  0  0  0  0
    1.3029   -1.9867    0.9593 O   0  0  0  0  0  0  0  0  0  0  0  0
    1.5669   -1.2269   -1.1421 N   0  0  0  0  0  0  0  0  0  0  0  0
    1.2737   -0.5337   -1.8145 H   0  0  0  0  0  0  0  0  0  0  0  0
    2.6911   -2.0920   -1.4902 C   0  0  0  0  0  0  0  0  0  0  0  0
    2.4489   -3.1273   -1.2442 H   0  0  0  0  0  0  0  0  0  0  0  0
    2.9105   -2.0121   -2.5558 H   0  0  0  0  0  0  0  0  0  0  0  0
    3.5701   -1.7923   -0.9163 H   0  0  0  0  0  0  0  0  0  0  0  0
  5  6  2  0  0  0  0
  5  7  1  0  0  0  0
  2  3  1  0  0  0  0
  2  4  1  0  0  0  0
  2  5  1  0  0  0  0
  1  2  1  0  0  0  0
 20 21  2  0  0  0  0
 20 22  1  0  0  0  0
 17 18  1  0  0  0  0
 17 19  2  0  0  0  0
 14 15  1  0  0  0  0
 14 16  1  0  0  0  0
 14 17  1  0  0  0  0
 11 12  1  0  0  0  0
 11 13  1  0  0  0  0
 11 14  1  0  0  0  0
  9 10  1  0  0  0  0
  9 11  1  0  0  0  0
  9 20  1  0  0  0  0
  7  8  1  0  0  0  0
  7  9  1  0  0  0  0
 24 25  1  0  0  0  0
 24 26  1  0  0  0  0
 24 27  1  0  0  0  0
 22 23  1  0  0  0  0
 22 24  1  0  0  0  0
M  CHG  1  18  -1
M  END
$$$$
default_name
  -OEChem-01062215323D

 27 26  0     1  0  0  0  0  0999 V2000
   -3.2406   -3.5400    1.2326 H   0  0  0  0  0  0  0  0  0  0  0  0
   -3.1436   -2.6190    0.6606 C   0  0  0  0  0  0  0  0  0  0  0  0
   -3.8786   -1.8920    0.9996 H   0  0  0  0  0  0  0  0  0  0  0  0
   -3.2846   -2.8280   -0.3984 H   0  0  0  0  0  0  0  0  0  0  0  0
   -1.7586   -2.0580    0.8686 C   0  0  0  0  0  0  0  0  0  0  0  0
   -0.9666   -2.6340    1.6026 O   0  0  0  0  0  0  0  0  0  0  0  0
   -1.4866   -0.9220    0.2366 N   0  0  0  0  0  0  0  0  0  0  0  0
   -2.2166   -0.4790   -0.2994 H   0  0  0  0  0  0  0  0  0  0  0  0
   -0.1956   -0.2250    0.2596 C   0  0  1  0  0  0  0  0  0  0  0  0
   -0.1656    0.4863   -0.5662 H   0  0  0  0  0  0  0  0  0  0  0  0
   -0.0786    0.5789    1.5703 C   0  0  0  0  0  0  0  0  0  0  0  0
   -0.2669   -0.1031    2.4009 H   0  0  0  0  0  0  0  0  0  0  0  0
    0.9369    0.9662    1.6658 H   0  0  0  0  0  0  0  0  0  0  0  0
   -1.0748    1.7470    1.6629 C   0  0  0  0  0  0  0  0  0  0  0  0
   -0.8991    2.4333    0.8310 H   0  0  0  0  0  0  0  0  0  0  0  0
   -2.0860    1.3444    1.5599 H   0  0  0  0  0  0  0  0  0  0  0  0
   -0.9740    2.5321    2.9791 C   0  0  0  0  0  0  0  0  0  0  0  0
   -0.2228    2.0910    3.8778 O   0  5  0  0  0  0  0  0  0  0  0  0
   -1.6409    3.5879    3.0550 O   0  0  0  0  0  0  0  0  0  0  0  0
    0.9663   -1.2194    0.0551 C   0  0  0  0  0  0  0  0  0  0  0  0
    1.1304   -2.1621    0.8322 O   0  0  0  0  0  0  0  0  0  0  0  0
    1.7617   -1.0274   -1.0054 N   0  0  0  0  0  0  0  0  0  0  0  0
    1.5995   -0.2041   -1.5660 H   0  0  0  0  0  0  0  0  0  0  0  0
    2.9131   -1.8657   -1.3293 C   0  0  0  0  0  0  0  0  0  0  0  0
    2.6142   -2.9153   -1.3359 H   0  0  0  0  0  0  0  0  0  0  0  0
    3.3121   -1.5939   -2.3076 H   0  0  0  0  0  0  0  0  0  0  0  0
    3.6868   -1.7269   -0.5716 H   0  0  0  0  0  0  0  0  0  0  0  0
  5  6  2  0  0  0  0
  5  7  1  0  0  0  0
  2  3  1  0  0  0  0
  2  4  1  0  0  0  0
  2  5  1  0  0  0  0
  1  2  1  0  0  0  0
 20 21  2  0  0  0  0
 20 22  1  0  0  0  0
 17 18  1  0  0  0  0
 17 19  2  0  0  0  0
 14 15  1  0  0  0  0
 14 16  1  0  0  0  0
 14 17  1  0  0  0  0
 11 12  1  0  0  0  0
 11 13  1  0  0  0  0
 11 14  1  0  0  0  0
  9 10  1  0  0  0  0
  9 11  1  0  0  0  0
  9 20  1  0  0  0  0
  7  8  1  0  0  0  0
  7  9  1  0  0  0  0
 24 25  1  0  0  0  0
 24 26  1  0  0  0  0
 24 27  1  0  0  0  0
 22 23  1  0  0  0  0
 22 24  1  0  0  0  0
M  CHG  1  18  -1
M  END
$$$$
default_name
  -OEChem-01062215323D

 27 26  0     1  0  0  0  0  0999 V2000
   -3.2406   -3.5400    1.2326 H   0  0  0  0  0  0  0  0  0  0  0  0
   -3.1436   -2.6190    0.6606 C   0  0  0  0  0  0  0  0  0  0  0  0
   -3.8786   -1.8920    0.9996 H   0  0  0  0  0  0  0  0  0  0  0  0
   -3.2846   -2.8280   -0.3984 H   0  0  0  0  0  0  0  0  0  0  0  0
   -1.7586   -2.0580    0.8686 C   0  0  0  0  0  0  0  0  0  0  0  0
   -0.9666   -2.6340    1.6026 O   0  0  0  0  0  0  0  0  0  0  0  0
   -1.4866   -0.9220    0.2366 N   0  0  0  0  0  0  0  0  0  0  0  0
   -2.2166   -0.4790   -0.2994 H   0  0  0  0  0  0  0  0  0  0  0  0
   -0.1956   -0.2250    0.2596 C   0  0  1  0  0  0  0  0  0  0  0  0
   -0.1656    0.4863   -0.5662 H   0  0  0  0  0  0  0  0  0  0  0  0
   -0.0786    0.5789    1.5703 C   0  0  0  0  0  0  0  0  0  0  0  0
   -0.2669   -0.1031    2.4009 H   0  0  0  0  0  0  0  0  0  0  0  0
    0.9369    0.9662    1.6658 H   0  0  0  0  0  0  0  0  0  0  0  0
   -1.0748    1.7470    1.6629 C   0  0  0  0  0  0  0  0  0  0  0  0
   -0.8991    2.4333    0.8310 H   0  0  0  0  0  0  0  0  0  0  0  0
   -2.0860    1.3444    1.5599 H   0  0  0  0  0  0  0  0  0  0  0  0
   -0.9740    2.5321    2.9791 C   0  0  0  0  0  0  0  0  0  0  0  0
   -0.2228    2.0910    3.8778 O   0  5  0  0  0  0  0  0  0  0  0  0
   -1.6409    3.5879    3.0550 O   0  0  0  0  0  0  0  0  0  0  0  0
    0.9663   -1.2194    0.0551 C   0  0  0  0  0  0  0  0  0  0  0  0
    0.9790   -2.3009    0.6465 O   0  0  0  0  0  0  0  0  0  0  0  0
    1.9339   -0.8681   -0.8020 N   0  0  0  0  0  0  0  0  0  0  0  0
    1.8842    0.0547   -1.2075 H   0  0  0  0  0  0  0  0  0  0  0  0
    3.1085   -1.6861   -1.0927 C   0  0  0  0  0  0  0  0  0  0  0  0
    2.7965   -2.6982   -1.3556 H   0  0  0  0  0  0  0  0  0  0  0  0
    3.6730   -1.2522   -1.9193 H   0  0  0  0  0  0  0  0  0  0  0  0
    3.7444   -1.7348   -0.2065 H   0  0  0  0  0  0  0  0  0  0  0  0
  5  6  2  0  0  0  0
  5  7  1  0  0  0  0
  2  3  1  0  0  0  0
  2  4  1  0  0  0  0
  2  5  1  0  0  0  0
  1  2  1  0  0  0  0
 20 21  2  0  0  0  0
 20 22  1  0  0  0  0
 17 18  1  0  0  0  0
 17 19  2  0  0  0  0
 14 15  1  0  0  0  0
 14 16  1  0  0  0  0
 14 17  1  0  0  0  0
 11 12  1  0  0  0  0
 11 13  1  0  0  0  0
 11 14  1  0  0  0  0
  9 10  1  0  0  0  0
  9 11  1  0  0  0  0
  9 20  1  0  0  0  0
  7  8  1  0  0  0  0
  7  9  1  0  0  0  0
 24 25  1  0  0  0  0
 24 26  1  0  0  0  0
 24 27  1  0  0  0  0
 22 23  1  0  0  0  0
 22 24  1  0  0  0  0
M  CHG  1  18  -1
M  END
$$$$
default_name
  -OEChem-01062215323D

 27 26  0     1  0  0  0  0  0999 V2000
   -3.2406   -3.5400    1.2326 H   0  0  0  0  0  0  0  0  0  0  0  0
   -3.1436   -2.6190    0.6606 C   0  0  0  0  0  0  0  0  0  0  0  0
   -3.8786   -1.8920    0.9996 H   0  0  0  0  0  0  0  0  0  0  0  0
   -3.2846   -2.8280   -0.3984 H   0  0  0  0  0  0  0  0  0  0  0  0
   -1.7586   -2.0580    0.8686 C   0  0  0  0  0  0  0  0  0  0  0  0
   -0.9666   -2.6340    1.6026 O   0  0  0  0  0  0  0  0  0  0  0  0
   -1.4866   -0.9220    0.2366 N   0  0  0  0  0  0  0  0  0  0  0  0
   -2.2166   -0.4790   -0.2994 H   0  0  0  0  0  0  0  0  0  0  0  0
   -0.1956   -0.2250    0.2596 C   0  0  1  0  0  0  0  0  0  0  0  0
   -0.1656    0.4863   -0.5662 H   0  0  0  0  0  0  0  0  0  0  0  0
   -0.0786    0.5789    1.5703 C   0  0  0  0  0  0  0  0  0  0  0  0
   -0.2669   -0.1031    2.4009 H   0  0  0  0  0  0  0  0  0  0  0  0
    0.9369    0.9662    1.6658 H   0  0  0  0  0  0  0  0  0  0  0  0
   -1.0748    1.7470    1.6629 C   0  0  0  0  0  0  0  0  0  0  0  0
   -0.8991    2.4333    0.8310 H   0  0  0  0  0  0  0  0  0  0  0  0
   -2.0860    1.3444    1.5599 H   0  0  0  0  0  0  0  0  0  0  0  0
   -0.9740    2.5321    2.9791 C   0  0  0  0  0  0  0  0  0  0  0  0
   -0.2228    2.0910    3.8778 O   0  5  0  0  0  0  0  0  0  0  0  0
   -1.6409    3.5879    3.0550 O   0  0  0  0  0  0  0  0  0  0  0  0
    0.9663   -1.2194    0.0551 C   0  0  0  0  0  0  0  0  0  0  0  0
    0.8589   -2.3935    0.4149 O   0  0  0  0  0  0  0  0  0  0  0  0
    2.0717   -0.7597   -0.5457 N   0  0  0  0  0  0  0  0  0  0  0  0
    2.1082    0.2251   -0.7632 H   0  0  0  0  0  0  0  0  0  0  0  0
    3.2640   -1.5653   -0.7965 C   0  0  0  0  0  0  0  0  0  0  0  0
    2.9833   -2.4910   -1.3019 H   0  0  0  0  0  0  0  0  0  0  0  0
    3.9685   -1.0101   -1.4174 H   0  0  0  0  0  0  0  0  0  0  0  0
    3.7387   -1.8156    0.1542 H   0  0  0  0  0  0  0  0  0  0  0  0
  5  6  2  0  0  0  0
  5  7  1  0  0  0  0
  2  3  1  0  0  0  0
  2  4  1  0  0  0  0
  2  5  1  0  0  0  0
  1  2  1  0  0  0  0
 20 21  2  0  0  0  0
 20 22  1  0  0  0  0
 17 18  1  0  0  0  0
 17 19  2  0  0  0  0
 14 15  1  0  0  0  0
 14 16  1  0  0  0  0
 14 17  1  0  0  0  0
 11 12  1  0  0  0  0
 11 13  1  0  0  0  0
 11 14  1  0  0  0  0
  9 10  1  0  0  0  0
  9 11  1  0  0  0  0
  9 20  1  0  0  0  0
  7  8  1  0  0  0  0
  7  9  1  0  0  0  0
 24 25  1  0  0  0  0
 24 26  1  0  0  0  0
 24 27  1  0  0  0  0
 22 23  1  0  0  0  0
 22 24  1  0  0  0  0
M  CHG  1  18  -1
M  END
$$$$
default_name
  -OEChem-01062215323D

 27 26  0     1  0  0  0  0  0999 V2000
   -3.2406   -3.5400    1.2326 H   0  0  0  0  0  0  0  0  0  0  0  0
   -3.1436   -2.6190    0.6606 C   0  0  0  0  0  0  0  0  0  0  0  0
   -3.8786   -1.8920    0.9996 H   0  0  0  0  0  0  0  0  0  0  0  0
   -3.2846   -2.8280   -0.3984 H   0  0  0  0  0  0  0  0  0  0  0  0
   -1.7586   -2.0580    0.8686 C   0  0  0  0  0  0  0  0  0  0  0  0
   -0.9666   -2.6340    1.6026 O   0  0  0  0  0  0  0  0  0  0  0  0
   -1.4866   -0.9220    0.2366 N   0  0  0  0  0  0  0  0  0  0  0  0
   -2.2166   -0.4790   -0.2994 H   0  0  0  0  0  0  0  0  0  0  0  0
   -0.1956   -0.2250    0.2596 C   0  0  1  0  0  0  0  0  0  0  0  0
   -0.1656    0.4863   -0.5662 H   0  0  0  0  0  0  0  0  0  0  0  0
   -0.0786    0.5789    1.5703 C   0  0  0  0  0  0  0  0  0  0  0  0
   -0.2669   -0.1031    2.4009 H   0  0  0  0  0  0  0  0  0  0  0  0
    0.9369    0.9662    1.6658 H   0  0  0  0  0  0  0  0  0  0  0  0
   -1.0748    1.7470    1.6629 C   0  0  0  0  0  0  0  0  0  0  0  0
   -0.8991    2.4333    0.8310 H   0  0  0  0  0  0  0  0  0  0  0  0
   -2.0860    1.3444    1.5599 H   0  0  0  0  0  0  0  0  0  0  0  0
   -0.9740    2.5321    2.9791 C   0  0  0  0  0  0  0  0  0  0  0  0
   -0.2228    2.0910    3.8778 O   0  5  0  0  0  0  0  0  0  0  0  0
   -1.6409    3.5879    3.0550 O   0  0  0  0  0  0  0  0  0  0  0  0
    0.9663   -1.2194    0.0551 C   0  0  0  0  0  0  0  0  0  0  0  0
    0.7783   -2.4338    0.1530 O   0  0  0  0  0  0  0  0  0  0  0  0
    2.1658   -0.7098   -0.2541 N   0  0  0  0  0  0  0  0  0  0  0  0
    2.2563    0.2953   -0.2635 H   0  0  0  0  0  0  0  0  0  0  0  0
    3.3689   -1.5118   -0.4611 C   0  0  0  0  0  0  0  0  0  0  0  0
    3.1619   -2.3077   -1.1784 H   0  0  0  0  0  0  0  0  0  0  0  0
    4.1785   -0.8842   -0.8362 H   0  0  0  0  0  0  0  0  0  0  0  0
    3.6704   -1.9637    0.4859 H   0  0  0  0  0  0  0  0  0  0  0  0
  5  6  2  0  0  0  0
  5  7  1  0  0  0  0
  2  3  1  0  0  0  0
  2  4  1  0  0  0  0
  2  5  1  0  0  0  0
  1  2  1  0  0  0  0
 20 21  2  0  0  0  0
 20 22  1  0  0  0  0
 17 18  1  0  0  0  0
 17 19  2  0  0  0  0
 14 15  1  0  0  0  0
 14 16  1  0  0  0  0
 14 17  1  0  0  0  0
 11 12  1  0  0  0  0
 11 13  1  0  0  0  0
 11 14  1  0  0  0  0
  9 10  1  0  0  0  0
  9 11  1  0  0  0  0
  9 20  1  0  0  0  0
  7  8  1  0  0  0  0
  7  9  1  0  0  0  0
 24 25  1  0  0  0  0
 24 26  1  0  0  0  0
 24 27  1  0  0  0  0
 22 23  1  0  0  0  0
 22 24  1  0  0  0  0
M  CHG  1  18  -1
M  END
$$$$
default_name
  -OEChem-01062215323D

 27 26  0     1  0  0  0  0  0999 V2000
   -3.2406   -3.5400    1.2326 H   0  0  0  0  0  0  0  0  0  0  0  0
   -3.1436   -2.6190    0.6606 C   0  0  0  0  0  0  0  0  0  0  0  0
   -3.8786   -1.8920    0.9996 H   0  0  0  0  0  0  0  0  0  0  0  0
   -3.2846   -2.8280   -0.3984 H   0  0  0  0  0  0  0  0  0  0  0  0
   -1.7586   -2.0580    0.8686 C   0  0  0  0  0  0  0  0  0  0  0  0
   -0.9666   -2.6340    1.6026 O   0  0  0  0  0  0  0  0  0  0  0  0
   -1.4866   -0.9220    0.2366 N   0  0  0  0  0  0  0  0  0  0  0  0
   -2.2166   -0.4790   -0.2994 H   0  0  0  0  0  0  0  0  0  0  0  0
   -0.1956   -0.2250    0.2596 C   0  0  1  0  0  0  0  0  0  0  0  0
   -0.2605    0.6559   -0.3795 H   0  0  0  0  0  0  0  0  0  0  0  0
    0.0905    0.2617    1.6946 C   0  0  0  0  0  0  0  0  0  0  0  0
   -0.0009   -0.5947    2.3645 H   0  0  0  0  0  0  0  0  0  0  0  0
    1.1138    0.6356    1.7507 H   0  0  0  0  0  0  0  0  0  0  0  0
   -0.8748    1.3596    2.1724 C   0  0  0  0  0  0  0  0  0  0  0  0
   -0.7961    2.2203    1.5037 H   0  0  0  0  0  0  0  0  0  0  0  0
   -1.8950    0.9726    2.1049 H   0  0  0  0  0  0  0  0  0  0  0  0
   -0.6043    1.8265    3.6103 C   0  0  0  0  0  0  0  0  0  0  0  0
    0.2476    1.2064    4.2859 O   0  5  0  0  0  0  0  0  0  0  0  0
   -1.2459    2.8250    4.0061 O   0  0  0  0  0  0  0  0  0  0  0  0
    0.9220   -1.1253   -0.3070 C   0  0  0  0  0  0  0  0  0  0  0  0
    0.6663   -2.2571   -0.7233 O   0  0  0  0  0  0  0  0  0  0  0  0
    2.1607   -0.6175   -0.3477 N   0  0  0  0  0  0  0  0  0  0  0  0
    2.3037    0.2944    0.0605 H   0  0  0  0  0  0  0  0  0  0  0  0
    3.3295   -1.3447   -0.8361 C   0  0  0  0  0  0  0  0  0  0  0  0
    3.1187   -1.7604   -1.8229 H   0  0  0  0  0  0  0  0  0  0  0  0
    4.1890   -0.6757   -0.8983 H   0  0  0  0  0  0  0  0  0  0  0  0
    3.5578   -2.1646   -0.1524 H   0  0  0  0  0  0  0  0  0  0  0  0
  5  6  2  0  0  0  0
  5  7  1  0  0  0  0
  2  3  1  0  0  0  0
  2  4  1  0  0  0  0
  2  5  1  0  0  0  0
  1  2  1  0  0  0  0
 20 21  2  0  0  0  0
 20 22  1  0  0  0  0
 17 18  1  0  0  0  0
 17 19  2  0  0  0  0
 14 15  1  0  0  0  0
 14 16  1  0  0  0  0
 14 17  1  0  0  0  0
 11 12  1  0  0  0  0
 11 13  1  0  0  0  0
 11 14  1  0  0  0  0
  9 10  1  0  0  0  0
  9 11  1  0  0  0  0
  9 20  1  0  0  0  0
  7  8  1  0  0  0  0
  7  9  1  0  0  0  0
 24 25  1  0  0  0  0
 24 26  1  0  0  0  0
 24 27  1  0  0  0  0
 22 23  1  0  0  0  0
 22 24  1  0  0  0  0
M  CHG  1  18  -1
M  END
$$$$
default_name
  -OEChem-01062215323D

 27 26  0     1  0  0  0  0  0999 V2000
   -3.2406   -3.5400    1.2326 H   0  0  0  0  0  0  0  0  0  0  0  0
   -3.1436   -2.6190    0.6606 C   0  0  0  0  0  0  0  0  0  0  0  0
   -3.8786   -1.8920    0.9996 H   0  0  0  0  0  0  0  0  0  0  0  0
   -3.2846   -2.8280   -0.3984 H   0  0  0  0  0  0  0  0  0  0  0  0
   -1.7586   -2.0580    0.8686 C   0  0  0  0  0  0  0  0  0  0  0  0
   -0.9666   -2.6340    1.6026 O   0  0  0  0  0  0  0  0  0  0  0  0
   -1.4866   -0.9220    0.2366 N   0  0  0  0  0  0  0  0  0  0  0  0
   -2.2166   -0.4790   -0.2994 H   0  0  0  0  0  0  0  0  0  0  0  0
   -0.1956   -0.2250    0.2596 C   0  0  1  0  0  0  0  0  0  0  0  0
   -0.2605    0.6559   -0.3795 H   0  0  0  0  0  0  0  0  0  0  0  0
    0.0905    0.2617    1.6946 C   0  0  0  0  0  0  0  0  0  0  0  0
   -0.0009   -0.5947    2.3645 H   0  0  0  0  0  0  0  0  0  0  0  0
    1.1138    0.6356    1.7507 H   0  0  0  0  0  0  0  0  0  0  0  0
   -0.8748    1.3596    2.1724 C   0  0  0  0  0  0  0  0  0  0  0  0
   -0.7961    2.2203    1.5037 H   0  0  0  0  0  0  0  0  0  0  0  0
   -1.8950    0.9726    2.1049 H   0  0  0  0  0  0  0  0  0  0  0  0
   -0.6043    1.8265    3.6103 C   0  0  0  0  0  0  0  0  0  0  0  0
    0.2476    1.2064    4.2859 O   0  5  0  0  0  0  0  0  0  0  0  0
   -1.2459    2.8250    4.0061 O   0  0  0  0  0  0  0  0  0  0  0  0
    0.9220   -1.1253   -0.3070 C   0  0  0  0  0  0  0  0  0  0  0  0
    0.6458   -2.1287   -0.9678 O   0  0  0  0  0  0  0  0  0  0  0  0
    2.1881   -0.7571   -0.0717 N   0  0  0  0  0  0  0  0  0  0  0  0
    2.3370    0.0450    0.5223 H   0  0  0  0  0  0  0  0  0  0  0  0
    3.3575   -1.5079   -0.5215 C   0  0  0  0  0  0  0  0  0  0  0  0
    3.2745   -1.7134   -1.5900 H   0  0  0  0  0  0  0  0  0  0  0  0
    4.2670   -0.9369   -0.3295 H   0  0  0  0  0  0  0  0  0  0  0  0
    3.4066   -2.4576    0.0149 H   0  0  0  0  0  0  0  0  0  0  0  0
  5  6  2  0  0  0  0
  5  7  1  0  0  0  0
  2  3  1  0  0  0  0
  2  4  1  0  0  0  0
  2  5  1  0  0  0  0
  1  2  1  0  0  0  0
 20 21  2  0  0  0  0
 20 22  1  0  0  0  0
 17 18  1  0  0  0  0
 17 19  2  0  0  0  0
 14 15  1  0  0  0  0
 14 16  1  0  0  0  0
 14 17  1  0  0  0  0
 11 12  1  0  0  0  0
 11 13  1  0  0  0  0
 11 14  1  0  0  0  0
  9 10  1  0  0  0  0
  9 11  1  0  0  0  0
  9 20  1  0  0  0  0
  7  8  1  0  0  0  0
  7  9  1  0  0  0  0
 24 25  1  0  0  0  0
 24 26  1  0  0  0  0
 24 27  1  0  0  0  0
 22 23  1  0  0  0  0
 22 24  1  0  0  0  0
M  CHG  1  18  -1
M  END
$$$$
default_name
  -OEChem-01062215323D

 27 26  0     1  0  0  0  0  0999 V2000
   -3.2406   -3.5400    1.2326 H   0  0  0  0  0  0  0  0  0  0  0  0
   -3.1436   -2.6190    0.6606 C   0  0  0  0  0  0  0  0  0  0  0  0
   -3.8786   -1.8920    0.9996 H   0  0  0  0  0  0  0  0  0  0  0  0
   -3.2846   -2.8280   -0.3984 H   0  0  0  0  0  0  0  0  0  0  0  0
   -1.7586   -2.0580    0.8686 C   0  0  0  0  0  0  0  0  0  0  0  0
   -0.9666   -2.6340    1.6026 O   0  0  0  0  0  0  0  0  0  0  0  0
   -1.4866   -0.9220    0.2366 N   0  0  0  0  0  0  0  0  0  0  0  0
   -2.2166   -0.4790   -0.2994 H   0  0  0  0  0  0  0  0  0  0  0  0
   -0.1956   -0.2250    0.2596 C   0  0  1  0  0  0  0  0  0  0  0  0
   -0.2605    0.6559   -0.3795 H   0  0  0  0  0  0  0  0  0  0  0  0
    0.0905    0.2617    1.6946 C   0  0  0  0  0  0  0  0  0  0  0  0
   -0.0009   -0.5947    2.3645 H   0  0  0  0  0  0  0  0  0  0  0  0
    1.1138    0.6356    1.7507 H   0  0  0  0  0  0  0  0  0  0  0  0
   -0.8748    1.3596    2.1724 C   0  0  0  0  0  0  0  0  0  0  0  0
   -0.7961    2.2203    1.5037 H   0  0  0  0  0  0  0  0  0  0  0  0
   -1.8950    0.9726    2.1049 H   0  0  0  0  0  0  0  0  0  0  0  0
   -0.6043    1.8265    3.6103 C   0  0  0  0  0  0  0  0  0  0  0  0
    0.2476    1.2064    4.2859 O   0  5  0  0  0  0  0  0  0  0  0  0
   -1.2459    2.8250    4.0061 O   0  0  0  0  0  0  0  0  0  0  0  0
    0.9220   -1.1253   -0.3070 C   0  0  0  0  0  0  0  0  0  0  0  0
    0.6752   -1.9569   -1.1829 O   0  0  0  0  0  0  0  0  0  0  0  0
    2.1597   -0.9464    0.1728 N   0  0  0  0  0  0  0  0  0  0  0  0
    2.2757   -0.2856    0.9267 H   0  0  0  0  0  0  0  0  0  0  0  0
    3.3216   -1.7272   -0.2439 C   0  0  0  0  0  0  0  0  0  0  0  0
    3.3944   -1.7265   -1.3328 H   0  0  0  0  0  0  0  0  0  0  0  0
    4.2316   -1.3031    0.1827 H   0  0  0  0  0  0  0  0  0  0  0  0
    3.2074   -2.7576    0.0986 H   0  0  0  0  0  0  0  0  0  0  0  0
  5  6  2  0  0  0  0
  5  7  1  0  0  0  0
  2  3  1  0  0  0  0
  2  4  1  0  0  0  0
  2  5  1  0  0  0  0
  1  2  1  0  0  0  0
 20 21  2  0  0  0  0
 20 22  1  0  0  0  0
 17 18  1  0  0  0  0
 17 19  2  0  0  0  0
 14 15  1  0  0  0  0
 14 16  1  0  0  0  0
 14 17  1  0  0  0  0
 11 12  1  0  0  0  0
 11 13  1  0  0  0  0
 11 14  1  0  0  0  0
  9 10  1  0  0  0  0
  9 11  1  0  0  0  0
  9 20  1  0  0  0  0
  7  8  1  0  0  0  0
  7  9  1  0  0  0  0
 24 25  1  0  0  0  0
 24 26  1  0  0  0  0
 24 27  1  0  0  0  0
 22 23  1  0  0  0  0
 22 24  1  0  0  0  0
M  CHG  1  18  -1
M  END
$$$$
default_name
  -OEChem-01062215323D

 27 26  0     1  0  0  0  0  0999 V2000
   -3.2406   -3.5400    1.2326 H   0  0  0  0  0  0  0  0  0  0  0  0
   -3.1436   -2.6190    0.6606 C   0  0  0  0  0  0  0  0  0  0  0  0
   -3.8786   -1.8920    0.9996 H   0  0  0  0  0  0  0  0  0  0  0  0
   -3.2846   -2.8280   -0.3984 H   0  0  0  0  0  0  0  0  0  0  0  0
   -1.7586   -2.0580    0.8686 C   0  0  0  0  0  0  0  0  0  0  0  0
   -0.9666   -2.6340    1.6026 O   0  0  0  0  0  0  0  0  0  0  0  0
   -1.4866   -0.9220    0.2366 N   0  0  0  0  0  0  0  0  0  0  0  0
   -2.2166   -0.4790   -0.2994 H   0  0  0  0  0  0  0  0  0  0  0  0
   -0.1956   -0.2250    0.2596 C   0  0  1  0  0  0  0  0  0  0  0  0
   -0.2605    0.6559   -0.3795 H   0  0  0  0  0  0  0  0  0  0  0  0
    0.0905    0.2617    1.6946 C   0  0  0  0  0  0  0  0  0  0  0  0
   -0.0009   -0.5947    2.3645 H   0  0  0  0  0  0  0  0  0  0  0  0
    1.1138    0.6356    1.7507 H   0  0  0  0  0  0  0  0  0  0  0  0
   -0.8748    1.3596    2.1724 C   0  0  0  0  0  0  0  0  0  0  0  0
   -0.7961    2.2203    1.5037 H   0  0  0  0  0  0  0  0  0  0  0  0
   -1.8950    0.9726    2.1049 H   0  0  0  0  0  0  0  0  0  0  0  0
   -0.6043    1.8265    3.6103 C   0  0  0  0  0  0  0  0  0  0  0  0
    0.2476    1.2064    4.2859 O   0  5  0  0  0  0  0  0  0  0  0  0
   -1.2459    2.8250    4.0061 O   0  0  0  0  0  0  0  0  0  0  0  0
    0.9220   -1.1253   -0.3070 C   0  0  0  0  0  0  0  0  0  0  0  0
    0.7523   -1.7533   -1.3541 O   0  0  0  0  0  0  0  0  0  0  0  0
    2.0772   -1.1723    0.3692 N   0  0  0  0  0  0  0  0  0  0  0  0
    2.1240   -0.6749    1.2461 H   0  0  0  0  0  0  0  0  0  0  0  0
    3.2241   -1.9877   -0.0224 C   0  0  0  0  0  0  0  0  0  0  0  0
    3.4701   -1.7988   -1.0687 H   0  0  0  0  0  0  0  0  0  0  0  0
    4.0853   -1.7496    0.6035 H   0  0  0  0  0  0  0  0  0  0  0  0
    2.9738   -3.0441    0.0932 H   0  0  0  0  0  0  0  0  0  0  0  0
  5  6  2  0  0  0  0
  5  7  1  0  0  0  0
  2  3  1  0  0  0  0
  2  4  1  0  0  0  0
  2  5  1  0  0  0  0
  1  2  1  0  0  0  0
 20 21  2  0  0  0  0
 20 22  1  0  0  0  0
 17 18  1  0  0  0  0
 17 19  2  0  0  0  0
 14 15  1  0  0  0  0
 14 16  1  0  0  0  0
 14 17  1  0  0  0  0
 11 12  1  0  0  0  0
 11 13  1  0  0  0  0
 11 14  1  0  0  0  0
  9 10  1  0  0  0  0
  9 11  1  0  0  0  0
  9 20  1  0  0  0  0
  7  8  1  0  0  0  0
  7  9  1  0  0  0  0
 24 25  1  0  0  0  0
 24 26  1  0  0  0  0
 24 27  1  0  0  0  0
 22 23  1  0  0  0  0
 22 24  1  0  0  0  0
M  CHG  1  18  -1
M  END
$$$$
default_name
  -OEChem-01062215323D

 27 26  0     1  0  0  0  0  0999 V2000
   -3.2406   -3.5400    1.2326 H   0  0  0  0  0  0  0  0  0  0  0  0
   -3.1436   -2.6190    0.6606 C   0  0  0  0  0  0  0  0  0  0  0  0
   -3.8786   -1.8920    0.9996 H   0  0  0  0  0  0  0  0  0  0  0  0
   -3.2846   -2.8280   -0.3984 H   0  0  0  0  0  0  0  0  0  0  0  0
   -1.7586   -2.0580    0.8686 C   0  0  0  0  0  0  0  0  0  0  0  0
   -0.9666   -2.6340    1.6026 O   0  0  0  0  0  0  0  0  0  0  0  0
   -1.4866   -0.9220    0.2366 N   0  0  0  0  0  0  0  0  0  0  0  0
   -2.2166   -0.4790   -0.2994 H   0  0  0  0  0  0  0  0  0  0  0  0
   -0.1956   -0.2250    0.2596 C   0  0  1  0  0  0  0  0  0  0  0  0
   -0.2605    0.6559   -0.3795 H   0  0  0  0  0  0  0  0  0  0  0  0
    0.0905    0.2617    1.6946 C   0  0  0  0  0  0  0  0  0  0  0  0
   -0.0009   -0.5947    2.3645 H   0  0  0  0  0  0  0  0  0  0  0  0
    1.1138    0.6356    1.7507 H   0  0  0  0  0  0  0  0  0  0  0  0
   -0.8748    1.3596    2.1724 C   0  0  0  0  0  0  0  0  0  0  0  0
   -0.7961    2.2203    1.5037 H   0  0  0  0  0  0  0  0  0  0  0  0
   -1.8950    0.9726    2.1049 H   0  0  0  0  0  0  0  0  0  0  0  0
   -0.6043    1.8265    3.6103 C   0  0  0  0  0  0  0  0  0  0  0  0
    0.2476    1.2064    4.2859 O   0  5  0  0  0  0  0  0  0  0  0  0
   -1.2459    2.8250    4.0061 O   0  0  0  0  0  0  0  0  0  0  0  0
    0.9220   -1.1253   -0.3070 C   0  0  0  0  0  0  0  0  0  0  0  0
    0.8721   -1.5320   -1.4696 O   0  0  0  0  0  0  0  0  0  0  0  0
    1.9465   -1.4195    0.5042 N   0  0  0  0  0  0  0  0  0  0  0  0
    1.8923   -1.0963    1.4587 H   0  0  0  0  0  0  0  0  0  0  0  0
    3.0717   -2.2715    0.1281 C   0  0  0  0  0  0  0  0  0  0  0  0
    3.4965   -1.9253   -0.8156 H   0  0  0  0  0  0  0  0  0  0  0  0
    3.8379   -2.2458    0.9041 H   0  0  0  0  0  0  0  0  0  0  0  0
    2.7218   -3.2976   -0.0011 H   0  0  0  0  0  0  0  0  0  0  0  0
  5  6  2  0  0  0  0
  5  7  1  0  0  0  0
  2  3  1  0  0  0  0
  2  4  1  0  0  0  0
  2  5  1  0  0  0  0
  1  2  1  0  0  0  0
 20 21  2  0  0  0  0
 20 22  1  0  0  0  0
 17 18  1  0  0  0  0
 17 19  2  0  0  0  0
 14 15  1  0  0  0  0
 14 16  1  0  0  0  0
 14 17  1  0  0  0  0
 11 12  1  0  0  0  0
 11 13  1  0  0  0  0
 11 14  1  0  0  0  0
  9 10  1  0  0  0  0
  9 11  1  0  0  0  0
  9 20  1  0  0  0  0
  7  8  1  0  0  0  0
  7  9  1  0  0  0  0
 24 25  1  0  0  0  0
 24 26  1  0  0  0  0
 24 27  1  0  0  0  0
 22 23  1  0  0  0  0
 22 24  1  0  0  0  0
M  CHG  1  18  -1
M  END
$$$$
default_name
  -OEChem-01062215323D

 27 26  0     1  0  0  0  0  0999 V2000
   -3.2406   -3.5400    1.2326 H   0  0  0  0  0  0  0  0  0  0  0  0
   -3.1436   -2.6190    0.6606 C   0  0  0  0  0  0  0  0  0  0  0  0
   -3.8786   -1.8920    0.9996 H   0  0  0  0  0  0  0  0  0  0  0  0
   -3.2846   -2.8280   -0.3984 H   0  0  0  0  0  0  0  0  0  0  0  0
   -1.7586   -2.0580    0.8686 C   0  0  0  0  0  0  0  0  0  0  0  0
   -0.9666   -2.6340    1.6026 O   0  0  0  0  0  0  0  0  0  0  0  0
   -1.4866   -0.9220    0.2366 N   0  0  0  0  0  0  0  0  0  0  0  0
   -2.2166   -0.4790   -0.2994 H   0  0  0  0  0  0  0  0  0  0  0  0
   -0.1956   -0.2250    0.2596 C   0  0  1  0  0  0  0  0  0  0  0  0
   -0.2605    0.6559   -0.3795 H   0  0  0  0  0  0  0  0  0  0  0  0
    0.0905    0.2617    1.6946 C   0  0  0  0  0  0  0  0  0  0  0  0
   -0.0009   -0.5947    2.3645 H   0  0  0  0  0  0  0  0  0  0  0  0
    1.1138    0.6356    1.7507 H   0  0  0  0  0  0  0  0  0  0  0  0
   -0.8748    1.3596    2.1724 C   0  0  0  0  0  0  0  0  0  0  0  0
   -0.7961    2.2203    1.5037 H   0  0  0  0  0  0  0  0  0  0  0  0
   -1.8950    0.9726    2.1049 H   0  0  0  0  0  0  0  0  0  0  0  0
   -0.6043    1.8265    3.6103 C   0  0  0  0  0  0  0  0  0  0  0  0
    0.2476    1.2064    4.2859 O   0  5  0  0  0  0  0  0  0  0  0  0
   -1.2459    2.8250    4.0061 O   0  0  0  0  0  0  0  0  0  0  0  0
    0.9220   -1.1253   -0.3070 C   0  0  0  0  0  0  0  0  0  0  0  0
    1.0262   -1.3079   -1.5217 O   0  0  0  0  0  0  0  0  0  0  0  0
    1.7763   -1.6712    0.5684 N   0  0  0  0  0  0  0  0  0  0  0  0
    1.5962   -1.5213    1.5500 H   0  0  0  0  0  0  0  0  0  0  0  0
    2.8748   -2.5594    0.1972 C   0  0  0  0  0  0  0  0  0  0  0  0
    3.4717   -2.0974   -0.5910 H   0  0  0  0  0  0  0  0  0  0  0  0
    3.5065   -2.7580    1.0641 H   0  0  0  0  0  0  0  0  0  0  0  0
    2.4685   -3.5009   -0.1777 H   0  0  0  0  0  0  0  0  0  0  0  0
  5  6  2  0  0  0  0
  5  7  1  0  0  0  0
  2  3  1  0  0  0  0
  2  4  1  0  0  0  0
  2  5  1  0  0  0  0
  1  2  1  0  0  0  0
 20 21  2  0  0  0  0
 20 22  1  0  0  0  0
 17 18  1  0  0  0  0
 17 19  2  0  0  0  0
 14 15  1  0  0  0  0
 14 16  1  0  0  0  0
 14 17  1  0  0  0  0
 11 12  1  0  0  0  0
 11 13  1  0  0  0  0
 11 14  1  0  0  0  0
  9 10  1  0  0  0  0
  9 11  1  0  0  0  0
  9 20  1  0  0  0  0
  7  8  1  0  0  0  0
  7  9  1  0  0  0  0
 24 25  1  0  0  0  0
 24 26  1  0  0  0  0
 24 27  1  0  0  0  0
 22 23  1  0  0  0  0
 22 24  1  0  0  0  0
M  CHG  1  18  -1
M  END
$$$$
default_name
  -OEChem-01062215323D

 27 26  0     1  0  0  0  0  0999 V2000
   -3.2406   -3.5400    1.2326 H   0  0  0  0  0  0  0  0  0  0  0  0
   -3.1436   -2.6190    0.6606 C   0  0  0  0  0  0  0  0  0  0  0  0
   -3.8786   -1.8920    0.9996 H   0  0  0  0  0  0  0  0  0  0  0  0
   -3.2846   -2.8280   -0.3984 H   0  0  0  0  0  0  0  0  0  0  0  0
   -1.7586   -2.0580    0.8686 C   0  0  0  0  0  0  0  0  0  0  0  0
   -0.9666   -2.6340    1.6026 O   0  0  0  0  0  0  0  0  0  0  0  0
   -1.4866   -0.9220    0.2366 N   0  0  0  0  0  0  0  0  0  0  0  0
   -2.2166   -0.4790   -0.2994 H   0  0  0  0  0  0  0  0  0  0  0  0
   -0.1956   -0.2250    0.2596 C   0  0  1  0  0  0  0  0  0  0  0  0
   -0.2605    0.6559   -0.3795 H   0  0  0  0  0  0  0  0  0  0  0  0
    0.0905    0.2617    1.6946 C   0  0  0  0  0  0  0  0  0  0  0  0
   -0.0009   -0.5947    2.3645 H   0  0  0  0  0  0  0  0  0  0  0  0
    1.1138    0.6356    1.7507 H   0  0  0  0  0  0  0  0  0  0  0  0
   -0.8748    1.3596    2.1724 C   0  0  0  0  0  0  0  0  0  0  0  0
   -0.7961    2.2203    1.5037 H   0  0  0  0  0  0  0  0  0  0  0  0
   -1.8950    0.9726    2.1049 H   0  0  0  0  0  0  0  0  0  0  0  0
   -0.6043    1.8265    3.6103 C   0  0  0  0  0  0  0  0  0  0  0  0
    0.2476    1.2064    4.2859 O   0  5  0  0  0  0  0  0  0  0  0  0
   -1.2459    2.8250    4.0061 O   0  0  0  0  0  0  0  0  0  0  0  0
    0.9220   -1.1253   -0.3070 C   0  0  0  0  0  0  0  0  0  0  0  0
    1.2043   -1.0963   -1.5066 O   0  0  0  0  0  0  0  0  0  0  0  0
    1.5783   -1.9101    0.5575 N   0  0  0  0  0  0  0  0  0  0  0  0
    1.2561   -1.9208    1.5139 H   0  0  0  0  0  0  0  0  0  0  0  0
    2.6468   -2.8318    0.1802 C   0  0  0  0  0  0  0  0  0  0  0  0
    3.3975   -2.3035   -0.4100 H   0  0  0  0  0  0  0  0  0  0  0  0
    3.1135   -3.2512    1.0726 H   0  0  0  0  0  0  0  0  0  0  0  0
    2.2312   -3.6400   -0.4247 H   0  0  0  0  0  0  0  0  0  0  0  0
  5  6  2  0  0  0  0
  5  7  1  0  0  0  0
  2  3  1  0  0  0  0
  2  4  1  0  0  0  0
  2  5  1  0  0  0  0
  1  2  1  0  0  0  0
 20 21  2  0  0  0  0
 20 22  1  0  0  0  0
 17 18  1  0  0  0  0
 17 19  2  0  0  0  0
 14 15  1  0  0  0  0
 14 16  1  0  0  0  0
 14 17  1  0  0  0  0
 11 12  1  0  0  0  0
 11 13  1  0  0  0  0
 11 14  1  0  0  0  0
  9 10  1  0  0  0  0
  9 11  1  0  0  0  0
  9 20  1  0  0  0  0
  7  8  1  0  0  0  0
  7  9  1  0  0  0  0
 24 25  1  0  0  0  0
 24 26  1  0  0  0  0
 24 27  1  0  0  0  0
 22 23  1  0  0  0  0
 22 24  1  0  0  0  0
M  CHG  1  18  -1
M  END
$$$$
default_name
  -OEChem-01062215323D

 27 26  0     1  0  0  0  0  0999 V2000
   -3.2406   -3.5400    1.2326 H   0  0  0  0  0  0  0  0  0  0  0  0
   -3.1436   -2.6190    0.6606 C   0  0  0  0  0  0  0  0  0  0  0  0
   -3.8786   -1.8920    0.9996 H   0  0  0  0  0  0  0  0  0  0  0  0
   -3.2846   -2.8280   -0.3984 H   0  0  0  0  0  0  0  0  0  0  0  0
   -1.7586   -2.0580    0.8686 C   0  0  0  0  0  0  0  0  0  0  0  0
   -0.9666   -2.6340    1.6026 O   0  0  0  0  0  0  0  0  0  0  0  0
   -1.4866   -0.9220    0.2366 N   0  0  0  0  0  0  0  0  0  0  0  0
   -2.2166   -0.4790   -0.2994 H   0  0  0  0  0  0  0  0  0  0  0  0
   -0.1956   -0.2250    0.2596 C   0  0  1  0  0  0  0  0  0  0  0  0
   -0.2605    0.6559   -0.3795 H   0  0  0  0  0  0  0  0  0  0  0  0
    0.0905    0.2617    1.6946 C   0  0  0  0  0  0  0  0  0  0  0  0
   -0.0009   -0.5947    2.3645 H   0  0  0  0  0  0  0  0  0  0  0  0
    1.1138    0.6356    1.7507 H   0  0  0  0  0  0  0  0  0  0  0  0
   -0.8748    1.3596    2.1724 C   0  0  0  0  0  0  0  0  0  0  0  0
   -0.7961    2.2203    1.5037 H   0  0  0  0  0  0  0  0  0  0  0  0
   -1.8950    0.9726    2.1049 H   0  0  0  0  0  0  0  0  0  0  0  0
   -0.6043    1.8265    3.6103 C   0  0  0  0  0  0  0  0  0  0  0  0
    0.2476    1.2064    4.2859 O   0  5  0  0  0  0  0  0  0  0  0  0
   -1.2459    2.8250    4.0061 O   0  0  0  0  0  0  0  0  0  0  0  0
    0.9220   -1.1253   -0.3070 C   0  0  0  0  0  0  0  0  0  0  0  0
    1.3941   -0.9117   -1.4255 O   0  0  0  0  0  0  0  0  0  0  0  0
    1.3660   -2.1201    0.4724 N   0  0  0  0  0  0  0  0  0  0  0  0
    0.8950   -2.2675    1.3527 H   0  0  0  0  0  0  0  0  0  0  0  0
    2.4033   -3.0700    0.0783 C   0  0  0  0  0  0  0  0  0  0  0  0
    3.2789   -2.5294   -0.2850 H   0  0  0  0  0  0  0  0  0  0  0  0
    2.6857   -3.6918    0.9290 H   0  0  0  0  0  0  0  0  0  0  0  0
    2.0260   -3.7056   -0.7251 H   0  0  0  0  0  0  0  0  0  0  0  0
  5  6  2  0  0  0  0
  5  7  1  0  0  0  0
  2  3  1  0  0  0  0
  2  4  1  0  0  0  0
  2  5  1  0  0  0  0
  1  2  1  0  0  0  0
 20 21  2  0  0  0  0
 20 22  1  0  0  0  0
 17 18  1  0  0  0  0
 17 19  2  0  0  0  0
 14 15  1  0  0  0  0
 14 16  1  0  0  0  0
 14 17  1  0  0  0  0
 11 12  1  0  0  0  0
 11 13  1  0  0  0  0
 11 14  1  0  0  0  0
  9 10  1  0  0  0  0
  9 11  1  0  0  0  0
  9 20  1  0  0  0  0
  7  8  1  0  0  0  0
  7  9  1  0  0  0  0
 24 25  1  0  0  0  0
 24 26  1  0  0  0  0
 24 27  1  0  0  0  0
 22 23  1  0  0  0  0
 22 24  1  0  0  0  0
M  CHG  1  18  -1
M  END
$$$$
default_name
  -OEChem-01062215323D

 27 26  0     1  0  0  0  0  0999 V2000
   -3.2406   -3.5400    1.2326 H   0  0  0  0  0  0  0  0  0  0  0  0
   -3.1436   -2.6190    0.6606 C   0  0  0  0  0  0  0  0  0  0  0  0
   -3.8786   -1.8920    0.9996 H   0  0  0  0  0  0  0  0  0  0  0  0
   -3.2846   -2.8280   -0.3984 H   0  0  0  0  0  0  0  0  0  0  0  0
   -1.7586   -2.0580    0.8686 C   0  0  0  0  0  0  0  0  0  0  0  0
   -0.9666   -2.6340    1.6026 O   0  0  0  0  0  0  0  0  0  0  0  0
   -1.4866   -0.9220    0.2366 N   0  0  0  0  0  0  0  0  0  0  0  0
   -2.2166   -0.4790   -0.2994 H   0  0  0  0  0  0  0  0  0  0  0  0
   -0.1956   -0.2250    0.2596 C   0  0  1  0  0  0  0  0  0  0  0  0
   -0.2605    0.6559   -0.3795 H   0  0  0  0  0  0  0  0  0  0  0  0
    0.0905    0.2617    1.6946 C   0  0  0  0  0  0  0  0  0  0  0  0
   -0.0009   -0.5947    2.3645 H   0  0  0  0  0  0  0  0  0  0  0  0
    1.1138    0.6356    1.7507 H   0  0  0  0  0  0  0  0  0  0  0  0
   -0.8748    1.3596    2.1724 C   0  0  0  0  0  0  0  0  0  0  0  0
   -0.7961    2.2203    1.5037 H   0  0  0  0  0  0  0  0  0  0  0  0
   -1.8950    0.9726    2.1049 H   0  0  0  0  0  0  0  0  0  0  0  0
   -0.6043    1.8265    3.6103 C   0  0  0  0  0  0  0  0  0  0  0  0
    0.2476    1.2064    4.2859 O   0  5  0  0  0  0  0  0  0  0  0  0
   -1.2459    2.8250    4.0061 O   0  0  0  0  0  0  0  0  0  0  0  0
    0.9220   -1.1253   -0.3070 C   0  0  0  0  0  0  0  0  0  0  0  0
    1.5827   -0.7667   -1.2839 O   0  0  0  0  0  0  0  0  0  0  0  0
    1.1539   -2.2867    0.3187 N   0  0  0  0  0  0  0  0  0  0  0  0
    0.5377   -2.5379    1.0775 H   0  0  0  0  0  0  0  0  0  0  0  0
    2.1608   -3.2578   -0.1015 C   0  0  0  0  0  0  0  0  0  0  0  0
    3.1240   -2.7597   -0.2245 H   0  0  0  0  0  0  0  0  0  0  0  0
    2.2523   -4.0498    0.6431 H   0  0  0  0  0  0  0  0  0  0  0  0
    1.8670   -3.6931   -1.0586 H   0  0  0  0  0  0  0  0  0  0  0  0
  5  6  2  0  0  0  0
  5  7  1  0  0  0  0
  2  3  1  0  0  0  0
  2  4  1  0  0  0  0
  2  5  1  0  0  0  0
  1  2  1  0  0  0  0
 20 21  2  0  0  0  0
 20 22  1  0  0  0  0
 17 18  1  0  0  0  0
 17 19  2  0  0  0  0
 14 15  1  0  0  0  0
 14 16  1  0  0  0  0
 14 17  1  0  0  0  0
 11 12  1  0  0  0  0
 11 13  1  0  0  0  0
 11 14  1  0  0  0  0
  9 10  1  0  0  0  0
  9 11  1  0  0  0  0
  9 20  1  0  0  0  0
  7  8  1  0  0  0  0
  7  9  1  0  0  0  0
 24 25  1  0  0  0  0
 24 26  1  0  0  0  0
 24 27  1  0  0  0  0
 22 23  1  0  0  0  0
 22 24  1  0  0  0  0
M  CHG  1  18  -1
M  END
$$$$
default_name
  -OEChem-01062215323D

 27 26  0     1  0  0  0  0  0999 V2000
   -3.2406   -3.5400    1.2326 H   0  0  0  0  0  0  0  0  0  0  0  0
   -3.1436   -2.6190    0.6606 C   0  0  0  0  0  0  0  0  0  0  0  0
   -3.8786   -1.8920    0.9996 H   0  0  0  0  0  0  0  0  0  0  0  0
   -3.2846   -2.8280   -0.3984 H   0  0  0  0  0  0  0  0  0  0  0  0
   -1.7586   -2.0580    0.8686 C   0  0  0  0  0  0  0  0  0  0  0  0
   -0.9666   -2.6340    1.6026 O   0  0  0  0  0  0  0  0  0  0  0  0
   -1.4866   -0.9220    0.2366 N   0  0  0  0  0  0  0  0  0  0  0  0
   -2.2166   -0.4790   -0.2994 H   0  0  0  0  0  0  0  0  0  0  0  0
   -0.1956   -0.2250    0.2596 C   0  0  1  0  0  0  0  0  0  0  0  0
   -0.2605    0.6559   -0.3795 H   0  0  0  0  0  0  0  0  0  0  0  0
    0.0905    0.2617    1.6946 C   0  0  0  0  0  0  0  0  0  0  0  0
   -0.0009   -0.5947    2.3645 H   0  0  0  0  0  0  0  0  0  0  0  0
    1.1138    0.6356    1.7507 H   0  0  0  0  0  0  0  0  0  0  0  0
   -0.8748    1.3596    2.1724 C   0  0  0  0  0  0  0  0  0  0  0  0
   -0.7961    2.2203    1.5037 H   0  0  0  0  0  0  0  0  0  0  0  0
   -1.8950    0.9726    2.1049 H   0  0  0  0  0  0  0  0  0  0  0  0
   -0.6043    1.8265    3.6103 C   0  0  0  0  0  0  0  0  0  0  0  0
    0.2476    1.2064    4.2859 O   0  5  0  0  0  0  0  0  0  0  0  0
   -1.2459    2.8250    4.0061 O   0  0  0  0  0  0  0  0  0  0  0  0
    0.9220   -1.1253   -0.3070 C   0  0  0  0  0  0  0  0  0  0  0  0
    1.7574   -0.6710   -1.0915 O   0  0  0  0  0  0  0  0  0  0  0  0
    0.9563   -2.3987    0.1070 N   0  0  0  0  0  0  0  0  0  0  0  0
    0.2084   -2.7135    0.7070 H   0  0  0  0  0  0  0  0  0  0  0  0
    1.9358   -3.3825   -0.3471 C   0  0  0  0  0  0  0  0  0  0  0  0
    2.9433   -2.9788   -0.2327 H   0  0  0  0  0  0  0  0  0  0  0  0
    1.8428   -4.3009    0.2343 H   0  0  0  0  0  0  0  0  0  0  0  0
    1.7650   -3.6034   -1.4025 H   0  0  0  0  0  0  0  0  0  0  0  0
  5  6  2  0  0  0  0
  5  7  1  0  0  0  0
  2  3  1  0  0  0  0
  2  4  1  0  0  0  0
  2  5  1  0  0  0  0
  1  2  1  0  0  0  0
 20 21  2  0  0  0  0
 20 22  1  0  0  0  0
 17 18  1  0  0  0  0
 17 19  2  0  0  0  0
 14 15  1  0  0  0  0
 14 16  1  0  0  0  0
 14 17  1  0  0  0  0
 11 12  1  0  0  0  0
 11 13  1  0  0  0  0
 11 14  1  0  0  0  0
  9 10  1  0  0  0  0
  9 11  1  0  0  0  0
  9 20  1  0  0  0  0
  7  8  1  0  0  0  0
  7  9  1  0  0  0  0
 24 25  1  0  0  0  0
 24 26  1  0  0  0  0
 24 27  1  0  0  0  0
 22 23  1  0  0  0  0
 22 24  1  0  0  0  0
M  CHG  1  18  -1
M  END
$$$$
default_name
  -OEChem-01062215323D

 27 26  0     1  0  0  0  0  0999 V2000
   -3.2406   -3.5400    1.2326 H   0  0  0  0  0  0  0  0  0  0  0  0
   -3.1436   -2.6190    0.6606 C   0  0  0  0  0  0  0  0  0  0  0  0
   -3.8786   -1.8920    0.9996 H   0  0  0  0  0  0  0  0  0  0  0  0
   -3.2846   -2.8280   -0.3984 H   0  0  0  0  0  0  0  0  0  0  0  0
   -1.7586   -2.0580    0.8686 C   0  0  0  0  0  0  0  0  0  0  0  0
   -0.9666   -2.6340    1.6026 O   0  0  0  0  0  0  0  0  0  0  0  0
   -1.4866   -0.9220    0.2366 N   0  0  0  0  0  0  0  0  0  0  0  0
   -2.2166   -0.4790   -0.2994 H   0  0  0  0  0  0  0  0  0  0  0  0
   -0.1956   -0.2250    0.2596 C   0  0  1  0  0  0  0  0  0  0  0  0
   -0.2605    0.6559   -0.3795 H   0  0  0  0  0  0  0  0  0  0  0  0
    0.0905    0.2617    1.6946 C   0  0  0  0  0  0  0  0  0  0  0  0
   -0.0009   -0.5947    2.3645 H   0  0  0  0  0  0  0  0  0  0  0  0
    1.1138    0.6356    1.7507 H   0  0  0  0  0  0  0  0  0  0  0  0
   -0.8748    1.3596    2.1724 C   0  0  0  0  0  0  0  0  0  0  0  0
   -0.7961    2.2203    1.5037 H   0  0  0  0  0  0  0  0  0  0  0  0
   -1.8950    0.9726    2.1049 H   0  0  0  0  0  0  0  0  0  0  0  0
   -0.6043    1.8265    3.6103 C   0  0  0  0  0  0  0  0  0  0  0  0
    0.2476    1.2064    4.2859 O   0  5  0  0  0  0  0  0  0  0  0  0
   -1.2459    2.8250    4.0061 O   0  0  0  0  0  0  0  0  0  0  0  0
    0.9220   -1.1253   -0.3070 C   0  0  0  0  0  0  0  0  0  0  0  0
    1.9061   -0.6313   -0.8613 O   0  0  0  0  0  0  0  0  0  0  0  0
    0.7868   -2.4484   -0.1484 N   0  0  0  0  0  0  0  0  0  0  0  0
   -0.0705   -2.7824    0.2664 H   0  0  0  0  0  0  0  0  0  0  0  0
    1.7438   -3.4355   -0.6416 C   0  0  0  0  0  0  0  0  0  0  0  0
    2.7492   -3.1718   -0.3090 H   0  0  0  0  0  0  0  0  0  0  0  0
    1.4852   -4.4278   -0.2695 H   0  0  0  0  0  0  0  0  0  0  0  0
    1.7268   -3.4426   -1.7332 H   0  0  0  0  0  0  0  0  0  0  0  0
  5  6  2  0  0  0  0
  5  7  1  0  0  0  0
  2  3  1  0  0  0  0
  2  4  1  0  0  0  0
  2  5  1  0  0  0  0
  1  2  1  0  0  0  0
 20 21  2  0  0  0  0
 20 22  1  0  0  0  0
 17 18  1  0  0  0  0
 17 19  2  0  0  0  0
 14 15  1  0  0  0  0
 14 16  1  0  0  0  0
 14 17  1  0  0  0  0
 11 12  1  0  0  0  0
 11 13  1  0  0  0  0
 11 14  1  0  0  0  0
  9 10  1  0  0  0  0
  9 11  1  0  0  0  0
  9 20  1  0  0  0  0
  7  8  1  0  0  0  0
  7  9  1  0  0  0  0
 24 25  1  0  0  0  0
 24 26  1  0  0  0  0
 24 27  1  0  0  0  0
 22 23  1  0  0  0  0
 22 24  1  0  0  0  0
M  CHG  1  18  -1
M  END
$$$$
default_name
  -OEChem-01062215323D

 27 26  0     1  0  0  0  0  0999 V2000
   -3.2406   -3.5400    1.2326 H   0  0  0  0  0  0  0  0  0  0  0  0
   -3.1436   -2.6190    0.6606 C   0  0  0  0  0  0  0  0  0  0  0  0
   -3.8786   -1.8920    0.9996 H   0  0  0  0  0  0  0  0  0  0  0  0
   -3.2846   -2.8280   -0.3984 H   0  0  0  0  0  0  0  0  0  0  0  0
   -1.7586   -2.0580    0.8686 C   0  0  0  0  0  0  0  0  0  0  0  0
   -0.9666   -2.6340    1.6026 O   0  0  0  0  0  0  0  0  0  0  0  0
   -1.4866   -0.9220    0.2366 N   0  0  0  0  0  0  0  0  0  0  0  0
   -2.2166   -0.4790   -0.2994 H   0  0  0  0  0  0  0  0  0  0  0  0
   -0.1956   -0.2250    0.2596 C   0  0  1  0  0  0  0  0  0  0  0  0
   -0.2605    0.6559   -0.3795 H   0  0  0  0  0  0  0  0  0  0  0  0
    0.0905    0.2617    1.6946 C   0  0  0  0  0  0  0  0  0  0  0  0
   -0.0009   -0.5947    2.3645 H   0  0  0  0  0  0  0  0  0  0  0  0
    1.1138    0.6356    1.7507 H   0  0  0  0  0  0  0  0  0  0  0  0
   -0.8748    1.3596    2.1724 C   0  0  0  0  0  0  0  0  0  0  0  0
   -0.7961    2.2203    1.5037 H   0  0  0  0  0  0  0  0  0  0  0  0
   -1.8950    0.9726    2.1049 H   0  0  0  0  0  0  0  0  0  0  0  0
   -0.6043    1.8265    3.6103 C   0  0  0  0  0  0  0  0  0  0  0  0
    0.2476    1.2064    4.2859 O   0  5  0  0  0  0  0  0  0  0  0  0
   -1.2459    2.8250    4.0061 O   0  0  0  0  0  0  0  0  0  0  0  0
    0.9220   -1.1253   -0.3070 C   0  0  0  0  0  0  0  0  0  0  0  0
    2.0187   -0.6502   -0.6090 O   0  0  0  0  0  0  0  0  0  0  0  0
    0.6569   -2.4325   -0.4300 N   0  0  0  0  0  0  0  0  0  0  0  0
   -0.2798   -2.7399   -0.2141 H   0  0  0  0  0  0  0  0  0  0  0  0
    1.5978   -3.4132   -0.9650 C   0  0  0  0  0  0  0  0  0  0  0  0
    2.5549   -3.3254   -0.4481 H   0  0  0  0  0  0  0  0  0  0  0  0
    1.2037   -4.4220   -0.8339 H   0  0  0  0  0  0  0  0  0  0  0  0
    1.7553   -3.2216   -2.0282 H   0  0  0  0  0  0  0  0  0  0  0  0
  5  6  2  0  0  0  0
  5  7  1  0  0  0  0
  2  3  1  0  0  0  0
  2  4  1  0  0  0  0
  2  5  1  0  0  0  0
  1  2  1  0  0  0  0
 20 21  2  0  0  0  0
 20 22  1  0  0  0  0
 17 18  1  0  0  0  0
 17 19  2  0  0  0  0
 14 15  1  0  0  0  0
 14 16  1  0  0  0  0
 14 17  1  0  0  0  0
 11 12  1  0  0  0  0
 11 13  1  0  0  0  0
 11 14  1  0  0  0  0
  9 10  1  0  0  0  0
  9 11  1  0  0  0  0
  9 20  1  0  0  0  0
  7  8  1  0  0  0  0
  7  9  1  0  0  0  0
 24 25  1  0  0  0  0
 24 26  1  0  0  0  0
 24 27  1  0  0  0  0
 22 23  1  0  0  0  0
 22 24  1  0  0  0  0
M  CHG  1  18  -1
M  END
$$$$
default_name
  -OEChem-01062215323D

 27 26  0     1  0  0  0  0  0999 V2000
   -3.2406   -3.5400    1.2326 H   0  0  0  0  0  0  0  0  0  0  0  0
   -3.1436   -2.6190    0.6606 C   0  0  0  0  0  0  0  0  0  0  0  0
   -3.8786   -1.8920    0.9996 H   0  0  0  0  0  0  0  0  0  0  0  0
   -3.2846   -2.8280   -0.3984 H   0  0  0  0  0  0  0  0  0  0  0  0
   -1.7586   -2.0580    0.8686 C   0  0  0  0  0  0  0  0  0  0  0  0
   -0.9666   -2.6340    1.6026 O   0  0  0  0  0  0  0  0  0  0  0  0
   -1.4866   -0.9220    0.2366 N   0  0  0  0  0  0  0  0  0  0  0  0
   -2.2166   -0.4790   -0.2994 H   0  0  0  0  0  0  0  0  0  0  0  0
   -0.1956   -0.2250    0.2596 C   0  0  1  0  0  0  0  0  0  0  0  0
   -0.2605    0.6559   -0.3795 H   0  0  0  0  0  0  0  0  0  0  0  0
    0.0905    0.2617    1.6946 C   0  0  0  0  0  0  0  0  0  0  0  0
   -0.0009   -0.5947    2.3645 H   0  0  0  0  0  0  0  0  0  0  0  0
    1.1138    0.6356    1.7507 H   0  0  0  0  0  0  0  0  0  0  0  0
   -0.8748    1.3596    2.1724 C   0  0  0  0  0  0  0  0  0  0  0  0
   -0.7961    2.2203    1.5037 H   0  0  0  0  0  0  0  0  0  0  0  0
   -1.8950    0.9726    2.1049 H   0  0  0  0  0  0  0  0  0  0  0  0
   -0.6043    1.8265    3.6103 C   0  0  0  0  0  0  0  0  0  0  0  0
    0.2476    1.2064    4.2859 O   0  5  0  0  0  0  0  0  0  0  0  0
   -1.2459    2.8250    4.0061 O   0  0  0  0  0  0  0  0  0  0  0  0
    0.9220   -1.1253   -0.3070 C   0  0  0  0  0  0  0  0  0  0  0  0
    2.0876   -0.7265   -0.3519 O   0  0  0  0  0  0  0  0  0  0  0  0
    0.5755   -2.3519   -0.7186 N   0  0  0  0  0  0  0  0  0  0  0  0
   -0.4054   -2.5888   -0.7019 H   0  0  0  0  0  0  0  0  0  0  0  0
    1.5077   -3.3172   -1.2953 C   0  0  0  0  0  0  0  0  0  0  0  0
    2.3736   -3.4293   -0.6406 H   0  0  0  0  0  0  0  0  0  0  0  0
    1.0176   -4.2838   -1.4204 H   0  0  0  0  0  0  0  0  0  0  0  0
    1.8483   -2.9556   -2.2675 H   0  0  0  0  0  0  0  0  0  0  0  0
  5  6  2  0  0  0  0
  5  7  1  0  0  0  0
  2  3  1  0  0  0  0
  2  4  1  0  0  0  0
  2  5  1  0  0  0  0
  1  2  1  0  0  0  0
 20 21  2  0  0  0  0
 20 22  1  0  0  0  0
 17 18  1  0  0  0  0
 17 19  2  0  0  0  0
 14 15  1  0  0  0  0
 14 16  1  0  0  0  0
 14 17  1  0  0  0  0
 11 12  1  0  0  0  0
 11 13  1  0  0  0  0
 11 14  1  0  0  0  0
  9 10  1  0  0  0  0
  9 11  1  0  0  0  0
  9 20  1  0  0  0  0
  7  8  1  0  0  0  0
  7  9  1  0  0  0  0
 24 25  1  0  0  0  0
 24 26  1  0  0  0  0
 24 27  1  0  0  0  0
 22 23  1  0  0  0  0
 22 24  1  0  0  0  0
M  CHG  1  18  -1
M  END
$$$$
default_name
  -OEChem-01062215323D

 27 26  0     1  0  0  0  0  0999 V2000
   -3.2406   -3.5400    1.2326 H   0  0  0  0  0  0  0  0  0  0  0  0
   -3.1436   -2.6190    0.6606 C   0  0  0  0  0  0  0  0  0  0  0  0
   -3.8786   -1.8920    0.9996 H   0  0  0  0  0  0  0  0  0  0  0  0
   -3.2846   -2.8280   -0.3984 H   0  0  0  0  0  0  0  0  0  0  0  0
   -1.7586   -2.0580    0.8686 C   0  0  0  0  0  0  0  0  0  0  0  0
   -0.9666   -2.6340    1.6026 O   0  0  0  0  0  0  0  0  0  0  0  0
   -1.4866   -0.9220    0.2366 N   0  0  0  0  0  0  0  0  0  0  0  0
   -2.2166   -0.4790   -0.2994 H   0  0  0  0  0  0  0  0  0  0  0  0
   -0.1956   -0.2250    0.2596 C   0  0  1  0  0  0  0  0  0  0  0  0
   -0.2605    0.6559   -0.3795 H   0  0  0  0  0  0  0  0  0  0  0  0
    0.0905    0.2617    1.6946 C   0  0  0  0  0  0  0  0  0  0  0  0
   -0.0009   -0.5947    2.3645 H   0  0  0  0  0  0  0  0  0  0  0  0
    1.1138    0.6356    1.7507 H   0  0  0  0  0  0  0  0  0  0  0  0
   -0.8748    1.3596    2.1724 C   0  0  0  0  0  0  0  0  0  0  0  0
   -0.7961    2.2203    1.5037 H   0  0  0  0  0  0  0  0  0  0  0  0
   -1.8950    0.9726    2.1049 H   0  0  0  0  0  0  0  0  0  0  0  0
   -0.6043    1.8265    3.6103 C   0  0  0  0  0  0  0  0  0  0  0  0
    0.2476    1.2064    4.2859 O   0  5  0  0  0  0  0  0  0  0  0  0
   -1.2459    2.8250    4.0061 O   0  0  0  0  0  0  0  0  0  0  0  0
    0.9220   -1.1253   -0.3070 C   0  0  0  0  0  0  0  0  0  0  0  0
    2.1081   -0.8550   -0.1074 O   0  0  0  0  0  0  0  0  0  0  0  0
    0.5481   -2.2123   -0.9945 N   0  0  0  0  0  0  0  0  0  0  0  0
   -0.4387   -2.3394   -1.1638 H   0  0  0  0  0  0  0  0  0  0  0  0
    1.4796   -3.1540   -1.6099 C   0  0  0  0  0  0  0  0  0  0  0  0
    2.2177   -3.4762   -0.8735 H   0  0  0  0  0  0  0  0  0  0  0  0
    0.9396   -4.0227   -1.9892 H   0  0  0  0  0  0  0  0  0  0  0  0
    1.9995   -2.6626   -2.4347 H   0  0  0  0  0  0  0  0  0  0  0  0
  5  6  2  0  0  0  0
  5  7  1  0  0  0  0
  2  3  1  0  0  0  0
  2  4  1  0  0  0  0
  2  5  1  0  0  0  0
  1  2  1  0  0  0  0
 20 21  2  0  0  0  0
 20 22  1  0  0  0  0
 17 18  1  0  0  0  0
 17 19  2  0  0  0  0
 14 15  1  0  0  0  0
 14 16  1  0  0  0  0
 14 17  1  0  0  0  0
 11 12  1  0  0  0  0
 11 13  1  0  0  0  0
 11 14  1  0  0  0  0
  9 10  1  0  0  0  0
  9 11  1  0  0  0  0
  9 20  1  0  0  0  0
  7  8  1  0  0  0  0
  7  9  1  0  0  0  0
 24 25  1  0  0  0  0
 24 26  1  0  0  0  0
 24 27  1  0  0  0  0
 22 23  1  0  0  0  0
 22 24  1  0  0  0  0
M  CHG  1  18  -1
M  END
$$$$
default_name
  -OEChem-01062215323D

 27 26  0     1  0  0  0  0  0999 V2000
   -3.2406   -3.5400    1.2326 H   0  0  0  0  0  0  0  0  0  0  0  0
   -3.1436   -2.6190    0.6606 C   0  0  0  0  0  0  0  0  0  0  0  0
   -3.8786   -1.8920    0.9996 H   0  0  0  0  0  0  0  0  0  0  0  0
   -3.2846   -2.8280   -0.3984 H   0  0  0  0  0  0  0  0  0  0  0  0
   -1.7586   -2.0580    0.8686 C   0  0  0  0  0  0  0  0  0  0  0  0
   -0.9666   -2.6340    1.6026 O   0  0  0  0  0  0  0  0  0  0  0  0
   -1.4866   -0.9220    0.2366 N   0  0  0  0  0  0  0  0  0  0  0  0
   -2.2166   -0.4790   -0.2994 H   0  0  0  0  0  0  0  0  0  0  0  0
   -0.1956   -0.2250    0.2596 C   0  0  1  0  0  0  0  0  0  0  0  0
   -0.2605    0.6559   -0.3795 H   0  0  0  0  0  0  0  0  0  0  0  0
    0.0905    0.2617    1.6946 C   0  0  0  0  0  0  0  0  0  0  0  0
   -0.0009   -0.5947    2.3645 H   0  0  0  0  0  0  0  0  0  0  0  0
    1.1138    0.6356    1.7507 H   0  0  0  0  0  0  0  0  0  0  0  0
   -0.8748    1.3596    2.1724 C   0  0  0  0  0  0  0  0  0  0  0  0
   -0.7961    2.2203    1.5037 H   0  0  0  0  0  0  0  0  0  0  0  0
   -1.8950    0.9726    2.1049 H   0  0  0  0  0  0  0  0  0  0  0  0
   -0.6043    1.8265    3.6103 C   0  0  0  0  0  0  0  0  0  0  0  0
    0.2476    1.2064    4.2859 O   0  5  0  0  0  0  0  0  0  0  0  0
   -1.2459    2.8250    4.0061 O   0  0  0  0  0  0  0  0  0  0  0  0
    0.9220   -1.1253   -0.3070 C   0  0  0  0  0  0  0  0  0  0  0  0
    2.0787   -1.0268    0.1077 O   0  0  0  0  0  0  0  0  0  0  0  0
    0.5765   -2.0230   -1.2391 N   0  0  0  0  0  0  0  0  0  0  0  0
   -0.3774   -2.0089   -1.5682 H   0  0  0  0  0  0  0  0  0  0  0  0
    1.5156   -2.9347   -1.8875 C   0  0  0  0  0  0  0  0  0  0  0  0
    2.0978   -3.4631   -1.1307 H   0  0  0  0  0  0  0  0  0  0  0  0
    0.9750   -3.6564   -2.5014 H   0  0  0  0  0  0  0  0  0  0  0  0
    2.1987   -2.3627   -2.5184 H   0  0  0  0  0  0  0  0  0  0  0  0
  5  6  2  0  0  0  0
  5  7  1  0  0  0  0
  2  3  1  0  0  0  0
  2  4  1  0  0  0  0
  2  5  1  0  0  0  0
  1  2  1  0  0  0  0
 20 21  2  0  0  0  0
 20 22  1  0  0  0  0
 17 18  1  0  0  0  0
 17 19  2  0  0  0  0
 14 15  1  0  0  0  0
 14 16  1  0  0  0  0
 14 17  1  0  0  0  0
 11 12  1  0  0  0  0
 11 13  1  0  0  0  0
 11 14  1  0  0  0  0
  9 10  1  0  0  0  0
  9 11  1  0  0  0  0
  9 20  1  0  0  0  0
  7  8  1  0  0  0  0
  7  9  1  0  0  0  0
 24 25  1  0  0  0  0
 24 26  1  0  0  0  0
 24 27  1  0  0  0  0
 22 23  1  0  0  0  0
 22 24  1  0  0  0  0
M  CHG  1  18  -1
M  END
$$$$
default_name
  -OEChem-01062215323D

 27 26  0     1  0  0  0  0  0999 V2000
   -3.2406   -3.5400    1.2326 H   0  0  0  0  0  0  0  0  0  0  0  0
   -3.1436   -2.6190    0.6606 C   0  0  0  0  0  0  0  0  0  0  0  0
   -3.8786   -1.8920    0.9996 H   0  0  0  0  0  0  0  0  0  0  0  0
   -3.2846   -2.8280   -0.3984 H   0  0  0  0  0  0  0  0  0  0  0  0
   -1.7586   -2.0580    0.8686 C   0  0  0  0  0  0  0  0  0  0  0  0
   -0.9666   -2.6340    1.6026 O   0  0  0  0  0  0  0  0  0  0  0  0
   -1.4866   -0.9220    0.2366 N   0  0  0  0  0  0  0  0  0  0  0  0
   -2.2166   -0.4790   -0.2994 H   0  0  0  0  0  0  0  0  0  0  0  0
   -0.1956   -0.2250    0.2596 C   0  0  1  0  0  0  0  0  0  0  0  0
   -0.2605    0.6559   -0.3795 H   0  0  0  0  0  0  0  0  0  0  0  0
    0.0905    0.2617    1.6946 C   0  0  0  0  0  0  0  0  0  0  0  0
   -0.0009   -0.5947    2.3645 H   0  0  0  0  0  0  0  0  0  0  0  0
    1.1138    0.6356    1.7507 H   0  0  0  0  0  0  0  0  0  0  0  0
   -0.8748    1.3596    2.1724 C   0  0  0  0  0  0  0  0  0  0  0  0
   -0.7961    2.2203    1.5037 H   0  0  0  0  0  0  0  0  0  0  0  0
   -1.8950    0.9726    2.1049 H   0  0  0  0  0  0  0  0  0  0  0  0
   -0.6043    1.8265    3.6103 C   0  0  0  0  0  0  0  0  0  0  0  0
    0.2476    1.2064    4.2859 O   0  5  0  0  0  0  0  0  0  0  0  0
   -1.2459    2.8250    4.0061 O   0  0  0  0  0  0  0  0  0  0  0  0
    0.9220   -1.1253   -0.3070 C   0  0  0  0  0  0  0  0  0  0  0  0
    2.0016   -1.2303    0.2789 O   0  0  0  0  0  0  0  0  0  0  0  0
    0.6590   -1.7971   -1.4355 N   0  0  0  0  0  0  0  0  0  0  0  0
   -0.2257   -1.6196   -1.8875 H   0  0  0  0  0  0  0  0  0  0  0  0
    1.6131   -2.6742   -2.1090 C   0  0  0  0  0  0  0  0  0  0  0  0
    2.0221   -3.3909   -1.3949 H   0  0  0  0  0  0  0  0  0  0  0  0
    1.1213   -3.2099   -2.9222 H   0  0  0  0  0  0  0  0  0  0  0  0
    2.4323   -2.0762   -2.5130 H   0  0  0  0  0  0  0  0  0  0  0  0
  5  6  2  0  0  0  0
  5  7  1  0  0  0  0
  2  3  1  0  0  0  0
  2  4  1  0  0  0  0
  2  5  1  0  0  0  0
  1  2  1  0  0  0  0
 20 21  2  0  0  0  0
 20 22  1  0  0  0  0
 17 18  1  0  0  0  0
 17 19  2  0  0  0  0
 14 15  1  0  0  0  0
 14 16  1  0  0  0  0
 14 17  1  0  0  0  0
 11 12  1  0  0  0  0
 11 13  1  0  0  0  0
 11 14  1  0  0  0  0
  9 10  1  0  0  0  0
  9 11  1  0  0  0  0
  9 20  1  0  0  0  0
  7  8  1  0  0  0  0
  7  9  1  0  0  0  0
 24 25  1  0  0  0  0
 24 26  1  0  0  0  0
 24 27  1  0  0  0  0
 22 23  1  0  0  0  0
 22 24  1  0  0  0  0
M  CHG  1  18  -1
M  END
$$$$
default_name
  -OEChem-01062215323D

 27 26  0     1  0  0  0  0  0999 V2000
   -3.2406   -3.5400    1.2326 H   0  0  0  0  0  0  0  0  0  0  0  0
   -3.1436   -2.6190    0.6606 C   0  0  0  0  0  0  0  0  0  0  0  0
   -3.8786   -1.8920    0.9996 H   0  0  0  0  0  0  0  0  0  0  0  0
   -3.2846   -2.8280   -0.3984 H   0  0  0  0  0  0  0  0  0  0  0  0
   -1.7586   -2.0580    0.8686 C   0  0  0  0  0  0  0  0  0  0  0  0
   -0.9666   -2.6340    1.6026 O   0  0  0  0  0  0  0  0  0  0  0  0
   -1.4866   -0.9220    0.2366 N   0  0  0  0  0  0  0  0  0  0  0  0
   -2.2166   -0.4790   -0.2994 H   0  0  0  0  0  0  0  0  0  0  0  0
   -0.1956   -0.2250    0.2596 C   0  0  1  0  0  0  0  0  0  0  0  0
   -0.2605    0.6559   -0.3795 H   0  0  0  0  0  0  0  0  0  0  0  0
    0.0905    0.2617    1.6946 C   0  0  0  0  0  0  0  0  0  0  0  0
   -0.0009   -0.5947    2.3645 H   0  0  0  0  0  0  0  0  0  0  0  0
    1.1138    0.6356    1.7507 H   0  0  0  0  0  0  0  0  0  0  0  0
   -0.8748    1.3596    2.1724 C   0  0  0  0  0  0  0  0  0  0  0  0
   -0.7961    2.2203    1.5037 H   0  0  0  0  0  0  0  0  0  0  0  0
   -1.8950    0.9726    2.1049 H   0  0  0  0  0  0  0  0  0  0  0  0
   -0.6043    1.8265    3.6103 C   0  0  0  0  0  0  0  0  0  0  0  0
    0.2476    1.2064    4.2859 O   0  5  0  0  0  0  0  0  0  0  0  0
   -1.2459    2.8250    4.0061 O   0  0  0  0  0  0  0  0  0  0  0  0
    0.9220   -1.1253   -0.3070 C   0  0  0  0  0  0  0  0  0  0  0  0
    1.8818   -1.4517    0.3944 O   0  0  0  0  0  0  0  0  0  0  0  0
    0.7897   -1.5499   -1.5704 N   0  0  0  0  0  0  0  0  0  0  0  0
    0.0061   -1.1981   -2.1001 H   0  0  0  0  0  0  0  0  0  0  0  0
    1.7655   -2.3904   -2.2595 C   0  0  0  0  0  0  0  0  0  0  0  0
    1.9958   -3.2644   -1.6479 H   0  0  0  0  0  0  0  0  0  0  0  0
    1.3687   -2.7137   -3.2228 H   0  0  0  0  0  0  0  0  0  0  0  0
    2.6843   -1.8226   -2.4188 H   0  0  0  0  0  0  0  0  0  0  0  0
  5  6  2  0  0  0  0
  5  7  1  0  0  0  0
  2  3  1  0  0  0  0
  2  4  1  0  0  0  0
  2  5  1  0  0  0  0
  1  2  1  0  0  0  0
 20 21  2  0  0  0  0
 20 22  1  0  0  0  0
 17 18  1  0  0  0  0
 17 19  2  0  0  0  0
 14 15  1  0  0  0  0
 14 16  1  0  0  0  0
 14 17  1  0  0  0  0
 11 12  1  0  0  0  0
 11 13  1  0  0  0  0
 11 14  1  0  0  0  0
  9 10  1  0  0  0  0
  9 11  1  0  0  0  0
  9 20  1  0  0  0  0
  7  8  1  0  0  0  0
  7  9  1  0  0  0  0
 24 25  1  0  0  0  0
 24 26  1  0  0  0  0
 24 27  1  0  0  0  0
 22 23  1  0  0  0  0
 22 24  1  0  0  0  0
M  CHG  1  18  -1
M  END
$$$$
default_name
  -OEChem-01062215323D

 27 26  0     1  0  0  0  0  0999 V2000
   -3.2406   -3.5400    1.2326 H   0  0  0  0  0  0  0  0  0  0  0  0
   -3.1436   -2.6190    0.6606 C   0  0  0  0  0  0  0  0  0  0  0  0
   -3.8786   -1.8920    0.9996 H   0  0  0  0  0  0  0  0  0  0  0  0
   -3.2846   -2.8280   -0.3984 H   0  0  0  0  0  0  0  0  0  0  0  0
   -1.7586   -2.0580    0.8686 C   0  0  0  0  0  0  0  0  0  0  0  0
   -0.9666   -2.6340    1.6026 O   0  0  0  0  0  0  0  0  0  0  0  0
   -1.4866   -0.9220    0.2366 N   0  0  0  0  0  0  0  0  0  0  0  0
   -2.2166   -0.4790   -0.2994 H   0  0  0  0  0  0  0  0  0  0  0  0
   -0.1956   -0.2250    0.2596 C   0  0  1  0  0  0  0  0  0  0  0  0
   -0.2605    0.6559   -0.3795 H   0  0  0  0  0  0  0  0  0  0  0  0
    0.0905    0.2617    1.6946 C   0  0  0  0  0  0  0  0  0  0  0  0
   -0.0009   -0.5947    2.3645 H   0  0  0  0  0  0  0  0  0  0  0  0
    1.1138    0.6356    1.7507 H   0  0  0  0  0  0  0  0  0  0  0  0
   -0.8748    1.3596    2.1724 C   0  0  0  0  0  0  0  0  0  0  0  0
   -0.7961    2.2203    1.5037 H   0  0  0  0  0  0  0  0  0  0  0  0
   -1.8950    0.9726    2.1049 H   0  0  0  0  0  0  0  0  0  0  0  0
   -0.6043    1.8265    3.6103 C   0  0  0  0  0  0  0  0  0  0  0  0
    0.2476    1.2064    4.2859 O   0  5  0  0  0  0  0  0  0  0  0  0
   -1.2459    2.8250    4.0061 O   0  0  0  0  0  0  0  0  0  0  0  0
    0.9220   -1.1253   -0.3070 C   0  0  0  0  0  0  0  0  0  0  0  0
    1.7277   -1.6758    0.4465 O   0  0  0  0  0  0  0  0  0  0  0  0
    0.9599   -1.2982   -1.6346 N   0  0  0  0  0  0  0  0  0  0  0  0
    0.3021   -0.7731   -2.1915 H   0  0  0  0  0  0  0  0  0  0  0  0
    1.9624   -2.1025   -2.3286 C   0  0  0  0  0  0  0  0  0  0  0  0
    2.0206   -3.0922   -1.8725 H   0  0  0  0  0  0  0  0  0  0  0  0
    1.7001   -2.2016   -3.3829 H   0  0  0  0  0  0  0  0  0  0  0  0
    2.9376   -1.6193   -2.2421 H   0  0  0  0  0  0  0  0  0  0  0  0
  5  6  2  0  0  0  0
  5  7  1  0  0  0  0
  2  3  1  0  0  0  0
  2  4  1  0  0  0  0
  2  5  1  0  0  0  0
  1  2  1  0  0  0  0
 20 21  2  0  0  0  0
 20 22  1  0  0  0  0
 17 18  1  0  0  0  0
 17 19  2  0  0  0  0
 14 15  1  0  0  0  0
 14 16  1  0  0  0  0
 14 17  1  0  0  0  0
 11 12  1  0  0  0  0
 11 13  1  0  0  0  0
 11 14  1  0  0  0  0
  9 10  1  0  0  0  0
  9 11  1  0  0  0  0
  9 20  1  0  0  0  0
  7  8  1  0  0  0  0
  7  9  1  0  0  0  0
 24 25  1  0  0  0  0
 24 26  1  0  0  0  0
 24 27  1  0  0  0  0
 22 23  1  0  0  0  0
 22 24  1  0  0  0  0
M  CHG  1  18  -1
M  END
$$$$
default_name
  -OEChem-01062215323D

 27 26  0     1  0  0  0  0  0999 V2000
   -3.2406   -3.5400    1.2326 H   0  0  0  0  0  0  0  0  0  0  0  0
   -3.1436   -2.6190    0.6606 C   0  0  0  0  0  0  0  0  0  0  0  0
   -3.8786   -1.8920    0.9996 H   0  0  0  0  0  0  0  0  0  0  0  0
   -3.2846   -2.8280   -0.3984 H   0  0  0  0  0  0  0  0  0  0  0  0
   -1.7586   -2.0580    0.8686 C   0  0  0  0  0  0  0  0  0  0  0  0
   -0.9666   -2.6340    1.6026 O   0  0  0  0  0  0  0  0  0  0  0  0
   -1.4866   -0.9220    0.2366 N   0  0  0  0  0  0  0  0  0  0  0  0
   -2.2166   -0.4790   -0.2994 H   0  0  0  0  0  0  0  0  0  0  0  0
   -0.1956   -0.2250    0.2596 C   0  0  1  0  0  0  0  0  0  0  0  0
   -0.2605    0.6559   -0.3795 H   0  0  0  0  0  0  0  0  0  0  0  0
    0.0905    0.2617    1.6946 C   0  0  0  0  0  0  0  0  0  0  0  0
   -0.0009   -0.5947    2.3645 H   0  0  0  0  0  0  0  0  0  0  0  0
    1.1138    0.6356    1.7507 H   0  0  0  0  0  0  0  0  0  0  0  0
   -0.8748    1.3596    2.1724 C   0  0  0  0  0  0  0  0  0  0  0  0
   -0.7961    2.2203    1.5037 H   0  0  0  0  0  0  0  0  0  0  0  0
   -1.8950    0.9726    2.1049 H   0  0  0  0  0  0  0  0  0  0  0  0
   -0.6043    1.8265    3.6103 C   0  0  0  0  0  0  0  0  0  0  0  0
    0.2476    1.2064    4.2859 O   0  5  0  0  0  0  0  0  0  0  0  0
   -1.2459    2.8250    4.0061 O   0  0  0  0  0  0  0  0  0  0  0  0
    0.9220   -1.1253   -0.3070 C   0  0  0  0  0  0  0  0  0  0  0  0
    1.5496   -1.8873    0.4314 O   0  0  0  0  0  0  0  0  0  0  0  0
    1.1579   -1.0593   -1.6238 N   0  0  0  0  0  0  0  0  0  0  0  0
    0.6422   -0.3736   -2.1553 H   0  0  0  0  0  0  0  0  0  0  0  0
    2.1904   -1.8301   -2.3116 C   0  0  0  0  0  0  0  0  0  0  0  0
    2.0948   -2.8862   -2.0535 H   0  0  0  0  0  0  0  0  0  0  0  0
    2.0932   -1.7084   -3.3913 H   0  0  0  0  0  0  0  0  0  0  0  0
    3.1749   -1.4802   -1.9952 H   0  0  0  0  0  0  0  0  0  0  0  0
  5  6  2  0  0  0  0
  5  7  1  0  0  0  0
  2  3  1  0  0  0  0
  2  4  1  0  0  0  0
  2  5  1  0  0  0  0
  1  2  1  0  0  0  0
 20 21  2  0  0  0  0
 20 22  1  0  0  0  0
 17 18  1  0  0  0  0
 17 19  2  0  0  0  0
 14 15  1  0  0  0  0
 14 16  1  0  0  0  0
 14 17  1  0  0  0  0
 11 12  1  0  0  0  0
 11 13  1  0  0  0  0
 11 14  1  0  0  0  0
  9 10  1  0  0  0  0
  9 11  1  0  0  0  0
  9 20  1  0  0  0  0
  7  8  1  0  0  0  0
  7  9  1  0  0  0  0
 24 25  1  0  0  0  0
 24 26  1  0  0  0  0
 24 27  1  0  0  0  0
 22 23  1  0  0  0  0
 22 24  1  0  0  0  0
M  CHG  1  18  -1
M  END
$$$$
default_name
  -OEChem-01062215323D

 27 26  0     1  0  0  0  0  0999 V2000
   -3.2406   -3.5400    1.2326 H   0  0  0  0  0  0  0  0  0  0  0  0
   -3.1436   -2.6190    0.6606 C   0  0  0  0  0  0  0  0  0  0  0  0
   -3.8786   -1.8920    0.9996 H   0  0  0  0  0  0  0  0  0  0  0  0
   -3.2846   -2.8280   -0.3984 H   0  0  0  0  0  0  0  0  0  0  0  0
   -1.7586   -2.0580    0.8686 C   0  0  0  0  0  0  0  0  0  0  0  0
   -0.9666   -2.6340    1.6026 O   0  0  0  0  0  0  0  0  0  0  0  0
   -1.4866   -0.9220    0.2366 N   0  0  0  0  0  0  0  0  0  0  0  0
   -2.2166   -0.4790   -0.2994 H   0  0  0  0  0  0  0  0  0  0  0  0
   -0.1956   -0.2250    0.2596 C   0  0  1  0  0  0  0  0  0  0  0  0
   -0.2605    0.6559   -0.3795 H   0  0  0  0  0  0  0  0  0  0  0  0
    0.0905    0.2617    1.6946 C   0  0  0  0  0  0  0  0  0  0  0  0
   -0.0009   -0.5947    2.3645 H   0  0  0  0  0  0  0  0  0  0  0  0
    1.1138    0.6356    1.7507 H   0  0  0  0  0  0  0  0  0  0  0  0
   -0.8748    1.3596    2.1724 C   0  0  0  0  0  0  0  0  0  0  0  0
   -0.7961    2.2203    1.5037 H   0  0  0  0  0  0  0  0  0  0  0  0
   -1.8950    0.9726    2.1049 H   0  0  0  0  0  0  0  0  0  0  0  0
   -0.6043    1.8265    3.6103 C   0  0  0  0  0  0  0  0  0  0  0  0
    0.2476    1.2064    4.2859 O   0  5  0  0  0  0  0  0  0  0  0  0
   -1.2459    2.8250    4.0061 O   0  0  0  0  0  0  0  0  0  0  0  0
    0.9220   -1.1253   -0.3070 C   0  0  0  0  0  0  0  0  0  0  0  0
    1.3598   -2.0719    0.3503 O   0  0  0  0  0  0  0  0  0  0  0  0
    1.3702   -0.8493   -1.5386 N   0  0  0  0  0  0  0  0  0  0  0  0
    1.0033   -0.0269   -1.9941 H   0  0  0  0  0  0  0  0  0  0  0  0
    2.4339   -1.5919   -2.2097 C   0  0  0  0  0  0  0  0  0  0  0  0
    2.2134   -2.6603   -2.1785 H   0  0  0  0  0  0  0  0  0  0  0  0
    2.5209   -1.2677   -3.2477 H   0  0  0  0  0  0  0  0  0  0  0  0
    3.3801   -1.4146   -1.6947 H   0  0  0  0  0  0  0  0  0  0  0  0
  5  6  2  0  0  0  0
  5  7  1  0  0  0  0
  2  3  1  0  0  0  0
  2  4  1  0  0  0  0
  2  5  1  0  0  0  0
  1  2  1  0  0  0  0
 20 21  2  0  0  0  0
 20 22  1  0  0  0  0
 17 18  1  0  0  0  0
 17 19  2  0  0  0  0
 14 15  1  0  0  0  0
 14 16  1  0  0  0  0
 14 17  1  0  0  0  0
 11 12  1  0  0  0  0
 11 13  1  0  0  0  0
 11 14  1  0  0  0  0
  9 10  1  0  0  0  0
  9 11  1  0  0  0  0
  9 20  1  0  0  0  0
  7  8  1  0  0  0  0
  7  9  1  0  0  0  0
 24 25  1  0  0  0  0
 24 26  1  0  0  0  0
 24 27  1  0  0  0  0
 22 23  1  0  0  0  0
 22 24  1  0  0  0  0
M  CHG  1  18  -1
M  END
$$$$
default_name
  -OEChem-01062215323D

 27 26  0     1  0  0  0  0  0999 V2000
   -3.2406   -3.5400    1.2326 H   0  0  0  0  0  0  0  0  0  0  0  0
   -3.1436   -2.6190    0.6606 C   0  0  0  0  0  0  0  0  0  0  0  0
   -3.8786   -1.8920    0.9996 H   0  0  0  0  0  0  0  0  0  0  0  0
   -3.2846   -2.8280   -0.3984 H   0  0  0  0  0  0  0  0  0  0  0  0
   -1.7586   -2.0580    0.8686 C   0  0  0  0  0  0  0  0  0  0  0  0
   -0.9666   -2.6340    1.6026 O   0  0  0  0  0  0  0  0  0  0  0  0
   -1.4866   -0.9220    0.2366 N   0  0  0  0  0  0  0  0  0  0  0  0
   -2.2166   -0.4790   -0.2994 H   0  0  0  0  0  0  0  0  0  0  0  0
   -0.1956   -0.2250    0.2596 C   0  0  1  0  0  0  0  0  0  0  0  0
   -0.2605    0.6559   -0.3795 H   0  0  0  0  0  0  0  0  0  0  0  0
    0.0905    0.2617    1.6946 C   0  0  0  0  0  0  0  0  0  0  0  0
   -0.0009   -0.5947    2.3645 H   0  0  0  0  0  0  0  0  0  0  0  0
    1.1138    0.6356    1.7507 H   0  0  0  0  0  0  0  0  0  0  0  0
   -0.8748    1.3596    2.1724 C   0  0  0  0  0  0  0  0  0  0  0  0
   -0.7961    2.2203    1.5037 H   0  0  0  0  0  0  0  0  0  0  0  0
   -1.8950    0.9726    2.1049 H   0  0  0  0  0  0  0  0  0  0  0  0
   -0.6043    1.8265    3.6103 C   0  0  0  0  0  0  0  0  0  0  0  0
    0.2476    1.2064    4.2859 O   0  5  0  0  0  0  0  0  0  0  0  0
   -1.2459    2.8250    4.0061 O   0  0  0  0  0  0  0  0  0  0  0  0
    0.9220   -1.1253   -0.3070 C   0  0  0  0  0  0  0  0  0  0  0  0
    1.1712   -2.2170    0.2087 O   0  0  0  0  0  0  0  0  0  0  0  0
    1.5823   -0.6827   -1.3849 N   0  0  0  0  0  0  0  0  0  0  0  0
    1.3606    0.2435   -1.7189 H   0  0  0  0  0  0  0  0  0  0  0  0
    2.6764   -1.4041   -2.0299 C   0  0  0  0  0  0  0  0  0  0  0  0
    2.3683   -2.4299   -2.2390 H   0  0  0  0  0  0  0  0  0  0  0  0
    2.9543   -0.9097   -2.9618 H   0  0  0  0  0  0  0  0  0  0  0  0
    3.5391   -1.4271   -1.3612 H   0  0  0  0  0  0  0  0  0  0  0  0
  5  6  2  0  0  0  0
  5  7  1  0  0  0  0
  2  3  1  0  0  0  0
  2  4  1  0  0  0  0
  2  5  1  0  0  0  0
  1  2  1  0  0  0  0
 20 21  2  0  0  0  0
 20 22  1  0  0  0  0
 17 18  1  0  0  0  0
 17 19  2  0  0  0  0
 14 15  1  0  0  0  0
 14 16  1  0  0  0  0
 14 17  1  0  0  0  0
 11 12  1  0  0  0  0
 11 13  1  0  0  0  0
 11 14  1  0  0  0  0
  9 10  1  0  0  0  0
  9 11  1  0  0  0  0
  9 20  1  0  0  0  0
  7  8  1  0  0  0  0
  7  9  1  0  0  0  0
 24 25  1  0  0  0  0
 24 26  1  0  0  0  0
 24 27  1  0  0  0  0
 22 23  1  0  0  0  0
 22 24  1  0  0  0  0
M  CHG  1  18  -1
M  END
$$$$
default_name
  -OEChem-01062215323D

 27 26  0     1  0  0  0  0  0999 V2000
   -3.2406   -3.5400    1.2326 H   0  0  0  0  0  0  0  0  0  0  0  0
   -3.1436   -2.6190    0.6606 C   0  0  0  0  0  0  0  0  0  0  0  0
   -3.8786   -1.8920    0.9996 H   0  0  0  0  0  0  0  0  0  0  0  0
   -3.2846   -2.8280   -0.3984 H   0  0  0  0  0  0  0  0  0  0  0  0
   -1.7586   -2.0580    0.8686 C   0  0  0  0  0  0  0  0  0  0  0  0
   -0.9666   -2.6340    1.6026 O   0  0  0  0  0  0  0  0  0  0  0  0
   -1.4866   -0.9220    0.2366 N   0  0  0  0  0  0  0  0  0  0  0  0
   -2.2166   -0.4790   -0.2994 H   0  0  0  0  0  0  0  0  0  0  0  0
   -0.1956   -0.2250    0.2596 C   0  0  1  0  0  0  0  0  0  0  0  0
   -0.2605    0.6559   -0.3795 H   0  0  0  0  0  0  0  0  0  0  0  0
    0.0905    0.2617    1.6946 C   0  0  0  0  0  0  0  0  0  0  0  0
   -0.0009   -0.5947    2.3645 H   0  0  0  0  0  0  0  0  0  0  0  0
    1.1138    0.6356    1.7507 H   0  0  0  0  0  0  0  0  0  0  0  0
   -0.8748    1.3596    2.1724 C   0  0  0  0  0  0  0  0  0  0  0  0
   -0.7961    2.2203    1.5037 H   0  0  0  0  0  0  0  0  0  0  0  0
   -1.8950    0.9726    2.1049 H   0  0  0  0  0  0  0  0  0  0  0  0
   -0.6043    1.8265    3.6103 C   0  0  0  0  0  0  0  0  0  0  0  0
    0.2476    1.2064    4.2859 O   0  5  0  0  0  0  0  0  0  0  0  0
   -1.2459    2.8250    4.0061 O   0  0  0  0  0  0  0  0  0  0  0  0
    0.9220   -1.1253   -0.3070 C   0  0  0  0  0  0  0  0  0  0  0  0
    0.9965   -2.3126    0.0163 O   0  0  0  0  0  0  0  0  0  0  0  0
    1.7799   -0.5707   -1.1732 N   0  0  0  0  0  0  0  0  0  0  0  0
    1.6899    0.4191   -1.3484 H   0  0  0  0  0  0  0  0  0  0  0  0
    2.9013   -1.2794   -1.7843 C   0  0  0  0  0  0  0  0  0  0  0  0
    2.5490   -2.2108   -2.2308 H   0  0  0  0  0  0  0  0  0  0  0  0
    3.3638   -0.6587   -2.5530 H   0  0  0  0  0  0  0  0  0  0  0  0
    3.6411   -1.5168   -1.0174 H   0  0  0  0  0  0  0  0  0  0  0  0
  5  6  2  0  0  0  0
  5  7  1  0  0  0  0
  2  3  1  0  0  0  0
  2  4  1  0  0  0  0
  2  5  1  0  0  0  0
  1  2  1  0  0  0  0
 20 21  2  0  0  0  0
 20 22  1  0  0  0  0
 17 18  1  0  0  0  0
 17 19  2  0  0  0  0
 14 15  1  0  0  0  0
 14 16  1  0  0  0  0
 14 17  1  0  0  0  0
 11 12  1  0  0  0  0
 11 13  1  0  0  0  0
 11 14  1  0  0  0  0
  9 10  1  0  0  0  0
  9 11  1  0  0  0  0
  9 20  1  0  0  0  0
  7  8  1  0  0  0  0
  7  9  1  0  0  0  0
 24 25  1  0  0  0  0
 24 26  1  0  0  0  0
 24 27  1  0  0  0  0
 22 23  1  0  0  0  0
 22 24  1  0  0  0  0
M  CHG  1  18  -1
M  END
$$$$
default_name
  -OEChem-01062215323D

 27 26  0     1  0  0  0  0  0999 V2000
   -3.2406   -3.5400    1.2326 H   0  0  0  0  0  0  0  0  0  0  0  0
   -3.1436   -2.6190    0.6606 C   0  0  0  0  0  0  0  0  0  0  0  0
   -3.8786   -1.8920    0.9996 H   0  0  0  0  0  0  0  0  0  0  0  0
   -3.2846   -2.8280   -0.3984 H   0  0  0  0  0  0  0  0  0  0  0  0
   -1.7586   -2.0580    0.8686 C   0  0  0  0  0  0  0  0  0  0  0  0
   -0.9666   -2.6340    1.6026 O   0  0  0  0  0  0  0  0  0  0  0  0
   -1.4866   -0.9220    0.2366 N   0  0  0  0  0  0  0  0  0  0  0  0
   -2.2166   -0.4790   -0.2994 H   0  0  0  0  0  0  0  0  0  0  0  0
   -0.1956   -0.2250    0.2596 C   0  0  1  0  0  0  0  0  0  0  0  0
   -0.2605    0.6559   -0.3795 H   0  0  0  0  0  0  0  0  0  0  0  0
    0.0905    0.2617    1.6946 C   0  0  0  0  0  0  0  0  0  0  0  0
   -0.0009   -0.5947    2.3645 H   0  0  0  0  0  0  0  0  0  0  0  0
    1.1138    0.6356    1.7507 H   0  0  0  0  0  0  0  0  0  0  0  0
   -0.8748    1.3596    2.1724 C   0  0  0  0  0  0  0  0  0  0  0  0
   -0.7961    2.2203    1.5037 H   0  0  0  0  0  0  0  0  0  0  0  0
   -1.8950    0.9726    2.1049 H   0  0  0  0  0  0  0  0  0  0  0  0
   -0.6043    1.8265    3.6103 C   0  0  0  0  0  0  0  0  0  0  0  0
    0.2476    1.2064    4.2859 O   0  5  0  0  0  0  0  0  0  0  0  0
   -1.2459    2.8250    4.0061 O   0  0  0  0  0  0  0  0  0  0  0  0
    0.9220   -1.1253   -0.3070 C   0  0  0  0  0  0  0  0  0  0  0  0
    0.8478   -2.3523   -0.2139 O   0  0  0  0  0  0  0  0  0  0  0  0
    1.9494   -0.5210   -0.9178 N   0  0  0  0  0  0  0  0  0  0  0  0
    1.9688    0.4880   -0.9079 H   0  0  0  0  0  0  0  0  0  0  0  0
    3.0934   -1.2264   -1.4898 C   0  0  0  0  0  0  0  0  0  0  0  0
    2.7431   -2.0179   -2.1546 H   0  0  0  0  0  0  0  0  0  0  0  0
    3.7215   -0.5317   -2.0492 H   0  0  0  0  0  0  0  0  0  0  0  0
    3.6792   -1.6776   -0.6867 H   0  0  0  0  0  0  0  0  0  0  0  0
  5  6  2  0  0  0  0
  5  7  1  0  0  0  0
  2  3  1  0  0  0  0
  2  4  1  0  0  0  0
  2  5  1  0  0  0  0
  1  2  1  0  0  0  0
 20 21  2  0  0  0  0
 20 22  1  0  0  0  0
 17 18  1  0  0  0  0
 17 19  2  0  0  0  0
 14 15  1  0  0  0  0
 14 16  1  0  0  0  0
 14 17  1  0  0  0  0
 11 12  1  0  0  0  0
 11 13  1  0  0  0  0
 11 14  1  0  0  0  0
  9 10  1  0  0  0  0
  9 11  1  0  0  0  0
  9 20  1  0  0  0  0
  7  8  1  0  0  0  0
  7  9  1  0  0  0  0
 24 25  1  0  0  0  0
 24 26  1  0  0  0  0
 24 27  1  0  0  0  0
 22 23  1  0  0  0  0
 22 24  1  0  0  0  0
M  CHG  1  18  -1
M  END
$$$$
default_name
  -OEChem-01062215323D

 27 26  0     1  0  0  0  0  0999 V2000
   -3.2406   -3.5400    1.2326 H   0  0  0  0  0  0  0  0  0  0  0  0
   -3.1436   -2.6190    0.6606 C   0  0  0  0  0  0  0  0  0  0  0  0
   -3.8786   -1.8920    0.9996 H   0  0  0  0  0  0  0  0  0  0  0  0
   -3.2846   -2.8280   -0.3984 H   0  0  0  0  0  0  0  0  0  0  0  0
   -1.7586   -2.0580    0.8686 C   0  0  0  0  0  0  0  0  0  0  0  0
   -0.9666   -2.6340    1.6026 O   0  0  0  0  0  0  0  0  0  0  0  0
   -1.4866   -0.9220    0.2366 N   0  0  0  0  0  0  0  0  0  0  0  0
   -2.2166   -0.4790   -0.2994 H   0  0  0  0  0  0  0  0  0  0  0  0
   -0.1956   -0.2250    0.2596 C   0  0  1  0  0  0  0  0  0  0  0  0
   -0.2605    0.6559   -0.3795 H   0  0  0  0  0  0  0  0  0  0  0  0
    0.0905    0.2617    1.6946 C   0  0  0  0  0  0  0  0  0  0  0  0
   -0.0009   -0.5947    2.3645 H   0  0  0  0  0  0  0  0  0  0  0  0
    1.1138    0.6356    1.7507 H   0  0  0  0  0  0  0  0  0  0  0  0
   -0.8748    1.3596    2.1724 C   0  0  0  0  0  0  0  0  0  0  0  0
   -0.7961    2.2203    1.5037 H   0  0  0  0  0  0  0  0  0  0  0  0
   -1.8950    0.9726    2.1049 H   0  0  0  0  0  0  0  0  0  0  0  0
   -0.6043    1.8265    3.6103 C   0  0  0  0  0  0  0  0  0  0  0  0
    0.2476    1.2064    4.2859 O   0  5  0  0  0  0  0  0  0  0  0  0
   -1.2459    2.8250    4.0061 O   0  0  0  0  0  0  0  0  0  0  0  0
    0.9220   -1.1253   -0.3070 C   0  0  0  0  0  0  0  0  0  0  0  0
    0.7352   -2.3334   -0.4662 O   0  0  0  0  0  0  0  0  0  0  0  0
    2.0793   -0.5369   -0.6363 N   0  0  0  0  0  0  0  0  0  0  0  0
    2.1781    0.4454   -0.4273 H   0  0  0  0  0  0  0  0  0  0  0  0
    3.2394   -1.2487   -1.1664 C   0  0  0  0  0  0  0  0  0  0  0  0
    2.9374   -1.8642   -2.0154 H   0  0  0  0  0  0  0  0  0  0  0  0
    4.0029   -0.5375   -1.4849 H   0  0  0  0  0  0  0  0  0  0  0  0
    3.6508   -1.8986   -0.3916 H   0  0  0  0  0  0  0  0  0  0  0  0
  5  6  2  0  0  0  0
  5  7  1  0  0  0  0
  2  3  1  0  0  0  0
  2  4  1  0  0  0  0
  2  5  1  0  0  0  0
  1  2  1  0  0  0  0
 20 21  2  0  0  0  0
 20 22  1  0  0  0  0
 17 18  1  0  0  0  0
 17 19  2  0  0  0  0
 14 15  1  0  0  0  0
 14 16  1  0  0  0  0
 14 17  1  0  0  0  0
 11 12  1  0  0  0  0
 11 13  1  0  0  0  0
 11 14  1  0  0  0  0
  9 10  1  0  0  0  0
  9 11  1  0  0  0  0
  9 20  1  0  0  0  0
  7  8  1  0  0  0  0
  7  9  1  0  0  0  0
 24 25  1  0  0  0  0
 24 26  1  0  0  0  0
 24 27  1  0  0  0  0
 22 23  1  0  0  0  0
 22 24  1  0  0  0  0
M  CHG  1  18  -1
M  END
$$$$
default_name
  -OEChem-01062215323D

 27 26  0     1  0  0  0  0  0999 V2000
   -3.2406   -3.5400    1.2326 H   0  0  0  0  0  0  0  0  0  0  0  0
   -3.1436   -2.6190    0.6606 C   0  0  0  0  0  0  0  0  0  0  0  0
   -3.8786   -1.8920    0.9996 H   0  0  0  0  0  0  0  0  0  0  0  0
   -3.2846   -2.8280   -0.3984 H   0  0  0  0  0  0  0  0  0  0  0  0
   -1.7586   -2.0580    0.8686 C   0  0  0  0  0  0  0  0  0  0  0  0
   -0.9666   -2.6340    1.6026 O   0  0  0  0  0  0  0  0  0  0  0  0
   -1.4866   -0.9220    0.2366 N   0  0  0  0  0  0  0  0  0  0  0  0
   -2.2166   -0.4790   -0.2994 H   0  0  0  0  0  0  0  0  0  0  0  0
   -0.1956   -0.2250    0.2596 C   0  0  1  0  0  0  0  0  0  0  0  0
   -0.3299    0.7769   -0.1490 H   0  0  0  0  0  0  0  0  0  0  0  0
    0.2703   -0.0723    1.7216 C   0  0  0  0  0  0  0  0  0  0  0  0
    0.2536   -1.0601    2.1847 H   0  0  0  0  0  0  0  0  0  0  0  0
    1.2965    0.2977    1.7358 H   0  0  0  0  0  0  0  0  0  0  0  0
   -0.6173    0.8703    2.5516 C   0  0  0  0  0  0  0  0  0  0  0  0
   -0.6130    1.8618    2.0924 H   0  0  0  0  0  0  0  0  0  0  0  0
   -1.6419    0.4902    2.5232 H   0  0  0  0  0  0  0  0  0  0  0  0
   -0.1667    1.0027    4.0139 C   0  0  0  0  0  0  0  0  0  0  0  0
    0.7556    0.2609    4.4208 O   0  5  0  0  0  0  0  0  0  0  0  0
   -0.7444    1.8731    4.7024 O   0  0  0  0  0  0  0  0  0  0  0  0
    0.8343   -0.9522   -0.6298 C   0  0  0  0  0  0  0  0  0  0  0  0
    0.5176   -1.9642   -1.2586 O   0  0  0  0  0  0  0  0  0  0  0  0
    2.0637   -0.4259   -0.7050 N   0  0  0  0  0  0  0  0  0  0  0  0
    2.2652    0.3717   -0.1204 H   0  0  0  0  0  0  0  0  0  0  0  0
    3.1557   -1.0014   -1.4858 C   0  0  0  0  0  0  0  0  0  0  0  0
    2.8205   -1.1855   -2.5079 H   0  0  0  0  0  0  0  0  0  0  0  0
    4.0077   -0.3202   -1.4986 H   0  0  0  0  0  0  0  0  0  0  0  0
    3.4583   -1.9510   -1.0402 H   0  0  0  0  0  0  0  0  0  0  0  0
  5  6  2  0  0  0  0
  5  7  1  0  0  0  0
  2  3  1  0  0  0  0
  2  4  1  0  0  0  0
  2  5  1  0  0  0  0
  1  2  1  0  0  0  0
 20 21  2  0  0  0  0
 20 22  1  0  0  0  0
 17 18  1  0  0  0  0
 17 19  2  0  0  0  0
 14 15  1  0  0  0  0
 14 16  1  0  0  0  0
 14 17  1  0  0  0  0
 11 12  1  0  0  0  0
 11 13  1  0  0  0  0
 11 14  1  0  0  0  0
  9 10  1  0  0  0  0
  9 11  1  0  0  0  0
  9 20  1  0  0  0  0
  7  8  1  0  0  0  0
  7  9  1  0  0  0  0
 24 25  1  0  0  0  0
 24 26  1  0  0  0  0
 24 27  1  0  0  0  0
 22 23  1  0  0  0  0
 22 24  1  0  0  0  0
M  CHG  1  18  -1
M  END
$$$$
default_name
  -OEChem-01062215323D

 27 26  0     1  0  0  0  0  0999 V2000
   -3.2406   -3.5400    1.2326 H   0  0  0  0  0  0  0  0  0  0  0  0
   -3.1436   -2.6190    0.6606 C   0  0  0  0  0  0  0  0  0  0  0  0
   -3.8786   -1.8920    0.9996 H   0  0  0  0  0  0  0  0  0  0  0  0
   -3.2846   -2.8280   -0.3984 H   0  0  0  0  0  0  0  0  0  0  0  0
   -1.7586   -2.0580    0.8686 C   0  0  0  0  0  0  0  0  0  0  0  0
   -0.9666   -2.6340    1.6026 O   0  0  0  0  0  0  0  0  0  0  0  0
   -1.4866   -0.9220    0.2366 N   0  0  0  0  0  0  0  0  0  0  0  0
   -2.2166   -0.4790   -0.2994 H   0  0  0  0  0  0  0  0  0  0  0  0
   -0.1956   -0.2250    0.2596 C   0  0  1  0  0  0  0  0  0  0  0  0
   -0.3299    0.7769   -0.1490 H   0  0  0  0  0  0  0  0  0  0  0  0
    0.2703   -0.0723    1.7216 C   0  0  0  0  0  0  0  0  0  0  0  0
    0.2536   -1.0601    2.1847 H   0  0  0  0  0  0  0  0  0  0  0  0
    1.2965    0.2977    1.7358 H   0  0  0  0  0  0  0  0  0  0  0  0
   -0.6173    0.8703    2.5516 C   0  0  0  0  0  0  0  0  0  0  0  0
   -0.6130    1.8618    2.0924 H   0  0  0  0  0  0  0  0  0  0  0  0
   -1.6419    0.4902    2.5232 H   0  0  0  0  0  0  0  0  0  0  0  0
   -0.1667    1.0027    4.0139 C   0  0  0  0  0  0  0  0  0  0  0  0
    0.7556    0.2609    4.4208 O   0  5  0  0  0  0  0  0  0  0  0  0
   -0.7444    1.8731    4.7024 O   0  0  0  0  0  0  0  0  0  0  0  0
    0.8343   -0.9522   -0.6298 C   0  0  0  0  0  0  0  0  0  0  0  0
    0.4685   -1.7839   -1.4630 O   0  0  0  0  0  0  0  0  0  0  0  0
    2.1235   -0.6241   -0.4737 N   0  0  0  0  0  0  0  0  0  0  0  0
    2.3527    0.0245    0.2648 H   0  0  0  0  0  0  0  0  0  0  0  0
    3.2207   -1.2314   -1.2225 C   0  0  0  0  0  0  0  0  0  0  0  0
    3.0044   -1.1899   -2.2913 H   0  0  0  0  0  0  0  0  0  0  0  0
    4.1527   -0.7024   -1.0182 H   0  0  0  0  0  0  0  0  0  0  0  0
    3.3259   -2.2771   -0.9269 H   0  0  0  0  0  0  0  0  0  0  0  0
  5  6  2  0  0  0  0
  5  7  1  0  0  0  0
  2  3  1  0  0  0  0
  2  4  1  0  0  0  0
  2  5  1  0  0  0  0
  1  2  1  0  0  0  0
 20 21  2  0  0  0  0
 20 22  1  0  0  0  0
 17 18  1  0  0  0  0
 17 19  2  0  0  0  0
 14 15  1  0  0  0  0
 14 16  1  0  0  0  0
 14 17  1  0  0  0  0
 11 12  1  0  0  0  0
 11 13  1  0  0  0  0
 11 14  1  0  0  0  0
  9 10  1  0  0  0  0
  9 11  1  0  0  0  0
  9 20  1  0  0  0  0
  7  8  1  0  0  0  0
  7  9  1  0  0  0  0
 24 25  1  0  0  0  0
 24 26  1  0  0  0  0
 24 27  1  0  0  0  0
 22 23  1  0  0  0  0
 22 24  1  0  0  0  0
M  CHG  1  18  -1
M  END
$$$$
default_name
  -OEChem-01062215323D

 27 26  0     1  0  0  0  0  0999 V2000
   -3.2406   -3.5400    1.2326 H   0  0  0  0  0  0  0  0  0  0  0  0
   -3.1436   -2.6190    0.6606 C   0  0  0  0  0  0  0  0  0  0  0  0
   -3.8786   -1.8920    0.9996 H   0  0  0  0  0  0  0  0  0  0  0  0
   -3.2846   -2.8280   -0.3984 H   0  0  0  0  0  0  0  0  0  0  0  0
   -1.7586   -2.0580    0.8686 C   0  0  0  0  0  0  0  0  0  0  0  0
   -0.9666   -2.6340    1.6026 O   0  0  0  0  0  0  0  0  0  0  0  0
   -1.4866   -0.9220    0.2366 N   0  0  0  0  0  0  0  0  0  0  0  0
   -2.2166   -0.4790   -0.2994 H   0  0  0  0  0  0  0  0  0  0  0  0
   -0.1956   -0.2250    0.2596 C   0  0  1  0  0  0  0  0  0  0  0  0
   -0.3299    0.7769   -0.1490 H   0  0  0  0  0  0  0  0  0  0  0  0
    0.2703   -0.0723    1.7216 C   0  0  0  0  0  0  0  0  0  0  0  0
    0.2536   -1.0601    2.1847 H   0  0  0  0  0  0  0  0  0  0  0  0
    1.2965    0.2977    1.7358 H   0  0  0  0  0  0  0  0  0  0  0  0
   -0.6173    0.8703    2.5516 C   0  0  0  0  0  0  0  0  0  0  0  0
   -0.6130    1.8618    2.0924 H   0  0  0  0  0  0  0  0  0  0  0  0
   -1.6419    0.4902    2.5232 H   0  0  0  0  0  0  0  0  0  0  0  0
   -0.1667    1.0027    4.0139 C   0  0  0  0  0  0  0  0  0  0  0  0
    0.7556    0.2609    4.4208 O   0  5  0  0  0  0  0  0  0  0  0  0
   -0.7444    1.8731    4.7024 O   0  0  0  0  0  0  0  0  0  0  0  0
    0.8343   -0.9522   -0.6298 C   0  0  0  0  0  0  0  0  0  0  0  0
    0.4728   -1.5671   -1.6352 O   0  0  0  0  0  0  0  0  0  0  0  0
    2.1235   -0.8645   -0.2771 N   0  0  0  0  0  0  0  0  0  0  0  0
    2.3384   -0.3905    0.5875 H   0  0  0  0  0  0  0  0  0  0  0  0
    3.2170   -1.5087   -1.0000 C   0  0  0  0  0  0  0  0  0  0  0  0
    3.1550   -1.2590   -2.0605 H   0  0  0  0  0  0  0  0  0  0  0  0
    4.1771   -1.1762   -0.6026 H   0  0  0  0  0  0  0  0  0  0  0  0
    3.1355   -2.5918   -0.8900 H   0  0  0  0  0  0  0  0  0  0  0  0
  5  6  2  0  0  0  0
  5  7  1  0  0  0  0
  2  3  1  0  0  0  0
  2  4  1  0  0  0  0
  2  5  1  0  0  0  0
  1  2  1  0  0  0  0
 20 21  2  0  0  0  0
 20 22  1  0  0  0  0
 17 18  1  0  0  0  0
 17 19  2  0  0  0  0
 14 15  1  0  0  0  0
 14 16  1  0  0  0  0
 14 17  1  0  0  0  0
 11 12  1  0  0  0  0
 11 13  1  0  0  0  0
 11 14  1  0  0  0  0
  9 10  1  0  0  0  0
  9 11  1  0  0  0  0
  9 20  1  0  0  0  0
  7  8  1  0  0  0  0
  7  9  1  0  0  0  0
 24 25  1  0  0  0  0
 24 26  1  0  0  0  0
 24 27  1  0  0  0  0
 22 23  1  0  0  0  0
 22 24  1  0  0  0  0
M  CHG  1  18  -1
M  END
$$$$
default_name
  -OEChem-01062215323D

 27 26  0     1  0  0  0  0  0999 V2000
   -3.2406   -3.5400    1.2326 H   0  0  0  0  0  0  0  0  0  0  0  0
   -3.1436   -2.6190    0.6606 C   0  0  0  0  0  0  0  0  0  0  0  0
   -3.8786   -1.8920    0.9996 H   0  0  0  0  0  0  0  0  0  0  0  0
   -3.2846   -2.8280   -0.3984 H   0  0  0  0  0  0  0  0  0  0  0  0
   -1.7586   -2.0580    0.8686 C   0  0  0  0  0  0  0  0  0  0  0  0
   -0.9666   -2.6340    1.6026 O   0  0  0  0  0  0  0  0  0  0  0  0
   -1.4866   -0.9220    0.2366 N   0  0  0  0  0  0  0  0  0  0  0  0
   -2.2166   -0.4790   -0.2994 H   0  0  0  0  0  0  0  0  0  0  0  0
   -0.1956   -0.2250    0.2596 C   0  0  1  0  0  0  0  0  0  0  0  0
   -0.3299    0.7769   -0.1490 H   0  0  0  0  0  0  0  0  0  0  0  0
    0.2703   -0.0723    1.7216 C   0  0  0  0  0  0  0  0  0  0  0  0
    0.2536   -1.0601    2.1847 H   0  0  0  0  0  0  0  0  0  0  0  0
    1.2965    0.2977    1.7358 H   0  0  0  0  0  0  0  0  0  0  0  0
   -0.6173    0.8703    2.5516 C   0  0  0  0  0  0  0  0  0  0  0  0
   -0.6130    1.8618    2.0924 H   0  0  0  0  0  0  0  0  0  0  0  0
   -1.6419    0.4902    2.5232 H   0  0  0  0  0  0  0  0  0  0  0  0
   -0.1667    1.0027    4.0139 C   0  0  0  0  0  0  0  0  0  0  0  0
    0.7556    0.2609    4.4208 O   0  5  0  0  0  0  0  0  0  0  0  0
   -0.7444    1.8731    4.7024 O   0  0  0  0  0  0  0  0  0  0  0  0
    0.8343   -0.9522   -0.6298 C   0  0  0  0  0  0  0  0  0  0  0  0
    0.5303   -1.3286   -1.7636 O   0  0  0  0  0  0  0  0  0  0  0  0
    2.0636   -1.1306   -0.1288 N   0  0  0  0  0  0  0  0  0  0  0  0
    2.2233   -0.8449    0.8258 H   0  0  0  0  0  0  0  0  0  0  0  0
    3.1450   -1.8145   -0.8334 C   0  0  0  0  0  0  0  0  0  0  0  0
    3.2619   -1.3880   -1.8311 H   0  0  0  0  0  0  0  0  0  0  0  0
    4.0792   -1.7092   -0.2801 H   0  0  0  0  0  0  0  0  0  0  0  0
    2.9002   -2.8738   -0.9320 H   0  0  0  0  0  0  0  0  0  0  0  0
  5  6  2  0  0  0  0
  5  7  1  0  0  0  0
  2  3  1  0  0  0  0
  2  4  1  0  0  0  0
  2  5  1  0  0  0  0
  1  2  1  0  0  0  0
 20 21  2  0  0  0  0
 20 22  1  0  0  0  0
 17 18  1  0  0  0  0
 17 19  2  0  0  0  0
 14 15  1  0  0  0  0
 14 16  1  0  0  0  0
 14 17  1  0  0  0  0
 11 12  1  0  0  0  0
 11 13  1  0  0  0  0
 11 14  1  0  0  0  0
  9 10  1  0  0  0  0
  9 11  1  0  0  0  0
  9 20  1  0  0  0  0
  7  8  1  0  0  0  0
  7  9  1  0  0  0  0
 24 25  1  0  0  0  0
 24 26  1  0  0  0  0
 24 27  1  0  0  0  0
 22 23  1  0  0  0  0
 22 24  1  0  0  0  0
M  CHG  1  18  -1
M  END
$$$$
default_name
  -OEChem-01062215323D

 27 26  0     1  0  0  0  0  0999 V2000
   -3.2406   -3.5400    1.2326 H   0  0  0  0  0  0  0  0  0  0  0  0
   -3.1436   -2.6190    0.6606 C   0  0  0  0  0  0  0  0  0  0  0  0
   -3.8786   -1.8920    0.9996 H   0  0  0  0  0  0  0  0  0  0  0  0
   -3.2846   -2.8280   -0.3984 H   0  0  0  0  0  0  0  0  0  0  0  0
   -1.7586   -2.0580    0.8686 C   0  0  0  0  0  0  0  0  0  0  0  0
   -0.9666   -2.6340    1.6026 O   0  0  0  0  0  0  0  0  0  0  0  0
   -1.4866   -0.9220    0.2366 N   0  0  0  0  0  0  0  0  0  0  0  0
   -2.2166   -0.4790   -0.2994 H   0  0  0  0  0  0  0  0  0  0  0  0
   -0.1956   -0.2250    0.2596 C   0  0  1  0  0  0  0  0  0  0  0  0
   -0.3299    0.7769   -0.1490 H   0  0  0  0  0  0  0  0  0  0  0  0
    0.2703   -0.0723    1.7216 C   0  0  0  0  0  0  0  0  0  0  0  0
    0.2536   -1.0601    2.1847 H   0  0  0  0  0  0  0  0  0  0  0  0
    1.2965    0.2977    1.7358 H   0  0  0  0  0  0  0  0  0  0  0  0
   -0.6173    0.8703    2.5516 C   0  0  0  0  0  0  0  0  0  0  0  0
   -0.6130    1.8618    2.0924 H   0  0  0  0  0  0  0  0  0  0  0  0
   -1.6419    0.4902    2.5232 H   0  0  0  0  0  0  0  0  0  0  0  0
   -0.1667    1.0027    4.0139 C   0  0  0  0  0  0  0  0  0  0  0  0
    0.7556    0.2609    4.4208 O   0  5  0  0  0  0  0  0  0  0  0  0
   -0.7444    1.8731    4.7024 O   0  0  0  0  0  0  0  0  0  0  0  0
    0.8343   -0.9522   -0.6298 C   0  0  0  0  0  0  0  0  0  0  0  0
    0.6371   -1.0846   -1.8394 O   0  0  0  0  0  0  0  0  0  0  0  0
    1.9480   -1.4044   -0.0388 N   0  0  0  0  0  0  0  0  0  0  0  0
    2.0153   -1.3079    0.9635 H   0  0  0  0  0  0  0  0  0  0  0  0
    3.0095   -2.1278   -0.7341 C   0  0  0  0  0  0  0  0  0  0  0  0
    3.3180   -1.5683   -1.6188 H   0  0  0  0  0  0  0  0  0  0  0  0
    3.8659   -2.2653   -0.0725 H   0  0  0  0  0  0  0  0  0  0  0  0
    2.6359   -3.1038   -1.0500 H   0  0  0  0  0  0  0  0  0  0  0  0
  5  6  2  0  0  0  0
  5  7  1  0  0  0  0
  2  3  1  0  0  0  0
  2  4  1  0  0  0  0
  2  5  1  0  0  0  0
  1  2  1  0  0  0  0
 20 21  2  0  0  0  0
 20 22  1  0  0  0  0
 17 18  1  0  0  0  0
 17 19  2  0  0  0  0
 14 15  1  0  0  0  0
 14 16  1  0  0  0  0
 14 17  1  0  0  0  0
 11 12  1  0  0  0  0
 11 13  1  0  0  0  0
 11 14  1  0  0  0  0
  9 10  1  0  0  0  0
  9 11  1  0  0  0  0
  9 20  1  0  0  0  0
  7  8  1  0  0  0  0
  7  9  1  0  0  0  0
 24 25  1  0  0  0  0
 24 26  1  0  0  0  0
 24 27  1  0  0  0  0
 22 23  1  0  0  0  0
 22 24  1  0  0  0  0
M  CHG  1  18  -1
M  END
$$$$
default_name
  -OEChem-01062215323D

 27 26  0     1  0  0  0  0  0999 V2000
   -3.2406   -3.5400    1.2326 H   0  0  0  0  0  0  0  0  0  0  0  0
   -3.1436   -2.6190    0.6606 C   0  0  0  0  0  0  0  0  0  0  0  0
   -3.8786   -1.8920    0.9996 H   0  0  0  0  0  0  0  0  0  0  0  0
   -3.2846   -2.8280   -0.3984 H   0  0  0  0  0  0  0  0  0  0  0  0
   -1.7586   -2.0580    0.8686 C   0  0  0  0  0  0  0  0  0  0  0  0
   -0.9666   -2.6340    1.6026 O   0  0  0  0  0  0  0  0  0  0  0  0
   -1.4866   -0.9220    0.2366 N   0  0  0  0  0  0  0  0  0  0  0  0
   -2.2166   -0.4790   -0.2994 H   0  0  0  0  0  0  0  0  0  0  0  0
   -0.1956   -0.2250    0.2596 C   0  0  1  0  0  0  0  0  0  0  0  0
   -0.3299    0.7769   -0.1490 H   0  0  0  0  0  0  0  0  0  0  0  0
    0.2703   -0.0723    1.7216 C   0  0  0  0  0  0  0  0  0  0  0  0
    0.2536   -1.0601    2.1847 H   0  0  0  0  0  0  0  0  0  0  0  0
    1.2965    0.2977    1.7358 H   0  0  0  0  0  0  0  0  0  0  0  0
   -0.6173    0.8703    2.5516 C   0  0  0  0  0  0  0  0  0  0  0  0
   -0.6130    1.8618    2.0924 H   0  0  0  0  0  0  0  0  0  0  0  0
   -1.6419    0.4902    2.5232 H   0  0  0  0  0  0  0  0  0  0  0  0
   -0.1667    1.0027    4.0139 C   0  0  0  0  0  0  0  0  0  0  0  0
    0.7556    0.2609    4.4208 O   0  5  0  0  0  0  0  0  0  0  0  0
   -0.7444    1.8731    4.7024 O   0  0  0  0  0  0  0  0  0  0  0  0
    0.8343   -0.9522   -0.6298 C   0  0  0  0  0  0  0  0  0  0  0  0
    0.7859   -0.8518   -1.8575 O   0  0  0  0  0  0  0  0  0  0  0  0
    1.7845   -1.6672   -0.0133 N   0  0  0  0  0  0  0  0  0  0  0  0
    1.7285   -1.7478    0.9911 H   0  0  0  0  0  0  0  0  0  0  0  0
    2.8197   -2.4275   -0.7089 C   0  0  0  0  0  0  0  0  0  0  0  0
    3.3194   -1.7874   -1.4380 H   0  0  0  0  0  0  0  0  0  0  0  0
    3.5515   -2.8064    0.0059 H   0  0  0  0  0  0  0  0  0  0  0  0
    2.3607   -3.2662   -1.2359 H   0  0  0  0  0  0  0  0  0  0  0  0
  5  6  2  0  0  0  0
  5  7  1  0  0  0  0
  2  3  1  0  0  0  0
  2  4  1  0  0  0  0
  2  5  1  0  0  0  0
  1  2  1  0  0  0  0
 20 21  2  0  0  0  0
 20 22  1  0  0  0  0
 17 18  1  0  0  0  0
 17 19  2  0  0  0  0
 14 15  1  0  0  0  0
 14 16  1  0  0  0  0
 14 17  1  0  0  0  0
 11 12  1  0  0  0  0
 11 13  1  0  0  0  0
 11 14  1  0  0  0  0
  9 10  1  0  0  0  0
  9 11  1  0  0  0  0
  9 20  1  0  0  0  0
  7  8  1  0  0  0  0
  7  9  1  0  0  0  0
 24 25  1  0  0  0  0
 24 26  1  0  0  0  0
 24 27  1  0  0  0  0
 22 23  1  0  0  0  0
 22 24  1  0  0  0  0
M  CHG  1  18  -1
M  END
$$$$
default_name
  -OEChem-01062215323D

 27 26  0     1  0  0  0  0  0999 V2000
   -3.2406   -3.5400    1.2326 H   0  0  0  0  0  0  0  0  0  0  0  0
   -3.1436   -2.6190    0.6606 C   0  0  0  0  0  0  0  0  0  0  0  0
   -3.8786   -1.8920    0.9996 H   0  0  0  0  0  0  0  0  0  0  0  0
   -3.2846   -2.8280   -0.3984 H   0  0  0  0  0  0  0  0  0  0  0  0
   -1.7586   -2.0580    0.8686 C   0  0  0  0  0  0  0  0  0  0  0  0
   -0.9666   -2.6340    1.6026 O   0  0  0  0  0  0  0  0  0  0  0  0
   -1.4866   -0.9220    0.2366 N   0  0  0  0  0  0  0  0  0  0  0  0
   -2.2166   -0.4790   -0.2994 H   0  0  0  0  0  0  0  0  0  0  0  0
   -0.1956   -0.2250    0.2596 C   0  0  1  0  0  0  0  0  0  0  0  0
   -0.3299    0.7769   -0.1490 H   0  0  0  0  0  0  0  0  0  0  0  0
    0.2703   -0.0723    1.7216 C   0  0  0  0  0  0  0  0  0  0  0  0
    0.2536   -1.0601    2.1847 H   0  0  0  0  0  0  0  0  0  0  0  0
    1.2965    0.2977    1.7358 H   0  0  0  0  0  0  0  0  0  0  0  0
   -0.6173    0.8703    2.5516 C   0  0  0  0  0  0  0  0  0  0  0  0
   -0.6130    1.8618    2.0924 H   0  0  0  0  0  0  0  0  0  0  0  0
   -1.6419    0.4902    2.5232 H   0  0  0  0  0  0  0  0  0  0  0  0
   -0.1667    1.0027    4.0139 C   0  0  0  0  0  0  0  0  0  0  0  0
    0.7556    0.2609    4.4208 O   0  5  0  0  0  0  0  0  0  0  0  0
   -0.7444    1.8731    4.7024 O   0  0  0  0  0  0  0  0  0  0  0  0
    0.8343   -0.9522   -0.6298 C   0  0  0  0  0  0  0  0  0  0  0  0
    0.9666   -0.6460   -1.8165 O   0  0  0  0  0  0  0  0  0  0  0  0
    1.5843   -1.9010   -0.0540 N   0  0  0  0  0  0  0  0  0  0  0  0
    1.3824   -2.1347    0.9068 H   0  0  0  0  0  0  0  0  0  0  0  0
    2.5886   -2.6929   -0.7595 C   0  0  0  0  0  0  0  0  0  0  0  0
    3.2660   -2.0306   -1.3010 H   0  0  0  0  0  0  0  0  0  0  0  0
    3.1575   -3.2957   -0.0502 H   0  0  0  0  0  0  0  0  0  0  0  0
    2.0933   -3.3499   -1.4771 H   0  0  0  0  0  0  0  0  0  0  0  0
  5  6  2  0  0  0  0
  5  7  1  0  0  0  0
  2  3  1  0  0  0  0
  2  4  1  0  0  0  0
  2  5  1  0  0  0  0
  1  2  1  0  0  0  0
 20 21  2  0  0  0  0
 20 22  1  0  0  0  0
 17 18  1  0  0  0  0
 17 19  2  0  0  0  0
 14 15  1  0  0  0  0
 14 16  1  0  0  0  0
 14 17  1  0  0  0  0
 11 12  1  0  0  0  0
 11 13  1  0  0  0  0
 11 14  1  0  0  0  0
  9 10  1  0  0  0  0
  9 11  1  0  0  0  0
  9 20  1  0  0  0  0
  7  8  1  0  0  0  0
  7  9  1  0  0  0  0
 24 25  1  0  0  0  0
 24 26  1  0  0  0  0
 24 27  1  0  0  0  0
 22 23  1  0  0  0  0
 22 24  1  0  0  0  0
M  CHG  1  18  -1
M  END
$$$$
default_name
  -OEChem-01062215323D

 27 26  0     1  0  0  0  0  0999 V2000
   -3.2406   -3.5400    1.2326 H   0  0  0  0  0  0  0  0  0  0  0  0
   -3.1436   -2.6190    0.6606 C   0  0  0  0  0  0  0  0  0  0  0  0
   -3.8786   -1.8920    0.9996 H   0  0  0  0  0  0  0  0  0  0  0  0
   -3.2846   -2.8280   -0.3984 H   0  0  0  0  0  0  0  0  0  0  0  0
   -1.7586   -2.0580    0.8686 C   0  0  0  0  0  0  0  0  0  0  0  0
   -0.9666   -2.6340    1.6026 O   0  0  0  0  0  0  0  0  0  0  0  0
   -1.4866   -0.9220    0.2366 N   0  0  0  0  0  0  0  0  0  0  0  0
   -2.2166   -0.4790   -0.2994 H   0  0  0  0  0  0  0  0  0  0  0  0
   -0.1956   -0.2250    0.2596 C   0  0  1  0  0  0  0  0  0  0  0  0
   -0.3299    0.7769   -0.1490 H   0  0  0  0  0  0  0  0  0  0  0  0
    0.2703   -0.0723    1.7216 C   0  0  0  0  0  0  0  0  0  0  0  0
    0.2536   -1.0601    2.1847 H   0  0  0  0  0  0  0  0  0  0  0  0
    1.2965    0.2977    1.7358 H   0  0  0  0  0  0  0  0  0  0  0  0
   -0.6173    0.8703    2.5516 C   0  0  0  0  0  0  0  0  0  0  0  0
   -0.6130    1.8618    2.0924 H   0  0  0  0  0  0  0  0  0  0  0  0
   -1.6419    0.4902    2.5232 H   0  0  0  0  0  0  0  0  0  0  0  0
   -0.1667    1.0027    4.0139 C   0  0  0  0  0  0  0  0  0  0  0  0
    0.7556    0.2609    4.4208 O   0  5  0  0  0  0  0  0  0  0  0  0
   -0.7444    1.8731    4.7024 O   0  0  0  0  0  0  0  0  0  0  0  0
    0.8343   -0.9522   -0.6298 C   0  0  0  0  0  0  0  0  0  0  0  0
    1.1669   -0.4812   -1.7194 O   0  0  0  0  0  0  0  0  0  0  0  0
    1.3610   -2.0899   -0.1581 N   0  0  0  0  0  0  0  0  0  0  0  0
    1.0007   -2.4423    0.7162 H   0  0  0  0  0  0  0  0  0  0  0  0
    2.3319   -2.9061   -0.8824 C   0  0  0  0  0  0  0  0  0  0  0  0
    3.1614   -2.2811   -1.2173 H   0  0  0  0  0  0  0  0  0  0  0  0
    2.7108   -3.6999   -0.2370 H   0  0  0  0  0  0  0  0  0  0  0  0
    1.8519   -3.3491   -1.7571 H   0  0  0  0  0  0  0  0  0  0  0  0
  5  6  2  0  0  0  0
  5  7  1  0  0  0  0
  2  3  1  0  0  0  0
  2  4  1  0  0  0  0
  2  5  1  0  0  0  0
  1  2  1  0  0  0  0
 20 21  2  0  0  0  0
 20 22  1  0  0  0  0
 17 18  1  0  0  0  0
 17 19  2  0  0  0  0
 14 15  1  0  0  0  0
 14 16  1  0  0  0  0
 14 17  1  0  0  0  0
 11 12  1  0  0  0  0
 11 13  1  0  0  0  0
 11 14  1  0  0  0  0
  9 10  1  0  0  0  0
  9 11  1  0  0  0  0
  9 20  1  0  0  0  0
  7  8  1  0  0  0  0
  7  9  1  0  0  0  0
 24 25  1  0  0  0  0
 24 26  1  0  0  0  0
 24 27  1  0  0  0  0
 22 23  1  0  0  0  0
 22 24  1  0  0  0  0
M  CHG  1  18  -1
M  END
$$$$
default_name
  -OEChem-01062215323D

 27 26  0     1  0  0  0  0  0999 V2000
   -3.2406   -3.5400    1.2326 H   0  0  0  0  0  0  0  0  0  0  0  0
   -3.1436   -2.6190    0.6606 C   0  0  0  0  0  0  0  0  0  0  0  0
   -3.8786   -1.8920    0.9996 H   0  0  0  0  0  0  0  0  0  0  0  0
   -3.2846   -2.8280   -0.3984 H   0  0  0  0  0  0  0  0  0  0  0  0
   -1.7586   -2.0580    0.8686 C   0  0  0  0  0  0  0  0  0  0  0  0
   -0.9666   -2.6340    1.6026 O   0  0  0  0  0  0  0  0  0  0  0  0
   -1.4866   -0.9220    0.2366 N   0  0  0  0  0  0  0  0  0  0  0  0
   -2.2166   -0.4790   -0.2994 H   0  0  0  0  0  0  0  0  0  0  0  0
   -0.1956   -0.2250    0.2596 C   0  0  1  0  0  0  0  0  0  0  0  0
   -0.3299    0.7769   -0.1490 H   0  0  0  0  0  0  0  0  0  0  0  0
    0.2703   -0.0723    1.7216 C   0  0  0  0  0  0  0  0  0  0  0  0
    0.2536   -1.0601    2.1847 H   0  0  0  0  0  0  0  0  0  0  0  0
    1.2965    0.2977    1.7358 H   0  0  0  0  0  0  0  0  0  0  0  0
   -0.6173    0.8703    2.5516 C   0  0  0  0  0  0  0  0  0  0  0  0
   -0.6130    1.8618    2.0924 H   0  0  0  0  0  0  0  0  0  0  0  0
   -1.6419    0.4902    2.5232 H   0  0  0  0  0  0  0  0  0  0  0  0
   -0.1667    1.0027    4.0139 C   0  0  0  0  0  0  0  0  0  0  0  0
    0.7556    0.2609    4.4208 O   0  5  0  0  0  0  0  0  0  0  0  0
   -0.7444    1.8731    4.7024 O   0  0  0  0  0  0  0  0  0  0  0  0
    0.8343   -0.9522   -0.6298 C   0  0  0  0  0  0  0  0  0  0  0  0
    1.3730   -0.3687   -1.5726 O   0  0  0  0  0  0  0  0  0  0  0  0
    1.1298   -2.2211   -0.3186 N   0  0  0  0  0  0  0  0  0  0  0  0
    0.6094   -2.6495    0.4325 H   0  0  0  0  0  0  0  0  0  0  0  0
    2.0672   -3.0525   -1.0692 C   0  0  0  0  0  0  0  0  0  0  0  0
    3.0128   -2.5220   -1.1924 H   0  0  0  0  0  0  0  0  0  0  0  0
    2.2418   -3.9913   -0.5417 H   0  0  0  0  0  0  0  0  0  0  0  0
    1.6531   -3.2640   -2.0570 H   0  0  0  0  0  0  0  0  0  0  0  0
  5  6  2  0  0  0  0
  5  7  1  0  0  0  0
  2  3  1  0  0  0  0
  2  4  1  0  0  0  0
  2  5  1  0  0  0  0
  1  2  1  0  0  0  0
 20 21  2  0  0  0  0
 20 22  1  0  0  0  0
 17 18  1  0  0  0  0
 17 19  2  0  0  0  0
 14 15  1  0  0  0  0
 14 16  1  0  0  0  0
 14 17  1  0  0  0  0
 11 12  1  0  0  0  0
 11 13  1  0  0  0  0
 11 14  1  0  0  0  0
  9 10  1  0  0  0  0
  9 11  1  0  0  0  0
  9 20  1  0  0  0  0
  7  8  1  0  0  0  0
  7  9  1  0  0  0  0
 24 25  1  0  0  0  0
 24 26  1  0  0  0  0
 24 27  1  0  0  0  0
 22 23  1  0  0  0  0
 22 24  1  0  0  0  0
M  CHG  1  18  -1
M  END
$$$$
default_name
  -OEChem-01062215323D

 27 26  0     1  0  0  0  0  0999 V2000
   -3.2406   -3.5400    1.2326 H   0  0  0  0  0  0  0  0  0  0  0  0
   -3.1436   -2.6190    0.6606 C   0  0  0  0  0  0  0  0  0  0  0  0
   -3.8786   -1.8920    0.9996 H   0  0  0  0  0  0  0  0  0  0  0  0
   -3.2846   -2.8280   -0.3984 H   0  0  0  0  0  0  0  0  0  0  0  0
   -1.7586   -2.0580    0.8686 C   0  0  0  0  0  0  0  0  0  0  0  0
   -0.9666   -2.6340    1.6026 O   0  0  0  0  0  0  0  0  0  0  0  0
   -1.4866   -0.9220    0.2366 N   0  0  0  0  0  0  0  0  0  0  0  0
   -2.2166   -0.4790   -0.2994 H   0  0  0  0  0  0  0  0  0  0  0  0
   -0.1956   -0.2250    0.2596 C   0  0  1  0  0  0  0  0  0  0  0  0
   -0.3299    0.7769   -0.1490 H   0  0  0  0  0  0  0  0  0  0  0  0
    0.2703   -0.0723    1.7216 C   0  0  0  0  0  0  0  0  0  0  0  0
    0.2536   -1.0601    2.1847 H   0  0  0  0  0  0  0  0  0  0  0  0
    1.2965    0.2977    1.7358 H   0  0  0  0  0  0  0  0  0  0  0  0
   -0.6173    0.8703    2.5516 C   0  0  0  0  0  0  0  0  0  0  0  0
   -0.6130    1.8618    2.0924 H   0  0  0  0  0  0  0  0  0  0  0  0
   -1.6419    0.4902    2.5232 H   0  0  0  0  0  0  0  0  0  0  0  0
   -0.1667    1.0027    4.0139 C   0  0  0  0  0  0  0  0  0  0  0  0
    0.7556    0.2609    4.4208 O   0  5  0  0  0  0  0  0  0  0  0  0
   -0.7444    1.8731    4.7024 O   0  0  0  0  0  0  0  0  0  0  0  0
    0.8343   -0.9522   -0.6298 C   0  0  0  0  0  0  0  0  0  0  0  0
    1.5710   -0.3162   -1.3863 O   0  0  0  0  0  0  0  0  0  0  0  0
    0.9064   -2.2856   -0.5245 N   0  0  0  0  0  0  0  0  0  0  0  0
    0.2351   -2.7422    0.0749 H   0  0  0  0  0  0  0  0  0  0  0  0
    1.8124   -3.1222   -1.3072 C   0  0  0  0  0  0  0  0  0  0  0  0
    2.8303   -2.7367   -1.2281 H   0  0  0  0  0  0  0  0  0  0  0  0
    1.7825   -4.1503   -0.9437 H   0  0  0  0  0  0  0  0  0  0  0  0
    1.5103   -3.1003   -2.3561 H   0  0  0  0  0  0  0  0  0  0  0  0
  5  6  2  0  0  0  0
  5  7  1  0  0  0  0
  2  3  1  0  0  0  0
  2  4  1  0  0  0  0
  2  5  1  0  0  0  0
  1  2  1  0  0  0  0
 20 21  2  0  0  0  0
 20 22  1  0  0  0  0
 17 18  1  0  0  0  0
 17 19  2  0  0  0  0
 14 15  1  0  0  0  0
 14 16  1  0  0  0  0
 14 17  1  0  0  0  0
 11 12  1  0  0  0  0
 11 13  1  0  0  0  0
 11 14  1  0  0  0  0
  9 10  1  0  0  0  0
  9 11  1  0  0  0  0
  9 20  1  0  0  0  0
  7  8  1  0  0  0  0
  7  9  1  0  0  0  0
 24 25  1  0  0  0  0
 24 26  1  0  0  0  0
 24 27  1  0  0  0  0
 22 23  1  0  0  0  0
 22 24  1  0  0  0  0
M  CHG  1  18  -1
M  END
$$$$
default_name
  -OEChem-01062215323D

 27 26  0     1  0  0  0  0  0999 V2000
   -3.2406   -3.5400    1.2326 H   0  0  0  0  0  0  0  0  0  0  0  0
   -3.1436   -2.6190    0.6606 C   0  0  0  0  0  0  0  0  0  0  0  0
   -3.8786   -1.8920    0.9996 H   0  0  0  0  0  0  0  0  0  0  0  0
   -3.2846   -2.8280   -0.3984 H   0  0  0  0  0  0  0  0  0  0  0  0
   -1.7586   -2.0580    0.8686 C   0  0  0  0  0  0  0  0  0  0  0  0
   -0.9666   -2.6340    1.6026 O   0  0  0  0  0  0  0  0  0  0  0  0
   -1.4866   -0.9220    0.2366 N   0  0  0  0  0  0  0  0  0  0  0  0
   -2.2166   -0.4790   -0.2994 H   0  0  0  0  0  0  0  0  0  0  0  0
   -0.1956   -0.2250    0.2596 C   0  0  1  0  0  0  0  0  0  0  0  0
   -0.3299    0.7769   -0.1490 H   0  0  0  0  0  0  0  0  0  0  0  0
    0.2703   -0.0723    1.7216 C   0  0  0  0  0  0  0  0  0  0  0  0
    0.2536   -1.0601    2.1847 H   0  0  0  0  0  0  0  0  0  0  0  0
    1.2965    0.2977    1.7358 H   0  0  0  0  0  0  0  0  0  0  0  0
   -0.6173    0.8703    2.5516 C   0  0  0  0  0  0  0  0  0  0  0  0
   -0.6130    1.8618    2.0924 H   0  0  0  0  0  0  0  0  0  0  0  0
   -1.6419    0.4902    2.5232 H   0  0  0  0  0  0  0  0  0  0  0  0
   -0.1667    1.0027    4.0139 C   0  0  0  0  0  0  0  0  0  0  0  0
    0.7556    0.2609    4.4208 O   0  5  0  0  0  0  0  0  0  0  0  0
   -0.7444    1.8731    4.7024 O   0  0  0  0  0  0  0  0  0  0  0  0
    0.8343   -0.9522   -0.6298 C   0  0  0  0  0  0  0  0  0  0  0  0
    1.7474   -0.3272   -1.1731 O   0  0  0  0  0  0  0  0  0  0  0  0
    0.7062   -2.2790   -0.7617 N   0  0  0  0  0  0  0  0  0  0  0  0
   -0.0966   -2.7142   -0.3321 H   0  0  0  0  0  0  0  0  0  0  0  0
    1.5850   -3.1103   -1.5803 C   0  0  0  0  0  0  0  0  0  0  0  0
    2.6263   -2.9108   -1.3220 H   0  0  0  0  0  0  0  0  0  0  0  0
    1.3641   -4.1658   -1.4154 H   0  0  0  0  0  0  0  0  0  0  0  0
    1.4333   -2.8692   -2.6342 H   0  0  0  0  0  0  0  0  0  0  0  0
  5  6  2  0  0  0  0
  5  7  1  0  0  0  0
  2  3  1  0  0  0  0
  2  4  1  0  0  0  0
  2  5  1  0  0  0  0
  1  2  1  0  0  0  0
 20 21  2  0  0  0  0
 20 22  1  0  0  0  0
 17 18  1  0  0  0  0
 17 19  2  0  0  0  0
 14 15  1  0  0  0  0
 14 16  1  0  0  0  0
 14 17  1  0  0  0  0
 11 12  1  0  0  0  0
 11 13  1  0  0  0  0
 11 14  1  0  0  0  0
  9 10  1  0  0  0  0
  9 11  1  0  0  0  0
  9 20  1  0  0  0  0
  7  8  1  0  0  0  0
  7  9  1  0  0  0  0
 24 25  1  0  0  0  0
 24 26  1  0  0  0  0
 24 27  1  0  0  0  0
 22 23  1  0  0  0  0
 22 24  1  0  0  0  0
M  CHG  1  18  -1
M  END
$$$$
default_name
  -OEChem-01062215323D

 27 26  0     1  0  0  0  0  0999 V2000
   -3.2406   -3.5400    1.2326 H   0  0  0  0  0  0  0  0  0  0  0  0
   -3.1436   -2.6190    0.6606 C   0  0  0  0  0  0  0  0  0  0  0  0
   -3.8786   -1.8920    0.9996 H   0  0  0  0  0  0  0  0  0  0  0  0
   -3.2846   -2.8280   -0.3984 H   0  0  0  0  0  0  0  0  0  0  0  0
   -1.7586   -2.0580    0.8686 C   0  0  0  0  0  0  0  0  0  0  0  0
   -0.9666   -2.6340    1.6026 O   0  0  0  0  0  0  0  0  0  0  0  0
   -1.4866   -0.9220    0.2366 N   0  0  0  0  0  0  0  0  0  0  0  0
   -2.2166   -0.4790   -0.2994 H   0  0  0  0  0  0  0  0  0  0  0  0
   -0.1956   -0.2250    0.2596 C   0  0  1  0  0  0  0  0  0  0  0  0
   -0.3299    0.7769   -0.1490 H   0  0  0  0  0  0  0  0  0  0  0  0
    0.2703   -0.0723    1.7216 C   0  0  0  0  0  0  0  0  0  0  0  0
    0.2536   -1.0601    2.1847 H   0  0  0  0  0  0  0  0  0  0  0  0
    1.2965    0.2977    1.7358 H   0  0  0  0  0  0  0  0  0  0  0  0
   -0.6173    0.8703    2.5516 C   0  0  0  0  0  0  0  0  0  0  0  0
   -0.6130    1.8618    2.0924 H   0  0  0  0  0  0  0  0  0  0  0  0
   -1.6419    0.4902    2.5232 H   0  0  0  0  0  0  0  0  0  0  0  0
   -0.1667    1.0027    4.0139 C   0  0  0  0  0  0  0  0  0  0  0  0
    0.7556    0.2609    4.4208 O   0  5  0  0  0  0  0  0  0  0  0  0
   -0.7444    1.8731    4.7024 O   0  0  0  0  0  0  0  0  0  0  0  0
    0.8343   -0.9522   -0.6298 C   0  0  0  0  0  0  0  0  0  0  0  0
    1.8901   -0.4009   -0.9476 O   0  0  0  0  0  0  0  0  0  0  0  0
    0.5427   -2.2018   -1.0141 N   0  0  0  0  0  0  0  0  0  0  0  0
   -0.3632   -2.5673   -0.7610 H   0  0  0  0  0  0  0  0  0  0  0  0
    1.4004   -3.0177   -1.8697 C   0  0  0  0  0  0  0  0  0  0  0  0
    2.4148   -3.0323   -1.4676 H   0  0  0  0  0  0  0  0  0  0  0  0
    1.0152   -4.0369   -1.9248 H   0  0  0  0  0  0  0  0  0  0  0  0
    1.4274   -2.5865   -2.8723 H   0  0  0  0  0  0  0  0  0  0  0  0
  5  6  2  0  0  0  0
  5  7  1  0  0  0  0
  2  3  1  0  0  0  0
  2  4  1  0  0  0  0
  2  5  1  0  0  0  0
  1  2  1  0  0  0  0
 20 21  2  0  0  0  0
 20 22  1  0  0  0  0
 17 18  1  0  0  0  0
 17 19  2  0  0  0  0
 14 15  1  0  0  0  0
 14 16  1  0  0  0  0
 14 17  1  0  0  0  0
 11 12  1  0  0  0  0
 11 13  1  0  0  0  0
 11 14  1  0  0  0  0
  9 10  1  0  0  0  0
  9 11  1  0  0  0  0
  9 20  1  0  0  0  0
  7  8  1  0  0  0  0
  7  9  1  0  0  0  0
 24 25  1  0  0  0  0
 24 26  1  0  0  0  0
 24 27  1  0  0  0  0
 22 23  1  0  0  0  0
 22 24  1  0  0  0  0
M  CHG  1  18  -1
M  END
$$$$
default_name
  -OEChem-01062215323D

 27 26  0     1  0  0  0  0  0999 V2000
   -3.2406   -3.5400    1.2326 H   0  0  0  0  0  0  0  0  0  0  0  0
   -3.1436   -2.6190    0.6606 C   0  0  0  0  0  0  0  0  0  0  0  0
   -3.8786   -1.8920    0.9996 H   0  0  0  0  0  0  0  0  0  0  0  0
   -3.2846   -2.8280   -0.3984 H   0  0  0  0  0  0  0  0  0  0  0  0
   -1.7586   -2.0580    0.8686 C   0  0  0  0  0  0  0  0  0  0  0  0
   -0.9666   -2.6340    1.6026 O   0  0  0  0  0  0  0  0  0  0  0  0
   -1.4866   -0.9220    0.2366 N   0  0  0  0  0  0  0  0  0  0  0  0
   -2.2166   -0.4790   -0.2994 H   0  0  0  0  0  0  0  0  0  0  0  0
   -0.1956   -0.2250    0.2596 C   0  0  1  0  0  0  0  0  0  0  0  0
   -0.3299    0.7769   -0.1490 H   0  0  0  0  0  0  0  0  0  0  0  0
    0.2703   -0.0723    1.7216 C   0  0  0  0  0  0  0  0  0  0  0  0
    0.2536   -1.0601    2.1847 H   0  0  0  0  0  0  0  0  0  0  0  0
    1.2965    0.2977    1.7358 H   0  0  0  0  0  0  0  0  0  0  0  0
   -0.6173    0.8703    2.5516 C   0  0  0  0  0  0  0  0  0  0  0  0
   -0.6130    1.8618    2.0924 H   0  0  0  0  0  0  0  0  0  0  0  0
   -1.6419    0.4902    2.5232 H   0  0  0  0  0  0  0  0  0  0  0  0
   -0.1667    1.0027    4.0139 C   0  0  0  0  0  0  0  0  0  0  0  0
    0.7556    0.2609    4.4208 O   0  5  0  0  0  0  0  0  0  0  0  0
   -0.7444    1.8731    4.7024 O   0  0  0  0  0  0  0  0  0  0  0  0
    0.8343   -0.9522   -0.6298 C   0  0  0  0  0  0  0  0  0  0  0  0
    1.9895   -0.5324   -0.7250 O   0  0  0  0  0  0  0  0  0  0  0  0
    0.4271   -2.0592   -1.2646 N   0  0  0  0  0  0  0  0  0  0  0  0
   -0.5465   -2.3115   -1.1823 H   0  0  0  0  0  0  0  0  0  0  0  0
    1.2712   -2.8508   -2.1559 C   0  0  0  0  0  0  0  0  0  0  0  0
    2.2101   -3.0929   -1.6551 H   0  0  0  0  0  0  0  0  0  0  0  0
    0.7596   -3.7724   -2.4371 H   0  0  0  0  0  0  0  0  0  0  0  0
    1.4928   -2.2713   -3.0542 H   0  0  0  0  0  0  0  0  0  0  0  0
  5  6  2  0  0  0  0
  5  7  1  0  0  0  0
  2  3  1  0  0  0  0
  2  4  1  0  0  0  0
  2  5  1  0  0  0  0
  1  2  1  0  0  0  0
 20 21  2  0  0  0  0
 20 22  1  0  0  0  0
 17 18  1  0  0  0  0
 17 19  2  0  0  0  0
 14 15  1  0  0  0  0
 14 16  1  0  0  0  0
 14 17  1  0  0  0  0
 11 12  1  0  0  0  0
 11 13  1  0  0  0  0
 11 14  1  0  0  0  0
  9 10  1  0  0  0  0
  9 11  1  0  0  0  0
  9 20  1  0  0  0  0
  7  8  1  0  0  0  0
  7  9  1  0  0  0  0
 24 25  1  0  0  0  0
 24 26  1  0  0  0  0
 24 27  1  0  0  0  0
 22 23  1  0  0  0  0
 22 24  1  0  0  0  0
M  CHG  1  18  -1
M  END
$$$$
default_name
  -OEChem-01062215323D

 27 26  0     1  0  0  0  0  0999 V2000
   -3.2406   -3.5400    1.2326 H   0  0  0  0  0  0  0  0  0  0  0  0
   -3.1436   -2.6190    0.6606 C   0  0  0  0  0  0  0  0  0  0  0  0
   -3.8786   -1.8920    0.9996 H   0  0  0  0  0  0  0  0  0  0  0  0
   -3.2846   -2.8280   -0.3984 H   0  0  0  0  0  0  0  0  0  0  0  0
   -1.7586   -2.0580    0.8686 C   0  0  0  0  0  0  0  0  0  0  0  0
   -0.9666   -2.6340    1.6026 O   0  0  0  0  0  0  0  0  0  0  0  0
   -1.4866   -0.9220    0.2366 N   0  0  0  0  0  0  0  0  0  0  0  0
   -2.2166   -0.4790   -0.2994 H   0  0  0  0  0  0  0  0  0  0  0  0
   -0.1956   -0.2250    0.2596 C   0  0  1  0  0  0  0  0  0  0  0  0
   -0.3299    0.7769   -0.1490 H   0  0  0  0  0  0  0  0  0  0  0  0
    0.2703   -0.0723    1.7216 C   0  0  0  0  0  0  0  0  0  0  0  0
    0.2536   -1.0601    2.1847 H   0  0  0  0  0  0  0  0  0  0  0  0
    1.2965    0.2977    1.7358 H   0  0  0  0  0  0  0  0  0  0  0  0
   -0.6173    0.8703    2.5516 C   0  0  0  0  0  0  0  0  0  0  0  0
   -0.6130    1.8618    2.0924 H   0  0  0  0  0  0  0  0  0  0  0  0
   -1.6419    0.4902    2.5232 H   0  0  0  0  0  0  0  0  0  0  0  0
   -0.1667    1.0027    4.0139 C   0  0  0  0  0  0  0  0  0  0  0  0
    0.7556    0.2609    4.4208 O   0  5  0  0  0  0  0  0  0  0  0  0
   -0.7444    1.8731    4.7024 O   0  0  0  0  0  0  0  0  0  0  0  0
    0.8343   -0.9522   -0.6298 C   0  0  0  0  0  0  0  0  0  0  0  0
    2.0386   -0.7127   -0.5207 O   0  0  0  0  0  0  0  0  0  0  0  0
    0.3673   -1.8609   -1.4959 N   0  0  0  0  0  0  0  0  0  0  0  0
   -0.6340   -1.9643   -1.5675 H   0  0  0  0  0  0  0  0  0  0  0  0
    1.2062   -2.6208   -2.4191 C   0  0  0  0  0  0  0  0  0  0  0  0
    2.0262   -3.0885   -1.8716 H   0  0  0  0  0  0  0  0  0  0  0  0
    0.6147   -3.3902   -2.9174 H   0  0  0  0  0  0  0  0  0  0  0  0
    1.6253   -1.9453   -3.1674 H   0  0  0  0  0  0  0  0  0  0  0  0
  5  6  2  0  0  0  0
  5  7  1  0  0  0  0
  2  3  1  0  0  0  0
  2  4  1  0  0  0  0
  2  5  1  0  0  0  0
  1  2  1  0  0  0  0
 20 21  2  0  0  0  0
 20 22  1  0  0  0  0
 17 18  1  0  0  0  0
 17 19  2  0  0  0  0
 14 15  1  0  0  0  0
 14 16  1  0  0  0  0
 14 17  1  0  0  0  0
 11 12  1  0  0  0  0
 11 13  1  0  0  0  0
 11 14  1  0  0  0  0
  9 10  1  0  0  0  0
  9 11  1  0  0  0  0
  9 20  1  0  0  0  0
  7  8  1  0  0  0  0
  7  9  1  0  0  0  0
 24 25  1  0  0  0  0
 24 26  1  0  0  0  0
 24 27  1  0  0  0  0
 22 23  1  0  0  0  0
 22 24  1  0  0  0  0
M  CHG  1  18  -1
M  END
$$$$
default_name
  -OEChem-01062215323D

 27 26  0     1  0  0  0  0  0999 V2000
   -3.2406   -3.5400    1.2326 H   0  0  0  0  0  0  0  0  0  0  0  0
   -3.1436   -2.6190    0.6606 C   0  0  0  0  0  0  0  0  0  0  0  0
   -3.8786   -1.8920    0.9996 H   0  0  0  0  0  0  0  0  0  0  0  0
   -3.2846   -2.8280   -0.3984 H   0  0  0  0  0  0  0  0  0  0  0  0
   -1.7586   -2.0580    0.8686 C   0  0  0  0  0  0  0  0  0  0  0  0
   -0.9666   -2.6340    1.6026 O   0  0  0  0  0  0  0  0  0  0  0  0
   -1.4866   -0.9220    0.2366 N   0  0  0  0  0  0  0  0  0  0  0  0
   -2.2166   -0.4790   -0.2994 H   0  0  0  0  0  0  0  0  0  0  0  0
   -0.1956   -0.2250    0.2596 C   0  0  1  0  0  0  0  0  0  0  0  0
   -0.3299    0.7769   -0.1490 H   0  0  0  0  0  0  0  0  0  0  0  0
    0.2703   -0.0723    1.7216 C   0  0  0  0  0  0  0  0  0  0  0  0
    0.2536   -1.0601    2.1847 H   0  0  0  0  0  0  0  0  0  0  0  0
    1.2965    0.2977    1.7358 H   0  0  0  0  0  0  0  0  0  0  0  0
   -0.6173    0.8703    2.5516 C   0  0  0  0  0  0  0  0  0  0  0  0
   -0.6130    1.8618    2.0924 H   0  0  0  0  0  0  0  0  0  0  0  0
   -1.6419    0.4902    2.5232 H   0  0  0  0  0  0  0  0  0  0  0  0
   -0.1667    1.0027    4.0139 C   0  0  0  0  0  0  0  0  0  0  0  0
    0.7556    0.2609    4.4208 O   0  5  0  0  0  0  0  0  0  0  0  0
   -0.7444    1.8731    4.7024 O   0  0  0  0  0  0  0  0  0  0  0  0
    0.8343   -0.9522   -0.6298 C   0  0  0  0  0  0  0  0  0  0  0  0
    2.0343   -0.9295   -0.3484 O   0  0  0  0  0  0  0  0  0  0  0  0
    0.3673   -1.6205   -1.6925 N   0  0  0  0  0  0  0  0  0  0  0  0
   -0.6197   -1.5494   -1.8903 H   0  0  0  0  0  0  0  0  0  0  0  0
    1.2099   -2.3435   -2.6416 C   0  0  0  0  0  0  0  0  0  0  0  0
    1.8756   -3.0195   -2.1024 H   0  0  0  0  0  0  0  0  0  0  0  0
    0.5903   -2.9164   -3.3330 H   0  0  0  0  0  0  0  0  0  0  0  0
    1.8157   -1.6305   -3.2043 H   0  0  0  0  0  0  0  0  0  0  0  0
  5  6  2  0  0  0  0
  5  7  1  0  0  0  0
  2  3  1  0  0  0  0
  2  4  1  0  0  0  0
  2  5  1  0  0  0  0
  1  2  1  0  0  0  0
 20 21  2  0  0  0  0
 20 22  1  0  0  0  0
 17 18  1  0  0  0  0
 17 19  2  0  0  0  0
 14 15  1  0  0  0  0
 14 16  1  0  0  0  0
 14 17  1  0  0  0  0
 11 12  1  0  0  0  0
 11 13  1  0  0  0  0
 11 14  1  0  0  0  0
  9 10  1  0  0  0  0
  9 11  1  0  0  0  0
  9 20  1  0  0  0  0
  7  8  1  0  0  0  0
  7  9  1  0  0  0  0
 24 25  1  0  0  0  0
 24 26  1  0  0  0  0
 24 27  1  0  0  0  0
 22 23  1  0  0  0  0
 22 24  1  0  0  0  0
M  CHG  1  18  -1
M  END
$$$$
default_name
  -OEChem-01062215323D

 27 26  0     1  0  0  0  0  0999 V2000
   -3.2406   -3.5400    1.2326 H   0  0  0  0  0  0  0  0  0  0  0  0
   -3.1436   -2.6190    0.6606 C   0  0  0  0  0  0  0  0  0  0  0  0
   -3.8786   -1.8920    0.9996 H   0  0  0  0  0  0  0  0  0  0  0  0
   -3.2846   -2.8280   -0.3984 H   0  0  0  0  0  0  0  0  0  0  0  0
   -1.7586   -2.0580    0.8686 C   0  0  0  0  0  0  0  0  0  0  0  0
   -0.9666   -2.6340    1.6026 O   0  0  0  0  0  0  0  0  0  0  0  0
   -1.4866   -0.9220    0.2366 N   0  0  0  0  0  0  0  0  0  0  0  0
   -2.2166   -0.4790   -0.2994 H   0  0  0  0  0  0  0  0  0  0  0  0
   -0.1956   -0.2250    0.2596 C   0  0  1  0  0  0  0  0  0  0  0  0
   -0.3299    0.7769   -0.1490 H   0  0  0  0  0  0  0  0  0  0  0  0
    0.2703   -0.0723    1.7216 C   0  0  0  0  0  0  0  0  0  0  0  0
    0.2536   -1.0601    2.1847 H   0  0  0  0  0  0  0  0  0  0  0  0
    1.2965    0.2977    1.7358 H   0  0  0  0  0  0  0  0  0  0  0  0
   -0.6173    0.8703    2.5516 C   0  0  0  0  0  0  0  0  0  0  0  0
   -0.6130    1.8618    2.0924 H   0  0  0  0  0  0  0  0  0  0  0  0
   -1.6419    0.4902    2.5232 H   0  0  0  0  0  0  0  0  0  0  0  0
   -0.1667    1.0027    4.0139 C   0  0  0  0  0  0  0  0  0  0  0  0
    0.7556    0.2609    4.4208 O   0  5  0  0  0  0  0  0  0  0  0  0
   -0.7444    1.8731    4.7024 O   0  0  0  0  0  0  0  0  0  0  0  0
    0.8343   -0.9522   -0.6298 C   0  0  0  0  0  0  0  0  0  0  0  0
    1.9768   -1.1680   -0.2200 O   0  0  0  0  0  0  0  0  0  0  0  0
    0.4272   -1.3544   -1.8408 N   0  0  0  0  0  0  0  0  0  0  0  0
   -0.5047   -1.0949   -2.1286 H   0  0  0  0  0  0  0  0  0  0  0  0
    1.2819   -2.0377   -2.8082 C   0  0  0  0  0  0  0  0  0  0  0  0
    1.7686   -2.8904   -2.3318 H   0  0  0  0  0  0  0  0  0  0  0  0
    0.6881   -2.3833   -3.6556 H   0  0  0  0  0  0  0  0  0  0  0  0
    2.0510   -1.3485   -3.1624 H   0  0  0  0  0  0  0  0  0  0  0  0
  5  6  2  0  0  0  0
  5  7  1  0  0  0  0
  2  3  1  0  0  0  0
  2  4  1  0  0  0  0
  2  5  1  0  0  0  0
  1  2  1  0  0  0  0
 20 21  2  0  0  0  0
 20 22  1  0  0  0  0
 17 18  1  0  0  0  0
 17 19  2  0  0  0  0
 14 15  1  0  0  0  0
 14 16  1  0  0  0  0
 14 17  1  0  0  0  0
 11 12  1  0  0  0  0
 11 13  1  0  0  0  0
 11 14  1  0  0  0  0
  9 10  1  0  0  0  0
  9 11  1  0  0  0  0
  9 20  1  0  0  0  0
  7  8  1  0  0  0  0
  7  9  1  0  0  0  0
 24 25  1  0  0  0  0
 24 26  1  0  0  0  0
 24 27  1  0  0  0  0
 22 23  1  0  0  0  0
 22 24  1  0  0  0  0
M  CHG  1  18  -1
M  END
$$$$
default_name
  -OEChem-01062215323D

 27 26  0     1  0  0  0  0  0999 V2000
   -3.2406   -3.5400    1.2326 H   0  0  0  0  0  0  0  0  0  0  0  0
   -3.1436   -2.6190    0.6606 C   0  0  0  0  0  0  0  0  0  0  0  0
   -3.8786   -1.8920    0.9996 H   0  0  0  0  0  0  0  0  0  0  0  0
   -3.2846   -2.8280   -0.3984 H   0  0  0  0  0  0  0  0  0  0  0  0
   -1.7586   -2.0580    0.8686 C   0  0  0  0  0  0  0  0  0  0  0  0
   -0.9666   -2.6340    1.6026 O   0  0  0  0  0  0  0  0  0  0  0  0
   -1.4866   -0.9220    0.2366 N   0  0  0  0  0  0  0  0  0  0  0  0
   -2.2166   -0.4790   -0.2994 H   0  0  0  0  0  0  0  0  0  0  0  0
   -0.1956   -0.2250    0.2596 C   0  0  1  0  0  0  0  0  0  0  0  0
   -0.3299    0.7769   -0.1490 H   0  0  0  0  0  0  0  0  0  0  0  0
    0.2703   -0.0723    1.7216 C   0  0  0  0  0  0  0  0  0  0  0  0
    0.2536   -1.0601    2.1847 H   0  0  0  0  0  0  0  0  0  0  0  0
    1.2965    0.2977    1.7358 H   0  0  0  0  0  0  0  0  0  0  0  0
   -0.6173    0.8703    2.5516 C   0  0  0  0  0  0  0  0  0  0  0  0
   -0.6130    1.8618    2.0924 H   0  0  0  0  0  0  0  0  0  0  0  0
   -1.6419    0.4902    2.5232 H   0  0  0  0  0  0  0  0  0  0  0  0
   -0.1667    1.0027    4.0139 C   0  0  0  0  0  0  0  0  0  0  0  0
    0.7556    0.2609    4.4208 O   0  5  0  0  0  0  0  0  0  0  0  0
   -0.7444    1.8731    4.7024 O   0  0  0  0  0  0  0  0  0  0  0  0
    0.8343   -0.9522   -0.6298 C   0  0  0  0  0  0  0  0  0  0  0  0
    1.8700   -1.4120   -0.1442 O   0  0  0  0  0  0  0  0  0  0  0  0
    0.5428   -1.0806   -1.9308 N   0  0  0  0  0  0  0  0  0  0  0  0
   -0.2966   -0.6319   -2.2663 H   0  0  0  0  0  0  0  0  0  0  0  0
    1.4175   -1.7243   -2.9075 C   0  0  0  0  0  0  0  0  0  0  0  0
    1.7126   -2.7102   -2.5442 H   0  0  0  0  0  0  0  0  0  0  0  0
    0.9015   -1.8273   -3.8631 H   0  0  0  0  0  0  0  0  0  0  0  0
    2.3153   -1.1185   -3.0444 H   0  0  0  0  0  0  0  0  0  0  0  0
  5  6  2  0  0  0  0
  5  7  1  0  0  0  0
  2  3  1  0  0  0  0
  2  4  1  0  0  0  0
  2  5  1  0  0  0  0
  1  2  1  0  0  0  0
 20 21  2  0  0  0  0
 20 22  1  0  0  0  0
 17 18  1  0  0  0  0
 17 19  2  0  0  0  0
 14 15  1  0  0  0  0
 14 16  1  0  0  0  0
 14 17  1  0  0  0  0
 11 12  1  0  0  0  0
 11 13  1  0  0  0  0
 11 14  1  0  0  0  0
  9 10  1  0  0  0  0
  9 11  1  0  0  0  0
  9 20  1  0  0  0  0
  7  8  1  0  0  0  0
  7  9  1  0  0  0  0
 24 25  1  0  0  0  0
 24 26  1  0  0  0  0
 24 27  1  0  0  0  0
 22 23  1  0  0  0  0
 22 24  1  0  0  0  0
M  CHG  1  18  -1
M  END
$$$$
default_name
  -OEChem-01062215323D

 27 26  0     1  0  0  0  0  0999 V2000
   -3.2406   -3.5400    1.2326 H   0  0  0  0  0  0  0  0  0  0  0  0
   -3.1436   -2.6190    0.6606 C   0  0  0  0  0  0  0  0  0  0  0  0
   -3.8786   -1.8920    0.9996 H   0  0  0  0  0  0  0  0  0  0  0  0
   -3.2846   -2.8280   -0.3984 H   0  0  0  0  0  0  0  0  0  0  0  0
   -1.7586   -2.0580    0.8686 C   0  0  0  0  0  0  0  0  0  0  0  0
   -0.9666   -2.6340    1.6026 O   0  0  0  0  0  0  0  0  0  0  0  0
   -1.4866   -0.9220    0.2366 N   0  0  0  0  0  0  0  0  0  0  0  0
   -2.2166   -0.4790   -0.2994 H   0  0  0  0  0  0  0  0  0  0  0  0
   -0.1956   -0.2250    0.2596 C   0  0  1  0  0  0  0  0  0  0  0  0
   -0.3299    0.7769   -0.1490 H   0  0  0  0  0  0  0  0  0  0  0  0
    0.2703   -0.0723    1.7216 C   0  0  0  0  0  0  0  0  0  0  0  0
    0.2536   -1.0601    2.1847 H   0  0  0  0  0  0  0  0  0  0  0  0
    1.2965    0.2977    1.7358 H   0  0  0  0  0  0  0  0  0  0  0  0
   -0.6173    0.8703    2.5516 C   0  0  0  0  0  0  0  0  0  0  0  0
   -0.6130    1.8618    2.0924 H   0  0  0  0  0  0  0  0  0  0  0  0
   -1.6419    0.4902    2.5232 H   0  0  0  0  0  0  0  0  0  0  0  0
   -0.1667    1.0027    4.0139 C   0  0  0  0  0  0  0  0  0  0  0  0
    0.7556    0.2609    4.4208 O   0  5  0  0  0  0  0  0  0  0  0  0
   -0.7444    1.8731    4.7024 O   0  0  0  0  0  0  0  0  0  0  0  0
    0.8343   -0.9522   -0.6298 C   0  0  0  0  0  0  0  0  0  0  0  0
    1.7212   -1.6448   -0.1262 O   0  0  0  0  0  0  0  0  0  0  0  0
    0.7063   -0.8179   -1.9563 N   0  0  0  0  0  0  0  0  0  0  0  0
   -0.0098   -0.1920   -2.2939 H   0  0  0  0  0  0  0  0  0  0  0  0
    1.6072   -1.4247   -2.9327 C   0  0  0  0  0  0  0  0  0  0  0  0
    1.7112   -2.4910   -2.7250 H   0  0  0  0  0  0  0  0  0  0  0  0
    1.2159   -1.2862   -3.9415 H   0  0  0  0  0  0  0  0  0  0  0  0
    2.5905   -0.9562   -2.8585 H   0  0  0  0  0  0  0  0  0  0  0  0
  5  6  2  0  0  0  0
  5  7  1  0  0  0  0
  2  3  1  0  0  0  0
  2  4  1  0  0  0  0
  2  5  1  0  0  0  0
  1  2  1  0  0  0  0
 20 21  2  0  0  0  0
 20 22  1  0  0  0  0
 17 18  1  0  0  0  0
 17 19  2  0  0  0  0
 14 15  1  0  0  0  0
 14 16  1  0  0  0  0
 14 17  1  0  0  0  0
 11 12  1  0  0  0  0
 11 13  1  0  0  0  0
 11 14  1  0  0  0  0
  9 10  1  0  0  0  0
  9 11  1  0  0  0  0
  9 20  1  0  0  0  0
  7  8  1  0  0  0  0
  7  9  1  0  0  0  0
 24 25  1  0  0  0  0
 24 26  1  0  0  0  0
 24 27  1  0  0  0  0
 22 23  1  0  0  0  0
 22 24  1  0  0  0  0
M  CHG  1  18  -1
M  END
$$$$
default_name
  -OEChem-01062215323D

 27 26  0     1  0  0  0  0  0999 V2000
   -3.2406   -3.5400    1.2326 H   0  0  0  0  0  0  0  0  0  0  0  0
   -3.1436   -2.6190    0.6606 C   0  0  0  0  0  0  0  0  0  0  0  0
   -3.8786   -1.8920    0.9996 H   0  0  0  0  0  0  0  0  0  0  0  0
   -3.2846   -2.8280   -0.3984 H   0  0  0  0  0  0  0  0  0  0  0  0
   -1.7586   -2.0580    0.8686 C   0  0  0  0  0  0  0  0  0  0  0  0
   -0.9666   -2.6340    1.6026 O   0  0  0  0  0  0  0  0  0  0  0  0
   -1.4866   -0.9220    0.2366 N   0  0  0  0  0  0  0  0  0  0  0  0
   -2.2166   -0.4790   -0.2994 H   0  0  0  0  0  0  0  0  0  0  0  0
   -0.1956   -0.2250    0.2596 C   0  0  1  0  0  0  0  0  0  0  0  0
   -0.3299    0.7769   -0.1490 H   0  0  0  0  0  0  0  0  0  0  0  0
    0.2703   -0.0723    1.7216 C   0  0  0  0  0  0  0  0  0  0  0  0
    0.2536   -1.0601    2.1847 H   0  0  0  0  0  0  0  0  0  0  0  0
    1.2965    0.2977    1.7358 H   0  0  0  0  0  0  0  0  0  0  0  0
   -0.6173    0.8703    2.5516 C   0  0  0  0  0  0  0  0  0  0  0  0
   -0.6130    1.8618    2.0924 H   0  0  0  0  0  0  0  0  0  0  0  0
   -1.6419    0.4902    2.5232 H   0  0  0  0  0  0  0  0  0  0  0  0
   -0.1667    1.0027    4.0139 C   0  0  0  0  0  0  0  0  0  0  0  0
    0.7556    0.2609    4.4208 O   0  5  0  0  0  0  0  0  0  0  0  0
   -0.7444    1.8731    4.7024 O   0  0  0  0  0  0  0  0  0  0  0  0
    0.8343   -0.9522   -0.6298 C   0  0  0  0  0  0  0  0  0  0  0  0
    1.5405   -1.8506   -0.1671 O   0  0  0  0  0  0  0  0  0  0  0  0
    0.9065   -0.5841   -1.9156 N   0  0  0  0  0  0  0  0  0  0  0  0
    0.3362    0.1949   -2.2095 H   0  0  0  0  0  0  0  0  0  0  0  0
    1.8383   -1.1593   -2.8821 C   0  0  0  0  0  0  0  0  0  0  0  0
    1.7646   -2.2479   -2.8619 H   0  0  0  0  0  0  0  0  0  0  0  0
    1.6099   -0.7969   -3.8854 H   0  0  0  0  0  0  0  0  0  0  0  0
    2.8579   -0.8725   -2.6173 H   0  0  0  0  0  0  0  0  0  0  0  0
  5  6  2  0  0  0  0
  5  7  1  0  0  0  0
  2  3  1  0  0  0  0
  2  4  1  0  0  0  0
  2  5  1  0  0  0  0
  1  2  1  0  0  0  0
 20 21  2  0  0  0  0
 20 22  1  0  0  0  0
 17 18  1  0  0  0  0
 17 19  2  0  0  0  0
 14 15  1  0  0  0  0
 14 16  1  0  0  0  0
 14 17  1  0  0  0  0
 11 12  1  0  0  0  0
 11 13  1  0  0  0  0
 11 14  1  0  0  0  0
  9 10  1  0  0  0  0
  9 11  1  0  0  0  0
  9 20  1  0  0  0  0
  7  8  1  0  0  0  0
  7  9  1  0  0  0  0
 24 25  1  0  0  0  0
 24 26  1  0  0  0  0
 24 27  1  0  0  0  0
 22 23  1  0  0  0  0
 22 24  1  0  0  0  0
M  CHG  1  18  -1
M  END
$$$$
default_name
  -OEChem-01062215323D

 27 26  0     1  0  0  0  0  0999 V2000
   -3.2406   -3.5400    1.2326 H   0  0  0  0  0  0  0  0  0  0  0  0
   -3.1436   -2.6190    0.6606 C   0  0  0  0  0  0  0  0  0  0  0  0
   -3.8786   -1.8920    0.9996 H   0  0  0  0  0  0  0  0  0  0  0  0
   -3.2846   -2.8280   -0.3984 H   0  0  0  0  0  0  0  0  0  0  0  0
   -1.7586   -2.0580    0.8686 C   0  0  0  0  0  0  0  0  0  0  0  0
   -0.9666   -2.6340    1.6026 O   0  0  0  0  0  0  0  0  0  0  0  0
   -1.4866   -0.9220    0.2366 N   0  0  0  0  0  0  0  0  0  0  0  0
   -2.2166   -0.4790   -0.2994 H   0  0  0  0  0  0  0  0  0  0  0  0
   -0.1956   -0.2250    0.2596 C   0  0  1  0  0  0  0  0  0  0  0  0
   -0.3299    0.7769   -0.1490 H   0  0  0  0  0  0  0  0  0  0  0  0
    0.2703   -0.0723    1.7216 C   0  0  0  0  0  0  0  0  0  0  0  0
    0.2536   -1.0601    2.1847 H   0  0  0  0  0  0  0  0  0  0  0  0
    1.2965    0.2977    1.7358 H   0  0  0  0  0  0  0  0  0  0  0  0
   -0.6173    0.8703    2.5516 C   0  0  0  0  0  0  0  0  0  0  0  0
   -0.6130    1.8618    2.0924 H   0  0  0  0  0  0  0  0  0  0  0  0
   -1.6419    0.4902    2.5232 H   0  0  0  0  0  0  0  0  0  0  0  0
   -0.1667    1.0027    4.0139 C   0  0  0  0  0  0  0  0  0  0  0  0
    0.7556    0.2609    4.4208 O   0  5  0  0  0  0  0  0  0  0  0  0
   -0.7444    1.8731    4.7024 O   0  0  0  0  0  0  0  0  0  0  0  0
    0.8343   -0.9522   -0.6298 C   0  0  0  0  0  0  0  0  0  0  0  0
    1.3402   -2.0153   -0.2643 O   0  0  0  0  0  0  0  0  0  0  0  0
    1.1298   -0.3952   -1.8114 N   0  0  0  0  0  0  0  0  0  0  0  0
    0.7179    0.5025   -2.0190 H   0  0  0  0  0  0  0  0  0  0  0  0
    2.0950   -0.9461   -2.7593 C   0  0  0  0  0  0  0  0  0  0  0  0
    1.8691   -1.9974   -2.9457 H   0  0  0  0  0  0  0  0  0  0  0  0
    2.0566   -0.3927   -3.6986 H   0  0  0  0  0  0  0  0  0  0  0  0
    3.0992   -0.8733   -2.3372 H   0  0  0  0  0  0  0  0  0  0  0  0
  5  6  2  0  0  0  0
  5  7  1  0  0  0  0
  2  3  1  0  0  0  0
  2  4  1  0  0  0  0
  2  5  1  0  0  0  0
  1  2  1  0  0  0  0
 20 21  2  0  0  0  0
 20 22  1  0  0  0  0
 17 18  1  0  0  0  0
 17 19  2  0  0  0  0
 14 15  1  0  0  0  0
 14 16  1  0  0  0  0
 14 17  1  0  0  0  0
 11 12  1  0  0  0  0
 11 13  1  0  0  0  0
 11 14  1  0  0  0  0
  9 10  1  0  0  0  0
  9 11  1  0  0  0  0
  9 20  1  0  0  0  0
  7  8  1  0  0  0  0
  7  9  1  0  0  0  0
 24 25  1  0  0  0  0
 24 26  1  0  0  0  0
 24 27  1  0  0  0  0
 22 23  1  0  0  0  0
 22 24  1  0  0  0  0
M  CHG  1  18  -1
M  END
$$$$
default_name
  -OEChem-01062215323D

 27 26  0     1  0  0  0  0  0999 V2000
   -3.2406   -3.5400    1.2326 H   0  0  0  0  0  0  0  0  0  0  0  0
   -3.1436   -2.6190    0.6606 C   0  0  0  0  0  0  0  0  0  0  0  0
   -3.8786   -1.8920    0.9996 H   0  0  0  0  0  0  0  0  0  0  0  0
   -3.2846   -2.8280   -0.3984 H   0  0  0  0  0  0  0  0  0  0  0  0
   -1.7586   -2.0580    0.8686 C   0  0  0  0  0  0  0  0  0  0  0  0
   -0.9666   -2.6340    1.6026 O   0  0  0  0  0  0  0  0  0  0  0  0
   -1.4866   -0.9220    0.2366 N   0  0  0  0  0  0  0  0  0  0  0  0
   -2.2166   -0.4790   -0.2994 H   0  0  0  0  0  0  0  0  0  0  0  0
   -0.1956   -0.2250    0.2596 C   0  0  1  0  0  0  0  0  0  0  0  0
   -0.3299    0.7769   -0.1490 H   0  0  0  0  0  0  0  0  0  0  0  0
    0.2703   -0.0723    1.7216 C   0  0  0  0  0  0  0  0  0  0  0  0
    0.2536   -1.0601    2.1847 H   0  0  0  0  0  0  0  0  0  0  0  0
    1.2965    0.2977    1.7358 H   0  0  0  0  0  0  0  0  0  0  0  0
   -0.6173    0.8703    2.5516 C   0  0  0  0  0  0  0  0  0  0  0  0
   -0.6130    1.8618    2.0924 H   0  0  0  0  0  0  0  0  0  0  0  0
   -1.6419    0.4902    2.5232 H   0  0  0  0  0  0  0  0  0  0  0  0
   -0.1667    1.0027    4.0139 C   0  0  0  0  0  0  0  0  0  0  0  0
    0.7556    0.2609    4.4208 O   0  5  0  0  0  0  0  0  0  0  0  0
   -0.7444    1.8731    4.7024 O   0  0  0  0  0  0  0  0  0  0  0  0
    0.8343   -0.9522   -0.6298 C   0  0  0  0  0  0  0  0  0  0  0  0
    1.1341   -2.1278   -0.4110 O   0  0  0  0  0  0  0  0  0  0  0  0
    1.3610   -0.2640   -1.6510 N   0  0  0  0  0  0  0  0  0  0  0  0
    1.1092    0.7097   -1.7353 H   0  0  0  0  0  0  0  0  0  0  0  0
    2.3597   -0.7997   -2.5724 C   0  0  0  0  0  0  0  0  0  0  0  0
    2.0178   -1.7565   -2.9705 H   0  0  0  0  0  0  0  0  0  0  0  0
    2.5256   -0.1012   -3.3939 H   0  0  0  0  0  0  0  0  0  0  0  0
    3.2981   -0.9584   -2.0374 H   0  0  0  0  0  0  0  0  0  0  0  0
  5  6  2  0  0  0  0
  5  7  1  0  0  0  0
  2  3  1  0  0  0  0
  2  4  1  0  0  0  0
  2  5  1  0  0  0  0
  1  2  1  0  0  0  0
 20 21  2  0  0  0  0
 20 22  1  0  0  0  0
 17 18  1  0  0  0  0
 17 19  2  0  0  0  0
 14 15  1  0  0  0  0
 14 16  1  0  0  0  0
 14 17  1  0  0  0  0
 11 12  1  0  0  0  0
 11 13  1  0  0  0  0
 11 14  1  0  0  0  0
  9 10  1  0  0  0  0
  9 11  1  0  0  0  0
  9 20  1  0  0  0  0
  7  8  1  0  0  0  0
  7  9  1  0  0  0  0
 24 25  1  0  0  0  0
 24 26  1  0  0  0  0
 24 27  1  0  0  0  0
 22 23  1  0  0  0  0
 22 24  1  0  0  0  0
M  CHG  1  18  -1
M  END
$$$$
default_name
  -OEChem-01062215323D

 27 26  0     1  0  0  0  0  0999 V2000
   -3.2406   -3.5400    1.2326 H   0  0  0  0  0  0  0  0  0  0  0  0
   -3.1436   -2.6190    0.6606 C   0  0  0  0  0  0  0  0  0  0  0  0
   -3.8786   -1.8920    0.9996 H   0  0  0  0  0  0  0  0  0  0  0  0
   -3.2846   -2.8280   -0.3984 H   0  0  0  0  0  0  0  0  0  0  0  0
   -1.7586   -2.0580    0.8686 C   0  0  0  0  0  0  0  0  0  0  0  0
   -0.9666   -2.6340    1.6026 O   0  0  0  0  0  0  0  0  0  0  0  0
   -1.4866   -0.9220    0.2366 N   0  0  0  0  0  0  0  0  0  0  0  0
   -2.2166   -0.4790   -0.2994 H   0  0  0  0  0  0  0  0  0  0  0  0
   -0.1956   -0.2250    0.2596 C   0  0  1  0  0  0  0  0  0  0  0  0
   -0.3299    0.7769   -0.1490 H   0  0  0  0  0  0  0  0  0  0  0  0
    0.2703   -0.0723    1.7216 C   0  0  0  0  0  0  0  0  0  0  0  0
    0.2536   -1.0601    2.1847 H   0  0  0  0  0  0  0  0  0  0  0  0
    1.2965    0.2977    1.7358 H   0  0  0  0  0  0  0  0  0  0  0  0
   -0.6173    0.8703    2.5516 C   0  0  0  0  0  0  0  0  0  0  0  0
   -0.6130    1.8618    2.0924 H   0  0  0  0  0  0  0  0  0  0  0  0
   -1.6419    0.4902    2.5232 H   0  0  0  0  0  0  0  0  0  0  0  0
   -0.1667    1.0027    4.0139 C   0  0  0  0  0  0  0  0  0  0  0  0
    0.7556    0.2609    4.4208 O   0  5  0  0  0  0  0  0  0  0  0  0
   -0.7444    1.8731    4.7024 O   0  0  0  0  0  0  0  0  0  0  0  0
    0.8343   -0.9522   -0.6298 C   0  0  0  0  0  0  0  0  0  0  0  0
    0.9361   -2.1804   -0.5973 O   0  0  0  0  0  0  0  0  0  0  0  0
    1.5844   -0.1995   -1.4451 N   0  0  0  0  0  0  0  0  0  0  0  0
    1.4835    0.8024   -1.3777 H   0  0  0  0  0  0  0  0  0  0  0  0
    2.6145   -0.7300   -2.3344 C   0  0  0  0  0  0  0  0  0  0  0  0
    2.2003   -1.5417   -2.9348 H   0  0  0  0  0  0  0  0  0  0  0  0
    2.9849    0.0577   -2.9920 H   0  0  0  0  0  0  0  0  0  0  0  0
    3.4408   -1.1221   -1.7382 H   0  0  0  0  0  0  0  0  0  0  0  0
  5  6  2  0  0  0  0
  5  7  1  0  0  0  0
  2  3  1  0  0  0  0
  2  4  1  0  0  0  0
  2  5  1  0  0  0  0
  1  2  1  0  0  0  0
 20 21  2  0  0  0  0
 20 22  1  0  0  0  0
 17 18  1  0  0  0  0
 17 19  2  0  0  0  0
 14 15  1  0  0  0  0
 14 16  1  0  0  0  0
 14 17  1  0  0  0  0
 11 12  1  0  0  0  0
 11 13  1  0  0  0  0
 11 14  1  0  0  0  0
  9 10  1  0  0  0  0
  9 11  1  0  0  0  0
  9 20  1  0  0  0  0
  7  8  1  0  0  0  0
  7  9  1  0  0  0  0
 24 25  1  0  0  0  0
 24 26  1  0  0  0  0
 24 27  1  0  0  0  0
 22 23  1  0  0  0  0
 22 24  1  0  0  0  0
M  CHG  1  18  -1
M  END
$$$$
default_name
  -OEChem-01062215323D

 27 26  0     1  0  0  0  0  0999 V2000
   -3.2406   -3.5400    1.2326 H   0  0  0  0  0  0  0  0  0  0  0  0
   -3.1436   -2.6190    0.6606 C   0  0  0  0  0  0  0  0  0  0  0  0
   -3.8786   -1.8920    0.9996 H   0  0  0  0  0  0  0  0  0  0  0  0
   -3.2846   -2.8280   -0.3984 H   0  0  0  0  0  0  0  0  0  0  0  0
   -1.7586   -2.0580    0.8686 C   0  0  0  0  0  0  0  0  0  0  0  0
   -0.9666   -2.6340    1.6026 O   0  0  0  0  0  0  0  0  0  0  0  0
   -1.4866   -0.9220    0.2366 N   0  0  0  0  0  0  0  0  0  0  0  0
   -2.2166   -0.4790   -0.2994 H   0  0  0  0  0  0  0  0  0  0  0  0
   -0.1956   -0.2250    0.2596 C   0  0  1  0  0  0  0  0  0  0  0  0
   -0.3299    0.7769   -0.1490 H   0  0  0  0  0  0  0  0  0  0  0  0
    0.2703   -0.0723    1.7216 C   0  0  0  0  0  0  0  0  0  0  0  0
    0.2536   -1.0601    2.1847 H   0  0  0  0  0  0  0  0  0  0  0  0
    1.2965    0.2977    1.7358 H   0  0  0  0  0  0  0  0  0  0  0  0
   -0.6173    0.8703    2.5516 C   0  0  0  0  0  0  0  0  0  0  0  0
   -0.6130    1.8618    2.0924 H   0  0  0  0  0  0  0  0  0  0  0  0
   -1.6419    0.4902    2.5232 H   0  0  0  0  0  0  0  0  0  0  0  0
   -0.1667    1.0027    4.0139 C   0  0  0  0  0  0  0  0  0  0  0  0
    0.7556    0.2609    4.4208 O   0  5  0  0  0  0  0  0  0  0  0  0
   -0.7444    1.8731    4.7024 O   0  0  0  0  0  0  0  0  0  0  0  0
    0.8343   -0.9522   -0.6298 C   0  0  0  0  0  0  0  0  0  0  0  0
    0.7597   -2.1694   -0.8105 O   0  0  0  0  0  0  0  0  0  0  0  0
    1.7846   -0.2061   -1.2079 N   0  0  0  0  0  0  0  0  0  0  0  0
    1.8153    0.7744   -0.9706 H   0  0  0  0  0  0  0  0  0  0  0  0
    2.8419   -0.7419   -2.0613 C   0  0  0  0  0  0  0  0  0  0  0  0
    2.4042   -1.3676   -2.8410 H   0  0  0  0  0  0  0  0  0  0  0  0
    3.4032    0.0732   -2.5202 H   0  0  0  0  0  0  0  0  0  0  0  0
    3.5178   -1.3531   -1.4601 H   0  0  0  0  0  0  0  0  0  0  0  0
  5  6  2  0  0  0  0
  5  7  1  0  0  0  0
  2  3  1  0  0  0  0
  2  4  1  0  0  0  0
  2  5  1  0  0  0  0
  1  2  1  0  0  0  0
 20 21  2  0  0  0  0
 20 22  1  0  0  0  0
 17 18  1  0  0  0  0
 17 19  2  0  0  0  0
 14 15  1  0  0  0  0
 14 16  1  0  0  0  0
 14 17  1  0  0  0  0
 11 12  1  0  0  0  0
 11 13  1  0  0  0  0
 11 14  1  0  0  0  0
  9 10  1  0  0  0  0
  9 11  1  0  0  0  0
  9 20  1  0  0  0  0
  7  8  1  0  0  0  0
  7  9  1  0  0  0  0
 24 25  1  0  0  0  0
 24 26  1  0  0  0  0
 24 27  1  0  0  0  0
 22 23  1  0  0  0  0
 22 24  1  0  0  0  0
M  CHG  1  18  -1
M  END
$$$$
default_name
  -OEChem-01062215323D

 27 26  0     1  0  0  0  0  0999 V2000
   -3.2406   -3.5400    1.2326 H   0  0  0  0  0  0  0  0  0  0  0  0
   -3.1436   -2.6190    0.6606 C   0  0  0  0  0  0  0  0  0  0  0  0
   -3.8786   -1.8920    0.9996 H   0  0  0  0  0  0  0  0  0  0  0  0
   -3.2846   -2.8280   -0.3984 H   0  0  0  0  0  0  0  0  0  0  0  0
   -1.7586   -2.0580    0.8686 C   0  0  0  0  0  0  0  0  0  0  0  0
   -0.9666   -2.6340    1.6026 O   0  0  0  0  0  0  0  0  0  0  0  0
   -1.4866   -0.9220    0.2366 N   0  0  0  0  0  0  0  0  0  0  0  0
   -2.2166   -0.4790   -0.2994 H   0  0  0  0  0  0  0  0  0  0  0  0
   -0.1956   -0.2250    0.2596 C   0  0  1  0  0  0  0  0  0  0  0  0
   -0.3299    0.7769   -0.1490 H   0  0  0  0  0  0  0  0  0  0  0  0
    0.2703   -0.0723    1.7216 C   0  0  0  0  0  0  0  0  0  0  0  0
    0.2536   -1.0601    2.1847 H   0  0  0  0  0  0  0  0  0  0  0  0
    1.2965    0.2977    1.7358 H   0  0  0  0  0  0  0  0  0  0  0  0
   -0.6173    0.8703    2.5516 C   0  0  0  0  0  0  0  0  0  0  0  0
   -0.6130    1.8618    2.0924 H   0  0  0  0  0  0  0  0  0  0  0  0
   -1.6419    0.4902    2.5232 H   0  0  0  0  0  0  0  0  0  0  0  0
   -0.1667    1.0027    4.0139 C   0  0  0  0  0  0  0  0  0  0  0  0
    0.7556    0.2609    4.4208 O   0  5  0  0  0  0  0  0  0  0  0  0
   -0.7444    1.8731    4.7024 O   0  0  0  0  0  0  0  0  0  0  0  0
    0.8343   -0.9522   -0.6298 C   0  0  0  0  0  0  0  0  0  0  0  0
    0.6170   -2.0956   -1.0361 O   0  0  0  0  0  0  0  0  0  0  0  0
    1.9481   -0.2833   -0.9555 N   0  0  0  0  0  0  0  0  0  0  0  0
    2.0819    0.6274   -0.5418 H   0  0  0  0  0  0  0  0  0  0  0  0
    3.0265   -0.8345   -1.7719 C   0  0  0  0  0  0  0  0  0  0  0  0
    2.6158   -1.2462   -2.6953 H   0  0  0  0  0  0  0  0  0  0  0  0
    3.7521   -0.0557   -2.0109 H   0  0  0  0  0  0  0  0  0  0  0  0
    3.5238   -1.6359   -1.2220 H   0  0  0  0  0  0  0  0  0  0  0  0
  5  6  2  0  0  0  0
  5  7  1  0  0  0  0
  2  3  1  0  0  0  0
  2  4  1  0  0  0  0
  2  5  1  0  0  0  0
  1  2  1  0  0  0  0
 20 21  2  0  0  0  0
 20 22  1  0  0  0  0
 17 18  1  0  0  0  0
 17 19  2  0  0  0  0
 14 15  1  0  0  0  0
 14 16  1  0  0  0  0
 14 17  1  0  0  0  0
 11 12  1  0  0  0  0
 11 13  1  0  0  0  0
 11 14  1  0  0  0  0
  9 10  1  0  0  0  0
  9 11  1  0  0  0  0
  9 20  1  0  0  0  0
  7  8  1  0  0  0  0
  7  9  1  0  0  0  0
 24 25  1  0  0  0  0
 24 26  1  0  0  0  0
 24 27  1  0  0  0  0
 22 23  1  0  0  0  0
 22 24  1  0  0  0  0
M  CHG  1  18  -1
M  END
$$$$
default_name
  -OEChem-01062215323D

 27 26  0     1  0  0  0  0  0999 V2000
   -3.2406   -3.5400    1.2326 H   0  0  0  0  0  0  0  0  0  0  0  0
   -3.1436   -2.6190    0.6606 C   0  0  0  0  0  0  0  0  0  0  0  0
   -3.8786   -1.8920    0.9996 H   0  0  0  0  0  0  0  0  0  0  0  0
   -3.2846   -2.8280   -0.3984 H   0  0  0  0  0  0  0  0  0  0  0  0
   -1.7586   -2.0580    0.8686 C   0  0  0  0  0  0  0  0  0  0  0  0
   -0.9666   -2.6340    1.6026 O   0  0  0  0  0  0  0  0  0  0  0  0
   -1.4866   -0.9220    0.2366 N   0  0  0  0  0  0  0  0  0  0  0  0
   -2.2166   -0.4790   -0.2994 H   0  0  0  0  0  0  0  0  0  0  0  0
   -0.1956   -0.2250    0.2596 C   0  0  1  0  0  0  0  0  0  0  0  0
   -0.3691    0.8409    0.1098 H   0  0  0  0  0  0  0  0  0  0  0  0
    0.4487   -0.4003    1.6496 C   0  0  0  0  0  0  0  0  0  0  0  0
    0.4793   -1.4678    1.8737 H   0  0  0  0  0  0  0  0  0  0  0  0
    1.4725   -0.0246    1.6219 H   0  0  0  0  0  0  0  0  0  0  0  0
   -0.3201    0.3124    2.7749 C   0  0  0  0  0  0  0  0  0  0  0  0
   -0.3624    1.3822    2.5568 H   0  0  0  0  0  0  0  0  0  0  0  0
   -1.3442   -0.0700    2.7863 H   0  0  0  0  0  0  0  0  0  0  0  0
    0.3089    0.1169    4.1624 C   0  0  0  0  0  0  0  0  0  0  0  0
    1.2668   -0.6810    4.2733 O   0  5  0  0  0  0  0  0  0  0  0  0
   -0.1705    0.7971    5.0966 O   0  0  0  0  0  0  0  0  0  0  0  0
    0.7092   -0.7119   -0.8914 C   0  0  0  0  0  0  0  0  0  0  0  0
    0.3071   -1.5599   -1.6907 O   0  0  0  0  0  0  0  0  0  0  0  0
    1.9252   -0.1598   -0.9946 N   0  0  0  0  0  0  0  0  0  0  0  0
    2.2054    0.4874   -0.2728 H   0  0  0  0  0  0  0  0  0  0  0  0
    2.9066   -0.5226   -2.0137 C   0  0  0  0  0  0  0  0  0  0  0  0
    2.4460   -0.4755   -3.0019 H   0  0  0  0  0  0  0  0  0  0  0  0
    3.7574    0.1591   -1.9752 H   0  0  0  0  0  0  0  0  0  0  0  0
    3.2522   -1.5430   -1.8369 H   0  0  0  0  0  0  0  0  0  0  0  0
  5  6  2  0  0  0  0
  5  7  1  0  0  0  0
  2  3  1  0  0  0  0
  2  4  1  0  0  0  0
  2  5  1  0  0  0  0
  1  2  1  0  0  0  0
 20 21  2  0  0  0  0
 20 22  1  0  0  0  0
 17 18  1  0  0  0  0
 17 19  2  0  0  0  0
 14 15  1  0  0  0  0
 14 16  1  0  0  0  0
 14 17  1  0  0  0  0
 11 12  1  0  0  0  0
 11 13  1  0  0  0  0
 11 14  1  0  0  0  0
  9 10  1  0  0  0  0
  9 11  1  0  0  0  0
  9 20  1  0  0  0  0
  7  8  1  0  0  0  0
  7  9  1  0  0  0  0
 24 25  1  0  0  0  0
 24 26  1  0  0  0  0
 24 27  1  0  0  0  0
 22 23  1  0  0  0  0
 22 24  1  0  0  0  0
M  CHG  1  18  -1
M  END
$$$$
default_name
  -OEChem-01062215323D

 27 26  0     1  0  0  0  0  0999 V2000
   -3.2406   -3.5400    1.2326 H   0  0  0  0  0  0  0  0  0  0  0  0
   -3.1436   -2.6190    0.6606 C   0  0  0  0  0  0  0  0  0  0  0  0
   -3.8786   -1.8920    0.9996 H   0  0  0  0  0  0  0  0  0  0  0  0
   -3.2846   -2.8280   -0.3984 H   0  0  0  0  0  0  0  0  0  0  0  0
   -1.7586   -2.0580    0.8686 C   0  0  0  0  0  0  0  0  0  0  0  0
   -0.9666   -2.6340    1.6026 O   0  0  0  0  0  0  0  0  0  0  0  0
   -1.4866   -0.9220    0.2366 N   0  0  0  0  0  0  0  0  0  0  0  0
   -2.2166   -0.4790   -0.2994 H   0  0  0  0  0  0  0  0  0  0  0  0
   -0.1956   -0.2250    0.2596 C   0  0  1  0  0  0  0  0  0  0  0  0
   -0.3691    0.8409    0.1098 H   0  0  0  0  0  0  0  0  0  0  0  0
    0.4487   -0.4003    1.6496 C   0  0  0  0  0  0  0  0  0  0  0  0
    0.4793   -1.4678    1.8737 H   0  0  0  0  0  0  0  0  0  0  0  0
    1.4725   -0.0246    1.6219 H   0  0  0  0  0  0  0  0  0  0  0  0
   -0.3201    0.3124    2.7749 C   0  0  0  0  0  0  0  0  0  0  0  0
   -0.3624    1.3822    2.5568 H   0  0  0  0  0  0  0  0  0  0  0  0
   -1.3442   -0.0700    2.7863 H   0  0  0  0  0  0  0  0  0  0  0  0
    0.3089    0.1169    4.1624 C   0  0  0  0  0  0  0  0  0  0  0  0
    1.2668   -0.6810    4.2733 O   0  5  0  0  0  0  0  0  0  0  0  0
   -0.1705    0.7971    5.0966 O   0  0  0  0  0  0  0  0  0  0  0  0
    0.7092   -0.7119   -0.8914 C   0  0  0  0  0  0  0  0  0  0  0  0
    0.2349   -1.3388   -1.8410 O   0  0  0  0  0  0  0  0  0  0  0  0
    2.0111   -0.4044   -0.8237 N   0  0  0  0  0  0  0  0  0  0  0  0
    2.3363    0.0634    0.0094 H   0  0  0  0  0  0  0  0  0  0  0  0
    3.0013   -0.8052   -1.8198 C   0  0  0  0  0  0  0  0  0  0  0  0
    2.6551   -0.5256   -2.8163 H   0  0  0  0  0  0  0  0  0  0  0  0
    3.9566   -0.3196   -1.6161 H   0  0  0  0  0  0  0  0  0  0  0  0
    3.1315   -1.8886   -1.7856 H   0  0  0  0  0  0  0  0  0  0  0  0
  5  6  2  0  0  0  0
  5  7  1  0  0  0  0
  2  3  1  0  0  0  0
  2  4  1  0  0  0  0
  2  5  1  0  0  0  0
  1  2  1  0  0  0  0
 20 21  2  0  0  0  0
 20 22  1  0  0  0  0
 17 18  1  0  0  0  0
 17 19  2  0  0  0  0
 14 15  1  0  0  0  0
 14 16  1  0  0  0  0
 14 17  1  0  0  0  0
 11 12  1  0  0  0  0
 11 13  1  0  0  0  0
 11 14  1  0  0  0  0
  9 10  1  0  0  0  0
  9 11  1  0  0  0  0
  9 20  1  0  0  0  0
  7  8  1  0  0  0  0
  7  9  1  0  0  0  0
 24 25  1  0  0  0  0
 24 26  1  0  0  0  0
 24 27  1  0  0  0  0
 22 23  1  0  0  0  0
 22 24  1  0  0  0  0
M  CHG  1  18  -1
M  END
$$$$
default_name
  -OEChem-01062215323D

 27 26  0     1  0  0  0  0  0999 V2000
   -3.2406   -3.5400    1.2326 H   0  0  0  0  0  0  0  0  0  0  0  0
   -3.1436   -2.6190    0.6606 C   0  0  0  0  0  0  0  0  0  0  0  0
   -3.8786   -1.8920    0.9996 H   0  0  0  0  0  0  0  0  0  0  0  0
   -3.2846   -2.8280   -0.3984 H   0  0  0  0  0  0  0  0  0  0  0  0
   -1.7586   -2.0580    0.8686 C   0  0  0  0  0  0  0  0  0  0  0  0
   -0.9666   -2.6340    1.6026 O   0  0  0  0  0  0  0  0  0  0  0  0
   -1.4866   -0.9220    0.2366 N   0  0  0  0  0  0  0  0  0  0  0  0
   -2.2166   -0.4790   -0.2994 H   0  0  0  0  0  0  0  0  0  0  0  0
   -0.1956   -0.2250    0.2596 C   0  0  1  0  0  0  0  0  0  0  0  0
   -0.3691    0.8409    0.1098 H   0  0  0  0  0  0  0  0  0  0  0  0
    0.4487   -0.4003    1.6496 C   0  0  0  0  0  0  0  0  0  0  0  0
    0.4793   -1.4678    1.8737 H   0  0  0  0  0  0  0  0  0  0  0  0
    1.4725   -0.0246    1.6219 H   0  0  0  0  0  0  0  0  0  0  0  0
   -0.3201    0.3124    2.7749 C   0  0  0  0  0  0  0  0  0  0  0  0
   -0.3624    1.3822    2.5568 H   0  0  0  0  0  0  0  0  0  0  0  0
   -1.3442   -0.0700    2.7863 H   0  0  0  0  0  0  0  0  0  0  0  0
    0.3089    0.1169    4.1624 C   0  0  0  0  0  0  0  0  0  0  0  0
    1.2668   -0.6810    4.2733 O   0  5  0  0  0  0  0  0  0  0  0  0
   -0.1705    0.7971    5.0966 O   0  0  0  0  0  0  0  0  0  0  0  0
    0.7092   -0.7119   -0.8914 C   0  0  0  0  0  0  0  0  0  0  0  0
    0.2201   -1.0884   -1.9585 O   0  0  0  0  0  0  0  0  0  0  0  0
    2.0329   -0.6831   -0.6886 N   0  0  0  0  0  0  0  0  0  0  0  0
    2.3577   -0.4143    0.2283 H   0  0  0  0  0  0  0  0  0  0  0  0
    3.0223   -1.1259   -1.6677 C   0  0  0  0  0  0  0  0  0  0  0  0
    2.8323   -0.6426   -2.6275 H   0  0  0  0  0  0  0  0  0  0  0  0
    4.0273   -0.8749   -1.3256 H   0  0  0  0  0  0  0  0  0  0  0  0
    2.9439   -2.2069   -1.7984 H   0  0  0  0  0  0  0  0  0  0  0  0
  5  6  2  0  0  0  0
  5  7  1  0  0  0  0
  2  3  1  0  0  0  0
  2  4  1  0  0  0  0
  2  5  1  0  0  0  0
  1  2  1  0  0  0  0
 20 21  2  0  0  0  0
 20 22  1  0  0  0  0
 17 18  1  0  0  0  0
 17 19  2  0  0  0  0
 14 15  1  0  0  0  0
 14 16  1  0  0  0  0
 14 17  1  0  0  0  0
 11 12  1  0  0  0  0
 11 13  1  0  0  0  0
 11 14  1  0  0  0  0
  9 10  1  0  0  0  0
  9 11  1  0  0  0  0
  9 20  1  0  0  0  0
  7  8  1  0  0  0  0
  7  9  1  0  0  0  0
 24 25  1  0  0  0  0
 24 26  1  0  0  0  0
 24 27  1  0  0  0  0
 22 23  1  0  0  0  0
 22 24  1  0  0  0  0
M  CHG  1  18  -1
M  END
$$$$
default_name
  -OEChem-01062215323D

 27 26  0     1  0  0  0  0  0999 V2000
   -3.2406   -3.5400    1.2326 H   0  0  0  0  0  0  0  0  0  0  0  0
   -3.1436   -2.6190    0.6606 C   0  0  0  0  0  0  0  0  0  0  0  0
   -3.8786   -1.8920    0.9996 H   0  0  0  0  0  0  0  0  0  0  0  0
   -3.2846   -2.8280   -0.3984 H   0  0  0  0  0  0  0  0  0  0  0  0
   -1.7586   -2.0580    0.8686 C   0  0  0  0  0  0  0  0  0  0  0  0
   -0.9666   -2.6340    1.6026 O   0  0  0  0  0  0  0  0  0  0  0  0
   -1.4866   -0.9220    0.2366 N   0  0  0  0  0  0  0  0  0  0  0  0
   -2.2166   -0.4790   -0.2994 H   0  0  0  0  0  0  0  0  0  0  0  0
   -0.1956   -0.2250    0.2596 C   0  0  1  0  0  0  0  0  0  0  0  0
   -0.3691    0.8409    0.1098 H   0  0  0  0  0  0  0  0  0  0  0  0
    0.4487   -0.4003    1.6496 C   0  0  0  0  0  0  0  0  0  0  0  0
    0.4793   -1.4678    1.8737 H   0  0  0  0  0  0  0  0  0  0  0  0
    1.4725   -0.0246    1.6219 H   0  0  0  0  0  0  0  0  0  0  0  0
   -0.3201    0.3124    2.7749 C   0  0  0  0  0  0  0  0  0  0  0  0
   -0.3624    1.3822    2.5568 H   0  0  0  0  0  0  0  0  0  0  0  0
   -1.3442   -0.0700    2.7863 H   0  0  0  0  0  0  0  0  0  0  0  0
    0.3089    0.1169    4.1624 C   0  0  0  0  0  0  0  0  0  0  0  0
    1.2668   -0.6810    4.2733 O   0  5  0  0  0  0  0  0  0  0  0  0
   -0.1705    0.7971    5.0966 O   0  0  0  0  0  0  0  0  0  0  0  0
    0.7092   -0.7119   -0.8914 C   0  0  0  0  0  0  0  0  0  0  0  0
    0.2638   -0.8260   -2.0352 O   0  0  0  0  0  0  0  0  0  0  0  0
    1.9891   -0.9771   -0.5987 N   0  0  0  0  0  0  0  0  0  0  0  0
    2.2683   -0.9131    0.3690 H   0  0  0  0  0  0  0  0  0  0  0  0
    2.9682   -1.4628   -1.5677 C   0  0  0  0  0  0  0  0  0  0  0  0
    2.9655   -0.8185   -2.4485 H   0  0  0  0  0  0  0  0  0  0  0  0
    3.9646   -1.4691   -1.1236 H   0  0  0  0  0  0  0  0  0  0  0  0
    2.7023   -2.4762   -1.8744 H   0  0  0  0  0  0  0  0  0  0  0  0
  5  6  2  0  0  0  0
  5  7  1  0  0  0  0
  2  3  1  0  0  0  0
  2  4  1  0  0  0  0
  2  5  1  0  0  0  0
  1  2  1  0  0  0  0
 20 21  2  0  0  0  0
 20 22  1  0  0  0  0
 17 18  1  0  0  0  0
 17 19  2  0  0  0  0
 14 15  1  0  0  0  0
 14 16  1  0  0  0  0
 14 17  1  0  0  0  0
 11 12  1  0  0  0  0
 11 13  1  0  0  0  0
 11 14  1  0  0  0  0
  9 10  1  0  0  0  0
  9 11  1  0  0  0  0
  9 20  1  0  0  0  0
  7  8  1  0  0  0  0
  7  9  1  0  0  0  0
 24 25  1  0  0  0  0
 24 26  1  0  0  0  0
 24 27  1  0  0  0  0
 22 23  1  0  0  0  0
 22 24  1  0  0  0  0
M  CHG  1  18  -1
M  END
$$$$
default_name
  -OEChem-01062215323D

 27 26  0     1  0  0  0  0  0999 V2000
   -3.2406   -3.5400    1.2326 H   0  0  0  0  0  0  0  0  0  0  0  0
   -3.1436   -2.6190    0.6606 C   0  0  0  0  0  0  0  0  0  0  0  0
   -3.8786   -1.8920    0.9996 H   0  0  0  0  0  0  0  0  0  0  0  0
   -3.2846   -2.8280   -0.3984 H   0  0  0  0  0  0  0  0  0  0  0  0
   -1.7586   -2.0580    0.8686 C   0  0  0  0  0  0  0  0  0  0  0  0
   -0.9666   -2.6340    1.6026 O   0  0  0  0  0  0  0  0  0  0  0  0
   -1.4866   -0.9220    0.2366 N   0  0  0  0  0  0  0  0  0  0  0  0
   -2.2166   -0.4790   -0.2994 H   0  0  0  0  0  0  0  0  0  0  0  0
   -0.1956   -0.2250    0.2596 C   0  0  1  0  0  0  0  0  0  0  0  0
   -0.3691    0.8409    0.1098 H   0  0  0  0  0  0  0  0  0  0  0  0
    0.4487   -0.4003    1.6496 C   0  0  0  0  0  0  0  0  0  0  0  0
    0.4793   -1.4678    1.8737 H   0  0  0  0  0  0  0  0  0  0  0  0
    1.4725   -0.0246    1.6219 H   0  0  0  0  0  0  0  0  0  0  0  0
   -0.3201    0.3124    2.7749 C   0  0  0  0  0  0  0  0  0  0  0  0
   -0.3624    1.3822    2.5568 H   0  0  0  0  0  0  0  0  0  0  0  0
   -1.3442   -0.0700    2.7863 H   0  0  0  0  0  0  0  0  0  0  0  0
    0.3089    0.1169    4.1624 C   0  0  0  0  0  0  0  0  0  0  0  0
    1.2668   -0.6810    4.2733 O   0  5  0  0  0  0  0  0  0  0  0  0
   -0.1705    0.7971    5.0966 O   0  0  0  0  0  0  0  0  0  0  0  0
    0.7092   -0.7119   -0.8914 C   0  0  0  0  0  0  0  0  0  0  0  0
    0.3629   -0.5692   -2.0659 O   0  0  0  0  0  0  0  0  0  0  0  0
    1.8827   -1.2662   -0.5601 N   0  0  0  0  0  0  0  0  0  0  0  0
    2.0741   -1.3990    0.4219 H   0  0  0  0  0  0  0  0  0  0  0  0
    2.8428   -1.7929   -1.5266 C   0  0  0  0  0  0  0  0  0  0  0  0
    3.0455   -1.0413   -2.2913 H   0  0  0  0  0  0  0  0  0  0  0  0
    3.7728   -2.0616   -1.0237 H   0  0  0  0  0  0  0  0  0  0  0  0
    2.4231   -2.6782   -2.0084 H   0  0  0  0  0  0  0  0  0  0  0  0
  5  6  2  0  0  0  0
  5  7  1  0  0  0  0
  2  3  1  0  0  0  0
  2  4  1  0  0  0  0
  2  5  1  0  0  0  0
  1  2  1  0  0  0  0
 20 21  2  0  0  0  0
 20 22  1  0  0  0  0
 17 18  1  0  0  0  0
 17 19  2  0  0  0  0
 14 15  1  0  0  0  0
 14 16  1  0  0  0  0
 14 17  1  0  0  0  0
 11 12  1  0  0  0  0
 11 13  1  0  0  0  0
 11 14  1  0  0  0  0
  9 10  1  0  0  0  0
  9 11  1  0  0  0  0
  9 20  1  0  0  0  0
  7  8  1  0  0  0  0
  7  9  1  0  0  0  0
 24 25  1  0  0  0  0
 24 26  1  0  0  0  0
 24 27  1  0  0  0  0
 22 23  1  0  0  0  0
 22 24  1  0  0  0  0
M  CHG  1  18  -1
M  END
$$$$
default_name
  -OEChem-01062215323D

 27 26  0     1  0  0  0  0  0999 V2000
   -3.2406   -3.5400    1.2326 H   0  0  0  0  0  0  0  0  0  0  0  0
   -3.1436   -2.6190    0.6606 C   0  0  0  0  0  0  0  0  0  0  0  0
   -3.8786   -1.8920    0.9996 H   0  0  0  0  0  0  0  0  0  0  0  0
   -3.2846   -2.8280   -0.3984 H   0  0  0  0  0  0  0  0  0  0  0  0
   -1.7586   -2.0580    0.8686 C   0  0  0  0  0  0  0  0  0  0  0  0
   -0.9666   -2.6340    1.6026 O   0  0  0  0  0  0  0  0  0  0  0  0
   -1.4866   -0.9220    0.2366 N   0  0  0  0  0  0  0  0  0  0  0  0
   -2.2166   -0.4790   -0.2994 H   0  0  0  0  0  0  0  0  0  0  0  0
   -0.1956   -0.2250    0.2596 C   0  0  1  0  0  0  0  0  0  0  0  0
   -0.3691    0.8409    0.1098 H   0  0  0  0  0  0  0  0  0  0  0  0
    0.4487   -0.4003    1.6496 C   0  0  0  0  0  0  0  0  0  0  0  0
    0.4793   -1.4678    1.8737 H   0  0  0  0  0  0  0  0  0  0  0  0
    1.4725   -0.0246    1.6219 H   0  0  0  0  0  0  0  0  0  0  0  0
   -0.3201    0.3124    2.7749 C   0  0  0  0  0  0  0  0  0  0  0  0
   -0.3624    1.3822    2.5568 H   0  0  0  0  0  0  0  0  0  0  0  0
   -1.3442   -0.0700    2.7863 H   0  0  0  0  0  0  0  0  0  0  0  0
    0.3089    0.1169    4.1624 C   0  0  0  0  0  0  0  0  0  0  0  0
    1.2668   -0.6810    4.2733 O   0  5  0  0  0  0  0  0  0  0  0  0
   -0.1705    0.7971    5.0966 O   0  0  0  0  0  0  0  0  0  0  0  0
    0.7092   -0.7119   -0.8914 C   0  0  0  0  0  0  0  0  0  0  0  0
    0.5107   -0.3357   -2.0484 O   0  0  0  0  0  0  0  0  0  0  0  0
    1.7209   -1.5308   -0.5753 N   0  0  0  0  0  0  0  0  0  0  0  0
    1.7884   -1.8388    0.3834 H   0  0  0  0  0  0  0  0  0  0  0  0
    2.6545   -2.0939   -1.5473 C   0  0  0  0  0  0  0  0  0  0  0  0
    3.0670   -1.2957   -2.1668 H   0  0  0  0  0  0  0  0  0  0  0  0
    3.4650   -2.6120   -1.0328 H   0  0  0  0  0  0  0  0  0  0  0  0
    2.1254   -2.7990   -2.1913 H   0  0  0  0  0  0  0  0  0  0  0  0
  5  6  2  0  0  0  0
  5  7  1  0  0  0  0
  2  3  1  0  0  0  0
  2  4  1  0  0  0  0
  2  5  1  0  0  0  0
  1  2  1  0  0  0  0
 20 21  2  0  0  0  0
 20 22  1  0  0  0  0
 17 18  1  0  0  0  0
 17 19  2  0  0  0  0
 14 15  1  0  0  0  0
 14 16  1  0  0  0  0
 14 17  1  0  0  0  0
 11 12  1  0  0  0  0
 11 13  1  0  0  0  0
 11 14  1  0  0  0  0
  9 10  1  0  0  0  0
  9 11  1  0  0  0  0
  9 20  1  0  0  0  0
  7  8  1  0  0  0  0
  7  9  1  0  0  0  0
 24 25  1  0  0  0  0
 24 26  1  0  0  0  0
 24 27  1  0  0  0  0
 22 23  1  0  0  0  0
 22 24  1  0  0  0  0
M  CHG  1  18  -1
M  END
$$$$
default_name
  -OEChem-01062215323D

 27 26  0     1  0  0  0  0  0999 V2000
   -3.2406   -3.5400    1.2326 H   0  0  0  0  0  0  0  0  0  0  0  0
   -3.1436   -2.6190    0.6606 C   0  0  0  0  0  0  0  0  0  0  0  0
   -3.8786   -1.8920    0.9996 H   0  0  0  0  0  0  0  0  0  0  0  0
   -3.2846   -2.8280   -0.3984 H   0  0  0  0  0  0  0  0  0  0  0  0
   -1.7586   -2.0580    0.8686 C   0  0  0  0  0  0  0  0  0  0  0  0
   -0.9666   -2.6340    1.6026 O   0  0  0  0  0  0  0  0  0  0  0  0
   -1.4866   -0.9220    0.2366 N   0  0  0  0  0  0  0  0  0  0  0  0
   -2.2166   -0.4790   -0.2994 H   0  0  0  0  0  0  0  0  0  0  0  0
   -0.1956   -0.2250    0.2596 C   0  0  1  0  0  0  0  0  0  0  0  0
   -0.3691    0.8409    0.1098 H   0  0  0  0  0  0  0  0  0  0  0  0
    0.4487   -0.4003    1.6496 C   0  0  0  0  0  0  0  0  0  0  0  0
    0.4793   -1.4678    1.8737 H   0  0  0  0  0  0  0  0  0  0  0  0
    1.4725   -0.0246    1.6219 H   0  0  0  0  0  0  0  0  0  0  0  0
   -0.3201    0.3124    2.7749 C   0  0  0  0  0  0  0  0  0  0  0  0
   -0.3624    1.3822    2.5568 H   0  0  0  0  0  0  0  0  0  0  0  0
   -1.3442   -0.0700    2.7863 H   0  0  0  0  0  0  0  0  0  0  0  0
    0.3089    0.1169    4.1624 C   0  0  0  0  0  0  0  0  0  0  0  0
    1.2668   -0.6810    4.2733 O   0  5  0  0  0  0  0  0  0  0  0  0
   -0.1705    0.7971    5.0966 O   0  0  0  0  0  0  0  0  0  0  0  0
    0.7092   -0.7119   -0.8914 C   0  0  0  0  0  0  0  0  0  0  0  0
    0.6972   -0.1413   -1.9841 O   0  0  0  0  0  0  0  0  0  0  0  0
    1.5148   -1.7528   -0.6434 N   0  0  0  0  0  0  0  0  0  0  0  0
    1.4307   -2.2027    0.2561 H   0  0  0  0  0  0  0  0  0  0  0  0
    2.4162   -2.3450   -1.6283 C   0  0  0  0  0  0  0  0  0  0  0  0
    3.0284   -1.5646   -2.0834 H   0  0  0  0  0  0  0  0  0  0  0  0
    3.0622   -3.0828   -1.1503 H   0  0  0  0  0  0  0  0  0  0  0  0
    1.8295   -2.8305   -2.4106 H   0  0  0  0  0  0  0  0  0  0  0  0
  5  6  2  0  0  0  0
  5  7  1  0  0  0  0
  2  3  1  0  0  0  0
  2  4  1  0  0  0  0
  2  5  1  0  0  0  0
  1  2  1  0  0  0  0
 20 21  2  0  0  0  0
 20 22  1  0  0  0  0
 17 18  1  0  0  0  0
 17 19  2  0  0  0  0
 14 15  1  0  0  0  0
 14 16  1  0  0  0  0
 14 17  1  0  0  0  0
 11 12  1  0  0  0  0
 11 13  1  0  0  0  0
 11 14  1  0  0  0  0
  9 10  1  0  0  0  0
  9 11  1  0  0  0  0
  9 20  1  0  0  0  0
  7  8  1  0  0  0  0
  7  9  1  0  0  0  0
 24 25  1  0  0  0  0
 24 26  1  0  0  0  0
 24 27  1  0  0  0  0
 22 23  1  0  0  0  0
 22 24  1  0  0  0  0
M  CHG  1  18  -1
M  END
$$$$
default_name
  -OEChem-01062215323D

 27 26  0     1  0  0  0  0  0999 V2000
   -3.2406   -3.5400    1.2326 H   0  0  0  0  0  0  0  0  0  0  0  0
   -3.1436   -2.6190    0.6606 C   0  0  0  0  0  0  0  0  0  0  0  0
   -3.8786   -1.8920    0.9996 H   0  0  0  0  0  0  0  0  0  0  0  0
   -3.2846   -2.8280   -0.3984 H   0  0  0  0  0  0  0  0  0  0  0  0
   -1.7586   -2.0580    0.8686 C   0  0  0  0  0  0  0  0  0  0  0  0
   -0.9666   -2.6340    1.6026 O   0  0  0  0  0  0  0  0  0  0  0  0
   -1.4866   -0.9220    0.2366 N   0  0  0  0  0  0  0  0  0  0  0  0
   -2.2166   -0.4790   -0.2994 H   0  0  0  0  0  0  0  0  0  0  0  0
   -0.1956   -0.2250    0.2596 C   0  0  1  0  0  0  0  0  0  0  0  0
   -0.3691    0.8409    0.1098 H   0  0  0  0  0  0  0  0  0  0  0  0
    0.4487   -0.4003    1.6496 C   0  0  0  0  0  0  0  0  0  0  0  0
    0.4793   -1.4678    1.8737 H   0  0  0  0  0  0  0  0  0  0  0  0
    1.4725   -0.0246    1.6219 H   0  0  0  0  0  0  0  0  0  0  0  0
   -0.3201    0.3124    2.7749 C   0  0  0  0  0  0  0  0  0  0  0  0
   -0.3624    1.3822    2.5568 H   0  0  0  0  0  0  0  0  0  0  0  0
   -1.3442   -0.0700    2.7863 H   0  0  0  0  0  0  0  0  0  0  0  0
    0.3089    0.1169    4.1624 C   0  0  0  0  0  0  0  0  0  0  0  0
    1.2668   -0.6810    4.2733 O   0  5  0  0  0  0  0  0  0  0  0  0
   -0.1705    0.7971    5.0966 O   0  0  0  0  0  0  0  0  0  0  0  0
    0.7092   -0.7119   -0.8914 C   0  0  0  0  0  0  0  0  0  0  0  0
    0.9096    0.0006   -1.8772 O   0  0  0  0  0  0  0  0  0  0  0  0
    1.2784   -1.9172   -0.7597 N   0  0  0  0  0  0  0  0  0  0  0  0
    1.0253   -2.4658    0.0487 H   0  0  0  0  0  0  0  0  0  0  0  0
    2.1442   -2.5294   -1.7642 C   0  0  0  0  0  0  0  0  0  0  0  0
    2.9324   -1.8295   -2.0468 H   0  0  0  0  0  0  0  0  0  0  0  0
    2.5918   -3.4420   -1.3682 H   0  0  0  0  0  0  0  0  0  0  0  0
    1.5555   -2.7705   -2.6514 H   0  0  0  0  0  0  0  0  0  0  0  0
  5  6  2  0  0  0  0
  5  7  1  0  0  0  0
  2  3  1  0  0  0  0
  2  4  1  0  0  0  0
  2  5  1  0  0  0  0
  1  2  1  0  0  0  0
 20 21  2  0  0  0  0
 20 22  1  0  0  0  0
 17 18  1  0  0  0  0
 17 19  2  0  0  0  0
 14 15  1  0  0  0  0
 14 16  1  0  0  0  0
 14 17  1  0  0  0  0
 11 12  1  0  0  0  0
 11 13  1  0  0  0  0
 11 14  1  0  0  0  0
  9 10  1  0  0  0  0
  9 11  1  0  0  0  0
  9 20  1  0  0  0  0
  7  8  1  0  0  0  0
  7  9  1  0  0  0  0
 24 25  1  0  0  0  0
 24 26  1  0  0  0  0
 24 27  1  0  0  0  0
 22 23  1  0  0  0  0
 22 24  1  0  0  0  0
M  CHG  1  18  -1
M  END
$$$$
default_name
  -OEChem-01062215323D

 27 26  0     1  0  0  0  0  0999 V2000
   -3.2406   -3.5400    1.2326 H   0  0  0  0  0  0  0  0  0  0  0  0
   -3.1436   -2.6190    0.6606 C   0  0  0  0  0  0  0  0  0  0  0  0
   -3.8786   -1.8920    0.9996 H   0  0  0  0  0  0  0  0  0  0  0  0
   -3.2846   -2.8280   -0.3984 H   0  0  0  0  0  0  0  0  0  0  0  0
   -1.7586   -2.0580    0.8686 C   0  0  0  0  0  0  0  0  0  0  0  0
   -0.9666   -2.6340    1.6026 O   0  0  0  0  0  0  0  0  0  0  0  0
   -1.4866   -0.9220    0.2366 N   0  0  0  0  0  0  0  0  0  0  0  0
   -2.2166   -0.4790   -0.2994 H   0  0  0  0  0  0  0  0  0  0  0  0
   -0.1956   -0.2250    0.2596 C   0  0  1  0  0  0  0  0  0  0  0  0
   -0.3691    0.8409    0.1098 H   0  0  0  0  0  0  0  0  0  0  0  0
    0.4487   -0.4003    1.6496 C   0  0  0  0  0  0  0  0  0  0  0  0
    0.4793   -1.4678    1.8737 H   0  0  0  0  0  0  0  0  0  0  0  0
    1.4725   -0.0246    1.6219 H   0  0  0  0  0  0  0  0  0  0  0  0
   -0.3201    0.3124    2.7749 C   0  0  0  0  0  0  0  0  0  0  0  0
   -0.3624    1.3822    2.5568 H   0  0  0  0  0  0  0  0  0  0  0  0
   -1.3442   -0.0700    2.7863 H   0  0  0  0  0  0  0  0  0  0  0  0
    0.3089    0.1169    4.1624 C   0  0  0  0  0  0  0  0  0  0  0  0
    1.2668   -0.6810    4.2733 O   0  5  0  0  0  0  0  0  0  0  0  0
   -0.1705    0.7971    5.0966 O   0  0  0  0  0  0  0  0  0  0  0  0
    0.7092   -0.7119   -0.8914 C   0  0  0  0  0  0  0  0  0  0  0  0
    1.1334    0.0805   -1.7351 O   0  0  0  0  0  0  0  0  0  0  0  0
    1.0279   -2.0126   -0.9163 N   0  0  0  0  0  0  0  0  0  0  0  0
    0.5999   -2.6101   -0.2247 H   0  0  0  0  0  0  0  0  0  0  0  0
    1.8570   -2.6342   -1.9456 C   0  0  0  0  0  0  0  0  0  0  0  0
    2.7856   -2.0724   -2.0595 H   0  0  0  0  0  0  0  0  0  0  0  0
    2.0858   -3.6651   -1.6716 H   0  0  0  0  0  0  0  0  0  0  0  0
    1.3220   -2.6230   -2.8973 H   0  0  0  0  0  0  0  0  0  0  0  0
  5  6  2  0  0  0  0
  5  7  1  0  0  0  0
  2  3  1  0  0  0  0
  2  4  1  0  0  0  0
  2  5  1  0  0  0  0
  1  2  1  0  0  0  0
 20 21  2  0  0  0  0
 20 22  1  0  0  0  0
 17 18  1  0  0  0  0
 17 19  2  0  0  0  0
 14 15  1  0  0  0  0
 14 16  1  0  0  0  0
 14 17  1  0  0  0  0
 11 12  1  0  0  0  0
 11 13  1  0  0  0  0
 11 14  1  0  0  0  0
  9 10  1  0  0  0  0
  9 11  1  0  0  0  0
  9 20  1  0  0  0  0
  7  8  1  0  0  0  0
  7  9  1  0  0  0  0
 24 25  1  0  0  0  0
 24 26  1  0  0  0  0
 24 27  1  0  0  0  0
 22 23  1  0  0  0  0
 22 24  1  0  0  0  0
M  CHG  1  18  -1
M  END
$$$$
default_name
  -OEChem-01062215323D

 27 26  0     1  0  0  0  0  0999 V2000
   -3.2406   -3.5400    1.2326 H   0  0  0  0  0  0  0  0  0  0  0  0
   -3.1436   -2.6190    0.6606 C   0  0  0  0  0  0  0  0  0  0  0  0
   -3.8786   -1.8920    0.9996 H   0  0  0  0  0  0  0  0  0  0  0  0
   -3.2846   -2.8280   -0.3984 H   0  0  0  0  0  0  0  0  0  0  0  0
   -1.7586   -2.0580    0.8686 C   0  0  0  0  0  0  0  0  0  0  0  0
   -0.9666   -2.6340    1.6026 O   0  0  0  0  0  0  0  0  0  0  0  0
   -1.4866   -0.9220    0.2366 N   0  0  0  0  0  0  0  0  0  0  0  0
   -2.2166   -0.4790   -0.2994 H   0  0  0  0  0  0  0  0  0  0  0  0
   -0.1956   -0.2250    0.2596 C   0  0  1  0  0  0  0  0  0  0  0  0
   -0.3691    0.8409    0.1098 H   0  0  0  0  0  0  0  0  0  0  0  0
    0.4487   -0.4003    1.6496 C   0  0  0  0  0  0  0  0  0  0  0  0
    0.4793   -1.4678    1.8737 H   0  0  0  0  0  0  0  0  0  0  0  0
    1.4725   -0.0246    1.6219 H   0  0  0  0  0  0  0  0  0  0  0  0
   -0.3201    0.3124    2.7749 C   0  0  0  0  0  0  0  0  0  0  0  0
   -0.3624    1.3822    2.5568 H   0  0  0  0  0  0  0  0  0  0  0  0
   -1.3442   -0.0700    2.7863 H   0  0  0  0  0  0  0  0  0  0  0  0
    0.3089    0.1169    4.1624 C   0  0  0  0  0  0  0  0  0  0  0  0
    1.2668   -0.6810    4.2733 O   0  5  0  0  0  0  0  0  0  0  0  0
   -0.1705    0.7971    5.0966 O   0  0  0  0  0  0  0  0  0  0  0  0
    0.7092   -0.7119   -0.8914 C   0  0  0  0  0  0  0  0  0  0  0  0
    1.3534    0.0929   -1.5674 O   0  0  0  0  0  0  0  0  0  0  0  0
    0.7802   -2.0327   -1.1025 N   0  0  0  0  0  0  0  0  0  0  0  0
    0.1834   -2.6259   -0.5454 H   0  0  0  0  0  0  0  0  0  0  0  0
    1.5741   -2.6526   -2.1603 C   0  0  0  0  0  0  0  0  0  0  0  0
    2.5978   -2.2767   -2.1206 H   0  0  0  0  0  0  0  0  0  0  0  0
    1.5788   -3.7368   -2.0398 H   0  0  0  0  0  0  0  0  0  0  0  0
    1.1451   -2.3982   -3.1314 H   0  0  0  0  0  0  0  0  0  0  0  0
  5  6  2  0  0  0  0
  5  7  1  0  0  0  0
  2  3  1  0  0  0  0
  2  4  1  0  0  0  0
  2  5  1  0  0  0  0
  1  2  1  0  0  0  0
 20 21  2  0  0  0  0
 20 22  1  0  0  0  0
 17 18  1  0  0  0  0
 17 19  2  0  0  0  0
 14 15  1  0  0  0  0
 14 16  1  0  0  0  0
 14 17  1  0  0  0  0
 11 12  1  0  0  0  0
 11 13  1  0  0  0  0
 11 14  1  0  0  0  0
  9 10  1  0  0  0  0
  9 11  1  0  0  0  0
  9 20  1  0  0  0  0
  7  8  1  0  0  0  0
  7  9  1  0  0  0  0
 24 25  1  0  0  0  0
 24 26  1  0  0  0  0
 24 27  1  0  0  0  0
 22 23  1  0  0  0  0
 22 24  1  0  0  0  0
M  CHG  1  18  -1
M  END
$$$$
default_name
  -OEChem-01062215323D

 27 26  0     1  0  0  0  0  0999 V2000
   -3.2406   -3.5400    1.2326 H   0  0  0  0  0  0  0  0  0  0  0  0
   -3.1436   -2.6190    0.6606 C   0  0  0  0  0  0  0  0  0  0  0  0
   -3.8786   -1.8920    0.9996 H   0  0  0  0  0  0  0  0  0  0  0  0
   -3.2846   -2.8280   -0.3984 H   0  0  0  0  0  0  0  0  0  0  0  0
   -1.7586   -2.0580    0.8686 C   0  0  0  0  0  0  0  0  0  0  0  0
   -0.9666   -2.6340    1.6026 O   0  0  0  0  0  0  0  0  0  0  0  0
   -1.4866   -0.9220    0.2366 N   0  0  0  0  0  0  0  0  0  0  0  0
   -2.2166   -0.4790   -0.2994 H   0  0  0  0  0  0  0  0  0  0  0  0
   -0.1956   -0.2250    0.2596 C   0  0  1  0  0  0  0  0  0  0  0  0
   -0.3691    0.8409    0.1098 H   0  0  0  0  0  0  0  0  0  0  0  0
    0.4487   -0.4003    1.6496 C   0  0  0  0  0  0  0  0  0  0  0  0
    0.4793   -1.4678    1.8737 H   0  0  0  0  0  0  0  0  0  0  0  0
    1.4725   -0.0246    1.6219 H   0  0  0  0  0  0  0  0  0  0  0  0
   -0.3201    0.3124    2.7749 C   0  0  0  0  0  0  0  0  0  0  0  0
   -0.3624    1.3822    2.5568 H   0  0  0  0  0  0  0  0  0  0  0  0
   -1.3442   -0.0700    2.7863 H   0  0  0  0  0  0  0  0  0  0  0  0
    0.3089    0.1169    4.1624 C   0  0  0  0  0  0  0  0  0  0  0  0
    1.2668   -0.6810    4.2733 O   0  5  0  0  0  0  0  0  0  0  0  0
   -0.1705    0.7971    5.0966 O   0  0  0  0  0  0  0  0  0  0  0  0
    0.7092   -0.7119   -0.8914 C   0  0  0  0  0  0  0  0  0  0  0  0
    1.5546    0.0370   -1.3856 O   0  0  0  0  0  0  0  0  0  0  0  0
    0.5523   -1.9760   -1.3056 N   0  0  0  0  0  0  0  0  0  0  0  0
   -0.1958   -2.5121   -0.8916 H   0  0  0  0  0  0  0  0  0  0  0  0
    1.3148   -2.5831   -2.3934 C   0  0  0  0  0  0  0  0  0  0  0  0
    2.3821   -2.4285   -2.2260 H   0  0  0  0  0  0  0  0  0  0  0  0
    1.1053   -3.6523   -2.4477 H   0  0  0  0  0  0  0  0  0  0  0  0
    1.0367   -2.1114   -3.3380 H   0  0  0  0  0  0  0  0  0  0  0  0
  5  6  2  0  0  0  0
  5  7  1  0  0  0  0
  2  3  1  0  0  0  0
  2  4  1  0  0  0  0
  2  5  1  0  0  0  0
  1  2  1  0  0  0  0
 20 21  2  0  0  0  0
 20 22  1  0  0  0  0
 17 18  1  0  0  0  0
 17 19  2  0  0  0  0
 14 15  1  0  0  0  0
 14 16  1  0  0  0  0
 14 17  1  0  0  0  0
 11 12  1  0  0  0  0
 11 13  1  0  0  0  0
 11 14  1  0  0  0  0
  9 10  1  0  0  0  0
  9 11  1  0  0  0  0
  9 20  1  0  0  0  0
  7  8  1  0  0  0  0
  7  9  1  0  0  0  0
 24 25  1  0  0  0  0
 24 26  1  0  0  0  0
 24 27  1  0  0  0  0
 22 23  1  0  0  0  0
 22 24  1  0  0  0  0
M  CHG  1  18  -1
M  END
$$$$
default_name
  -OEChem-01062215323D

 27 26  0     1  0  0  0  0  0999 V2000
   -3.2406   -3.5400    1.2326 H   0  0  0  0  0  0  0  0  0  0  0  0
   -3.1436   -2.6190    0.6606 C   0  0  0  0  0  0  0  0  0  0  0  0
   -3.8786   -1.8920    0.9996 H   0  0  0  0  0  0  0  0  0  0  0  0
   -3.2846   -2.8280   -0.3984 H   0  0  0  0  0  0  0  0  0  0  0  0
   -1.7586   -2.0580    0.8686 C   0  0  0  0  0  0  0  0  0  0  0  0
   -0.9666   -2.6340    1.6026 O   0  0  0  0  0  0  0  0  0  0  0  0
   -1.4866   -0.9220    0.2366 N   0  0  0  0  0  0  0  0  0  0  0  0
   -2.2166   -0.4790   -0.2994 H   0  0  0  0  0  0  0  0  0  0  0  0
   -0.1956   -0.2250    0.2596 C   0  0  1  0  0  0  0  0  0  0  0  0
   -0.3691    0.8409    0.1098 H   0  0  0  0  0  0  0  0  0  0  0  0
    0.4487   -0.4003    1.6496 C   0  0  0  0  0  0  0  0  0  0  0  0
    0.4793   -1.4678    1.8737 H   0  0  0  0  0  0  0  0  0  0  0  0
    1.4725   -0.0246    1.6219 H   0  0  0  0  0  0  0  0  0  0  0  0
   -0.3201    0.3124    2.7749 C   0  0  0  0  0  0  0  0  0  0  0  0
   -0.3624    1.3822    2.5568 H   0  0  0  0  0  0  0  0  0  0  0  0
   -1.3442   -0.0700    2.7863 H   0  0  0  0  0  0  0  0  0  0  0  0
    0.3089    0.1169    4.1624 C   0  0  0  0  0  0  0  0  0  0  0  0
    1.2668   -0.6810    4.2733 O   0  5  0  0  0  0  0  0  0  0  0  0
   -0.1705    0.7971    5.0966 O   0  0  0  0  0  0  0  0  0  0  0  0
    0.7092   -0.7119   -0.8914 C   0  0  0  0  0  0  0  0  0  0  0  0
    1.7233   -0.0835   -1.2020 O   0  0  0  0  0  0  0  0  0  0  0  0
    0.3597   -1.8464   -1.5118 N   0  0  0  0  0  0  0  0  0  0  0  0
   -0.5118   -2.2764   -1.2396 H   0  0  0  0  0  0  0  0  0  0  0  0
    1.0969   -2.4305   -2.6293 C   0  0  0  0  0  0  0  0  0  0  0  0
    2.1529   -2.5176   -2.3685 H   0  0  0  0  0  0  0  0  0  0  0  0
    0.6975   -3.4173   -2.8676 H   0  0  0  0  0  0  0  0  0  0  0  0
    1.0043   -1.7821   -3.5028 H   0  0  0  0  0  0  0  0  0  0  0  0
  5  6  2  0  0  0  0
  5  7  1  0  0  0  0
  2  3  1  0  0  0  0
  2  4  1  0  0  0  0
  2  5  1  0  0  0  0
  1  2  1  0  0  0  0
 20 21  2  0  0  0  0
 20 22  1  0  0  0  0
 17 18  1  0  0  0  0
 17 19  2  0  0  0  0
 14 15  1  0  0  0  0
 14 16  1  0  0  0  0
 14 17  1  0  0  0  0
 11 12  1  0  0  0  0
 11 13  1  0  0  0  0
 11 14  1  0  0  0  0
  9 10  1  0  0  0  0
  9 11  1  0  0  0  0
  9 20  1  0  0  0  0
  7  8  1  0  0  0  0
  7  9  1  0  0  0  0
 24 25  1  0  0  0  0
 24 26  1  0  0  0  0
 24 27  1  0  0  0  0
 22 23  1  0  0  0  0
 22 24  1  0  0  0  0
M  CHG  1  18  -1
M  END
$$$$
default_name
  -OEChem-01062215323D

 27 26  0     1  0  0  0  0  0999 V2000
   -3.2406   -3.5400    1.2326 H   0  0  0  0  0  0  0  0  0  0  0  0
   -3.1436   -2.6190    0.6606 C   0  0  0  0  0  0  0  0  0  0  0  0
   -3.8786   -1.8920    0.9996 H   0  0  0  0  0  0  0  0  0  0  0  0
   -3.2846   -2.8280   -0.3984 H   0  0  0  0  0  0  0  0  0  0  0  0
   -1.7586   -2.0580    0.8686 C   0  0  0  0  0  0  0  0  0  0  0  0
   -0.9666   -2.6340    1.6026 O   0  0  0  0  0  0  0  0  0  0  0  0
   -1.4866   -0.9220    0.2366 N   0  0  0  0  0  0  0  0  0  0  0  0
   -2.2166   -0.4790   -0.2994 H   0  0  0  0  0  0  0  0  0  0  0  0
   -0.1956   -0.2250    0.2596 C   0  0  1  0  0  0  0  0  0  0  0  0
   -0.3691    0.8409    0.1098 H   0  0  0  0  0  0  0  0  0  0  0  0
    0.4487   -0.4003    1.6496 C   0  0  0  0  0  0  0  0  0  0  0  0
    0.4793   -1.4678    1.8737 H   0  0  0  0  0  0  0  0  0  0  0  0
    1.4725   -0.0246    1.6219 H   0  0  0  0  0  0  0  0  0  0  0  0
   -0.3201    0.3124    2.7749 C   0  0  0  0  0  0  0  0  0  0  0  0
   -0.3624    1.3822    2.5568 H   0  0  0  0  0  0  0  0  0  0  0  0
   -1.3442   -0.0700    2.7863 H   0  0  0  0  0  0  0  0  0  0  0  0
    0.3089    0.1169    4.1624 C   0  0  0  0  0  0  0  0  0  0  0  0
    1.2668   -0.6810    4.2733 O   0  5  0  0  0  0  0  0  0  0  0  0
   -0.1705    0.7971    5.0966 O   0  0  0  0  0  0  0  0  0  0  0  0
    0.7092   -0.7119   -0.8914 C   0  0  0  0  0  0  0  0  0  0  0  0
    1.8480   -0.2603   -1.0292 O   0  0  0  0  0  0  0  0  0  0  0  0
    0.2156   -1.6527   -1.7070 N   0  0  0  0  0  0  0  0  0  0  0  0
   -0.7430   -1.9349   -1.5659 H   0  0  0  0  0  0  0  0  0  0  0  0
    0.9350   -2.2052   -2.8518 C   0  0  0  0  0  0  0  0  0  0  0  0
    1.9261   -2.5377   -2.5383 H   0  0  0  0  0  0  0  0  0  0  0  0
    0.3833   -3.0479   -3.2709 H   0  0  0  0  0  0  0  0  0  0  0  0
    1.0500   -1.4327   -3.6146 H   0  0  0  0  0  0  0  0  0  0  0  0
  5  6  2  0  0  0  0
  5  7  1  0  0  0  0
  2  3  1  0  0  0  0
  2  4  1  0  0  0  0
  2  5  1  0  0  0  0
  1  2  1  0  0  0  0
 20 21  2  0  0  0  0
 20 22  1  0  0  0  0
 17 18  1  0  0  0  0
 17 19  2  0  0  0  0
 14 15  1  0  0  0  0
 14 16  1  0  0  0  0
 14 17  1  0  0  0  0
 11 12  1  0  0  0  0
 11 13  1  0  0  0  0
 11 14  1  0  0  0  0
  9 10  1  0  0  0  0
  9 11  1  0  0  0  0
  9 20  1  0  0  0  0
  7  8  1  0  0  0  0
  7  9  1  0  0  0  0
 24 25  1  0  0  0  0
 24 26  1  0  0  0  0
 24 27  1  0  0  0  0
 22 23  1  0  0  0  0
 22 24  1  0  0  0  0
M  CHG  1  18  -1
M  END
$$$$
default_name
  -OEChem-01062215323D

 27 26  0     1  0  0  0  0  0999 V2000
   -3.2406   -3.5400    1.2326 H   0  0  0  0  0  0  0  0  0  0  0  0
   -3.1436   -2.6190    0.6606 C   0  0  0  0  0  0  0  0  0  0  0  0
   -3.8786   -1.8920    0.9996 H   0  0  0  0  0  0  0  0  0  0  0  0
   -3.2846   -2.8280   -0.3984 H   0  0  0  0  0  0  0  0  0  0  0  0
   -1.7586   -2.0580    0.8686 C   0  0  0  0  0  0  0  0  0  0  0  0
   -0.9666   -2.6340    1.6026 O   0  0  0  0  0  0  0  0  0  0  0  0
   -1.4866   -0.9220    0.2366 N   0  0  0  0  0  0  0  0  0  0  0  0
   -2.2166   -0.4790   -0.2994 H   0  0  0  0  0  0  0  0  0  0  0  0
   -0.1956   -0.2250    0.2596 C   0  0  1  0  0  0  0  0  0  0  0  0
   -0.3691    0.8409    0.1098 H   0  0  0  0  0  0  0  0  0  0  0  0
    0.4487   -0.4003    1.6496 C   0  0  0  0  0  0  0  0  0  0  0  0
    0.4793   -1.4678    1.8737 H   0  0  0  0  0  0  0  0  0  0  0  0
    1.4725   -0.0246    1.6219 H   0  0  0  0  0  0  0  0  0  0  0  0
   -0.3201    0.3124    2.7749 C   0  0  0  0  0  0  0  0  0  0  0  0
   -0.3624    1.3822    2.5568 H   0  0  0  0  0  0  0  0  0  0  0  0
   -1.3442   -0.0700    2.7863 H   0  0  0  0  0  0  0  0  0  0  0  0
    0.3089    0.1169    4.1624 C   0  0  0  0  0  0  0  0  0  0  0  0
    1.2668   -0.6810    4.2733 O   0  5  0  0  0  0  0  0  0  0  0  0
   -0.1705    0.7971    5.0966 O   0  0  0  0  0  0  0  0  0  0  0  0
    0.7092   -0.7119   -0.8914 C   0  0  0  0  0  0  0  0  0  0  0  0
    1.9202   -0.4815   -0.8789 O   0  0  0  0  0  0  0  0  0  0  0  0
    0.1297   -1.4081   -1.8780 N   0  0  0  0  0  0  0  0  0  0  0  0
   -0.8739   -1.5108   -1.8481 H   0  0  0  0  0  0  0  0  0  0  0  0
    0.8404   -1.9226   -3.0457 C   0  0  0  0  0  0  0  0  0  0  0  0
    1.7169   -2.4876   -2.7239 H   0  0  0  0  0  0  0  0  0  0  0  0
    0.1841   -2.5692   -3.6300 H   0  0  0  0  0  0  0  0  0  0  0  0
    1.1708   -1.0870   -3.6659 H   0  0  0  0  0  0  0  0  0  0  0  0
  5  6  2  0  0  0  0
  5  7  1  0  0  0  0
  2  3  1  0  0  0  0
  2  4  1  0  0  0  0
  2  5  1  0  0  0  0
  1  2  1  0  0  0  0
 20 21  2  0  0  0  0
 20 22  1  0  0  0  0
 17 18  1  0  0  0  0
 17 19  2  0  0  0  0
 14 15  1  0  0  0  0
 14 16  1  0  0  0  0
 14 17  1  0  0  0  0
 11 12  1  0  0  0  0
 11 13  1  0  0  0  0
 11 14  1  0  0  0  0
  9 10  1  0  0  0  0
  9 11  1  0  0  0  0
  9 20  1  0  0  0  0
  7  8  1  0  0  0  0
  7  9  1  0  0  0  0
 24 25  1  0  0  0  0
 24 26  1  0  0  0  0
 24 27  1  0  0  0  0
 22 23  1  0  0  0  0
 22 24  1  0  0  0  0
M  CHG  1  18  -1
M  END
$$$$
default_name
  -OEChem-01062215323D

 27 26  0     1  0  0  0  0  0999 V2000
   -3.2406   -3.5400    1.2326 H   0  0  0  0  0  0  0  0  0  0  0  0
   -3.1436   -2.6190    0.6606 C   0  0  0  0  0  0  0  0  0  0  0  0
   -3.8786   -1.8920    0.9996 H   0  0  0  0  0  0  0  0  0  0  0  0
   -3.2846   -2.8280   -0.3984 H   0  0  0  0  0  0  0  0  0  0  0  0
   -1.7586   -2.0580    0.8686 C   0  0  0  0  0  0  0  0  0  0  0  0
   -0.9666   -2.6340    1.6026 O   0  0  0  0  0  0  0  0  0  0  0  0
   -1.4866   -0.9220    0.2366 N   0  0  0  0  0  0  0  0  0  0  0  0
   -2.2166   -0.4790   -0.2994 H   0  0  0  0  0  0  0  0  0  0  0  0
   -0.1956   -0.2250    0.2596 C   0  0  1  0  0  0  0  0  0  0  0  0
   -0.3691    0.8409    0.1098 H   0  0  0  0  0  0  0  0  0  0  0  0
    0.4487   -0.4003    1.6496 C   0  0  0  0  0  0  0  0  0  0  0  0
    0.4793   -1.4678    1.8737 H   0  0  0  0  0  0  0  0  0  0  0  0
    1.4725   -0.0246    1.6219 H   0  0  0  0  0  0  0  0  0  0  0  0
   -0.3201    0.3124    2.7749 C   0  0  0  0  0  0  0  0  0  0  0  0
   -0.3624    1.3822    2.5568 H   0  0  0  0  0  0  0  0  0  0  0  0
   -1.3442   -0.0700    2.7863 H   0  0  0  0  0  0  0  0  0  0  0  0
    0.3089    0.1169    4.1624 C   0  0  0  0  0  0  0  0  0  0  0  0
    1.2668   -0.6810    4.2733 O   0  5  0  0  0  0  0  0  0  0  0  0
   -0.1705    0.7971    5.0966 O   0  0  0  0  0  0  0  0  0  0  0  0
    0.7092   -0.7119   -0.8914 C   0  0  0  0  0  0  0  0  0  0  0  0
    1.9349   -0.7318   -0.7614 O   0  0  0  0  0  0  0  0  0  0  0  0
    0.1079   -1.1294   -2.0130 N   0  0  0  0  0  0  0  0  0  0  0  0
   -0.8953   -1.0331   -2.0670 H   0  0  0  0  0  0  0  0  0  0  0  0
    0.8194   -1.6019   -3.1979 C   0  0  0  0  0  0  0  0  0  0  0  0
    1.5397   -2.3706   -2.9127 H   0  0  0  0  0  0  0  0  0  0  0  0
    0.1135   -2.0138   -3.9204 H   0  0  0  0  0  0  0  0  0  0  0  0
    1.3584   -0.7687   -3.6531 H   0  0  0  0  0  0  0  0  0  0  0  0
  5  6  2  0  0  0  0
  5  7  1  0  0  0  0
  2  3  1  0  0  0  0
  2  4  1  0  0  0  0
  2  5  1  0  0  0  0
  1  2  1  0  0  0  0
 20 21  2  0  0  0  0
 20 22  1  0  0  0  0
 17 18  1  0  0  0  0
 17 19  2  0  0  0  0
 14 15  1  0  0  0  0
 14 16  1  0  0  0  0
 14 17  1  0  0  0  0
 11 12  1  0  0  0  0
 11 13  1  0  0  0  0
 11 14  1  0  0  0  0
  9 10  1  0  0  0  0
  9 11  1  0  0  0  0
  9 20  1  0  0  0  0
  7  8  1  0  0  0  0
  7  9  1  0  0  0  0
 24 25  1  0  0  0  0
 24 26  1  0  0  0  0
 24 27  1  0  0  0  0
 22 23  1  0  0  0  0
 22 24  1  0  0  0  0
M  CHG  1  18  -1
M  END
$$$$
default_name
  -OEChem-01062215323D

 27 26  0     1  0  0  0  0  0999 V2000
   -3.2406   -3.5400    1.2326 H   0  0  0  0  0  0  0  0  0  0  0  0
   -3.1436   -2.6190    0.6606 C   0  0  0  0  0  0  0  0  0  0  0  0
   -3.8786   -1.8920    0.9996 H   0  0  0  0  0  0  0  0  0  0  0  0
   -3.2846   -2.8280   -0.3984 H   0  0  0  0  0  0  0  0  0  0  0  0
   -1.7586   -2.0580    0.8686 C   0  0  0  0  0  0  0  0  0  0  0  0
   -0.9666   -2.6340    1.6026 O   0  0  0  0  0  0  0  0  0  0  0  0
   -1.4866   -0.9220    0.2366 N   0  0  0  0  0  0  0  0  0  0  0  0
   -2.2166   -0.4790   -0.2994 H   0  0  0  0  0  0  0  0  0  0  0  0
   -0.1956   -0.2250    0.2596 C   0  0  1  0  0  0  0  0  0  0  0  0
   -0.3691    0.8409    0.1098 H   0  0  0  0  0  0  0  0  0  0  0  0
    0.4487   -0.4003    1.6496 C   0  0  0  0  0  0  0  0  0  0  0  0
    0.4793   -1.4678    1.8737 H   0  0  0  0  0  0  0  0  0  0  0  0
    1.4725   -0.0246    1.6219 H   0  0  0  0  0  0  0  0  0  0  0  0
   -0.3201    0.3124    2.7749 C   0  0  0  0  0  0  0  0  0  0  0  0
   -0.3624    1.3822    2.5568 H   0  0  0  0  0  0  0  0  0  0  0  0
   -1.3442   -0.0700    2.7863 H   0  0  0  0  0  0  0  0  0  0  0  0
    0.3089    0.1169    4.1624 C   0  0  0  0  0  0  0  0  0  0  0  0
    1.2668   -0.6810    4.2733 O   0  5  0  0  0  0  0  0  0  0  0  0
   -0.1705    0.7971    5.0966 O   0  0  0  0  0  0  0  0  0  0  0  0
    0.7092   -0.7119   -0.8914 C   0  0  0  0  0  0  0  0  0  0  0  0
    1.8913   -0.9942   -0.6847 O   0  0  0  0  0  0  0  0  0  0  0  0
    0.1517   -0.8354   -2.1030 N   0  0  0  0  0  0  0  0  0  0  0  0
   -0.8059   -0.5344   -2.2077 H   0  0  0  0  0  0  0  0  0  0  0  0
    0.8735   -1.2650   -3.2979 C   0  0  0  0  0  0  0  0  0  0  0  0
    1.4066   -2.1947   -3.0918 H   0  0  0  0  0  0  0  0  0  0  0  0
    0.1762   -1.4196   -4.1225 H   0  0  0  0  0  0  0  0  0  0  0  0
    1.6000   -0.4994   -3.5771 H   0  0  0  0  0  0  0  0  0  0  0  0
  5  6  2  0  0  0  0
  5  7  1  0  0  0  0
  2  3  1  0  0  0  0
  2  4  1  0  0  0  0
  2  5  1  0  0  0  0
  1  2  1  0  0  0  0
 20 21  2  0  0  0  0
 20 22  1  0  0  0  0
 17 18  1  0  0  0  0
 17 19  2  0  0  0  0
 14 15  1  0  0  0  0
 14 16  1  0  0  0  0
 14 17  1  0  0  0  0
 11 12  1  0  0  0  0
 11 13  1  0  0  0  0
 11 14  1  0  0  0  0
  9 10  1  0  0  0  0
  9 11  1  0  0  0  0
  9 20  1  0  0  0  0
  7  8  1  0  0  0  0
  7  9  1  0  0  0  0
 24 25  1  0  0  0  0
 24 26  1  0  0  0  0
 24 27  1  0  0  0  0
 22 23  1  0  0  0  0
 22 24  1  0  0  0  0
M  CHG  1  18  -1
M  END
$$$$
default_name
  -OEChem-01062215323D

 27 26  0     1  0  0  0  0  0999 V2000
   -3.2406   -3.5400    1.2326 H   0  0  0  0  0  0  0  0  0  0  0  0
   -3.1436   -2.6190    0.6606 C   0  0  0  0  0  0  0  0  0  0  0  0
   -3.8786   -1.8920    0.9996 H   0  0  0  0  0  0  0  0  0  0  0  0
   -3.2846   -2.8280   -0.3984 H   0  0  0  0  0  0  0  0  0  0  0  0
   -1.7586   -2.0580    0.8686 C   0  0  0  0  0  0  0  0  0  0  0  0
   -0.9666   -2.6340    1.6026 O   0  0  0  0  0  0  0  0  0  0  0  0
   -1.4866   -0.9220    0.2366 N   0  0  0  0  0  0  0  0  0  0  0  0
   -2.2166   -0.4790   -0.2994 H   0  0  0  0  0  0  0  0  0  0  0  0
   -0.1956   -0.2250    0.2596 C   0  0  1  0  0  0  0  0  0  0  0  0
   -0.3691    0.8409    0.1098 H   0  0  0  0  0  0  0  0  0  0  0  0
    0.4487   -0.4003    1.6496 C   0  0  0  0  0  0  0  0  0  0  0  0
    0.4793   -1.4678    1.8737 H   0  0  0  0  0  0  0  0  0  0  0  0
    1.4725   -0.0246    1.6219 H   0  0  0  0  0  0  0  0  0  0  0  0
   -0.3201    0.3124    2.7749 C   0  0  0  0  0  0  0  0  0  0  0  0
   -0.3624    1.3822    2.5568 H   0  0  0  0  0  0  0  0  0  0  0  0
   -1.3442   -0.0700    2.7863 H   0  0  0  0  0  0  0  0  0  0  0  0
    0.3089    0.1169    4.1624 C   0  0  0  0  0  0  0  0  0  0  0  0
    1.2668   -0.6810    4.2733 O   0  5  0  0  0  0  0  0  0  0  0  0
   -0.1705    0.7971    5.0966 O   0  0  0  0  0  0  0  0  0  0  0  0
    0.7092   -0.7119   -0.8914 C   0  0  0  0  0  0  0  0  0  0  0  0
    1.7922   -1.2510   -0.6540 O   0  0  0  0  0  0  0  0  0  0  0  0
    0.2581   -0.5463   -2.1416 N   0  0  0  0  0  0  0  0  0  0  0  0
   -0.6117   -0.0485   -2.2606 H   0  0  0  0  0  0  0  0  0  0  0  0
    0.9989   -0.9349   -3.3389 C   0  0  0  0  0  0  0  0  0  0  0  0
    1.3265   -1.9719   -3.2489 H   0  0  0  0  0  0  0  0  0  0  0  0
    0.3679   -0.8272   -4.2223 H   0  0  0  0  0  0  0  0  0  0  0  0
    1.8791   -0.2975   -3.4431 H   0  0  0  0  0  0  0  0  0  0  0  0
  5  6  2  0  0  0  0
  5  7  1  0  0  0  0
  2  3  1  0  0  0  0
  2  4  1  0  0  0  0
  2  5  1  0  0  0  0
  1  2  1  0  0  0  0
 20 21  2  0  0  0  0
 20 22  1  0  0  0  0
 17 18  1  0  0  0  0
 17 19  2  0  0  0  0
 14 15  1  0  0  0  0
 14 16  1  0  0  0  0
 14 17  1  0  0  0  0
 11 12  1  0  0  0  0
 11 13  1  0  0  0  0
 11 14  1  0  0  0  0
  9 10  1  0  0  0  0
  9 11  1  0  0  0  0
  9 20  1  0  0  0  0
  7  8  1  0  0  0  0
  7  9  1  0  0  0  0
 24 25  1  0  0  0  0
 24 26  1  0  0  0  0
 24 27  1  0  0  0  0
 22 23  1  0  0  0  0
 22 24  1  0  0  0  0
M  CHG  1  18  -1
M  END
$$$$
default_name
  -OEChem-01062215323D

 27 26  0     1  0  0  0  0  0999 V2000
   -3.2406   -3.5400    1.2326 H   0  0  0  0  0  0  0  0  0  0  0  0
   -3.1436   -2.6190    0.6606 C   0  0  0  0  0  0  0  0  0  0  0  0
   -3.8786   -1.8920    0.9996 H   0  0  0  0  0  0  0  0  0  0  0  0
   -3.2846   -2.8280   -0.3984 H   0  0  0  0  0  0  0  0  0  0  0  0
   -1.7586   -2.0580    0.8686 C   0  0  0  0  0  0  0  0  0  0  0  0
   -0.9666   -2.6340    1.6026 O   0  0  0  0  0  0  0  0  0  0  0  0
   -1.4866   -0.9220    0.2366 N   0  0  0  0  0  0  0  0  0  0  0  0
   -2.2166   -0.4790   -0.2994 H   0  0  0  0  0  0  0  0  0  0  0  0
   -0.1956   -0.2250    0.2596 C   0  0  1  0  0  0  0  0  0  0  0  0
   -0.3691    0.8409    0.1098 H   0  0  0  0  0  0  0  0  0  0  0  0
    0.4487   -0.4003    1.6496 C   0  0  0  0  0  0  0  0  0  0  0  0
    0.4793   -1.4678    1.8737 H   0  0  0  0  0  0  0  0  0  0  0  0
    1.4725   -0.0246    1.6219 H   0  0  0  0  0  0  0  0  0  0  0  0
   -0.3201    0.3124    2.7749 C   0  0  0  0  0  0  0  0  0  0  0  0
   -0.3624    1.3822    2.5568 H   0  0  0  0  0  0  0  0  0  0  0  0
   -1.3442   -0.0700    2.7863 H   0  0  0  0  0  0  0  0  0  0  0  0
    0.3089    0.1169    4.1624 C   0  0  0  0  0  0  0  0  0  0  0  0
    1.2668   -0.6810    4.2733 O   0  5  0  0  0  0  0  0  0  0  0  0
   -0.1705    0.7971    5.0966 O   0  0  0  0  0  0  0  0  0  0  0  0
    0.7092   -0.7119   -0.8914 C   0  0  0  0  0  0  0  0  0  0  0  0
    1.6443   -1.4845   -0.6714 O   0  0  0  0  0  0  0  0  0  0  0  0
    0.4198   -0.2817   -2.1264 N   0  0  0  0  0  0  0  0  0  0  0  0
   -0.3260    0.3914   -2.2221 H   0  0  0  0  0  0  0  0  0  0  0  0
    1.1872   -0.6339   -3.3182 C   0  0  0  0  0  0  0  0  0  0  0  0
    1.3051   -1.7175   -3.3734 H   0  0  0  0  0  0  0  0  0  0  0  0
    0.6757   -0.2767   -4.2132 H   0  0  0  0  0  0  0  0  0  0  0  0
    2.1768   -0.1766   -3.2602 H   0  0  0  0  0  0  0  0  0  0  0  0
  5  6  2  0  0  0  0
  5  7  1  0  0  0  0
  2  3  1  0  0  0  0
  2  4  1  0  0  0  0
  2  5  1  0  0  0  0
  1  2  1  0  0  0  0
 20 21  2  0  0  0  0
 20 22  1  0  0  0  0
 17 18  1  0  0  0  0
 17 19  2  0  0  0  0
 14 15  1  0  0  0  0
 14 16  1  0  0  0  0
 14 17  1  0  0  0  0
 11 12  1  0  0  0  0
 11 13  1  0  0  0  0
 11 14  1  0  0  0  0
  9 10  1  0  0  0  0
  9 11  1  0  0  0  0
  9 20  1  0  0  0  0
  7  8  1  0  0  0  0
  7  9  1  0  0  0  0
 24 25  1  0  0  0  0
 24 26  1  0  0  0  0
 24 27  1  0  0  0  0
 22 23  1  0  0  0  0
 22 24  1  0  0  0  0
M  CHG  1  18  -1
M  END
$$$$
default_name
  -OEChem-01062215323D

 27 26  0     1  0  0  0  0  0999 V2000
   -3.2406   -3.5400    1.2326 H   0  0  0  0  0  0  0  0  0  0  0  0
   -3.1436   -2.6190    0.6606 C   0  0  0  0  0  0  0  0  0  0  0  0
   -3.8786   -1.8920    0.9996 H   0  0  0  0  0  0  0  0  0  0  0  0
   -3.2846   -2.8280   -0.3984 H   0  0  0  0  0  0  0  0  0  0  0  0
   -1.7586   -2.0580    0.8686 C   0  0  0  0  0  0  0  0  0  0  0  0
   -0.9666   -2.6340    1.6026 O   0  0  0  0  0  0  0  0  0  0  0  0
   -1.4866   -0.9220    0.2366 N   0  0  0  0  0  0  0  0  0  0  0  0
   -2.2166   -0.4790   -0.2994 H   0  0  0  0  0  0  0  0  0  0  0  0
   -0.1956   -0.2250    0.2596 C   0  0  1  0  0  0  0  0  0  0  0  0
   -0.3691    0.8409    0.1098 H   0  0  0  0  0  0  0  0  0  0  0  0
    0.4487   -0.4003    1.6496 C   0  0  0  0  0  0  0  0  0  0  0  0
    0.4793   -1.4678    1.8737 H   0  0  0  0  0  0  0  0  0  0  0  0
    1.4725   -0.0246    1.6219 H   0  0  0  0  0  0  0  0  0  0  0  0
   -0.3201    0.3124    2.7749 C   0  0  0  0  0  0  0  0  0  0  0  0
   -0.3624    1.3822    2.5568 H   0  0  0  0  0  0  0  0  0  0  0  0
   -1.3442   -0.0700    2.7863 H   0  0  0  0  0  0  0  0  0  0  0  0
    0.3089    0.1169    4.1624 C   0  0  0  0  0  0  0  0  0  0  0  0
    1.2668   -0.6810    4.2733 O   0  5  0  0  0  0  0  0  0  0  0  0
   -0.1705    0.7971    5.0966 O   0  0  0  0  0  0  0  0  0  0  0  0
    0.7092   -0.7119   -0.8914 C   0  0  0  0  0  0  0  0  0  0  0  0
    1.4579   -1.6789   -0.7358 O   0  0  0  0  0  0  0  0  0  0  0  0
    0.6259   -0.0597   -2.0583 N   0  0  0  0  0  0  0  0  0  0  0  0
    0.0317    0.7552   -2.0948 H   0  0  0  0  0  0  0  0  0  0  0  0
    1.4254   -0.3828   -3.2372 C   0  0  0  0  0  0  0  0  0  0  0  0
    1.3436   -1.4486   -3.4568 H   0  0  0  0  0  0  0  0  0  0  0  0
    1.0786    0.1941   -4.0957 H   0  0  0  0  0  0  0  0  0  0  0  0
    2.4728   -0.1451   -3.0409 H   0  0  0  0  0  0  0  0  0  0  0  0
  5  6  2  0  0  0  0
  5  7  1  0  0  0  0
  2  3  1  0  0  0  0
  2  4  1  0  0  0  0
  2  5  1  0  0  0  0
  1  2  1  0  0  0  0
 20 21  2  0  0  0  0
 20 22  1  0  0  0  0
 17 18  1  0  0  0  0
 17 19  2  0  0  0  0
 14 15  1  0  0  0  0
 14 16  1  0  0  0  0
 14 17  1  0  0  0  0
 11 12  1  0  0  0  0
 11 13  1  0  0  0  0
 11 14  1  0  0  0  0
  9 10  1  0  0  0  0
  9 11  1  0  0  0  0
  9 20  1  0  0  0  0
  7  8  1  0  0  0  0
  7  9  1  0  0  0  0
 24 25  1  0  0  0  0
 24 26  1  0  0  0  0
 24 27  1  0  0  0  0
 22 23  1  0  0  0  0
 22 24  1  0  0  0  0
M  CHG  1  18  -1
M  END
$$$$
default_name
  -OEChem-01062215323D

 27 26  0     1  0  0  0  0  0999 V2000
   -3.2406   -3.5400    1.2326 H   0  0  0  0  0  0  0  0  0  0  0  0
   -3.1436   -2.6190    0.6606 C   0  0  0  0  0  0  0  0  0  0  0  0
   -3.8786   -1.8920    0.9996 H   0  0  0  0  0  0  0  0  0  0  0  0
   -3.2846   -2.8280   -0.3984 H   0  0  0  0  0  0  0  0  0  0  0  0
   -1.7586   -2.0580    0.8686 C   0  0  0  0  0  0  0  0  0  0  0  0
   -0.9666   -2.6340    1.6026 O   0  0  0  0  0  0  0  0  0  0  0  0
   -1.4866   -0.9220    0.2366 N   0  0  0  0  0  0  0  0  0  0  0  0
   -2.2166   -0.4790   -0.2994 H   0  0  0  0  0  0  0  0  0  0  0  0
   -0.1956   -0.2250    0.2596 C   0  0  1  0  0  0  0  0  0  0  0  0
   -0.3691    0.8409    0.1098 H   0  0  0  0  0  0  0  0  0  0  0  0
    0.4487   -0.4003    1.6496 C   0  0  0  0  0  0  0  0  0  0  0  0
    0.4793   -1.4678    1.8737 H   0  0  0  0  0  0  0  0  0  0  0  0
    1.4725   -0.0246    1.6219 H   0  0  0  0  0  0  0  0  0  0  0  0
   -0.3201    0.3124    2.7749 C   0  0  0  0  0  0  0  0  0  0  0  0
   -0.3624    1.3822    2.5568 H   0  0  0  0  0  0  0  0  0  0  0  0
   -1.3442   -0.0700    2.7863 H   0  0  0  0  0  0  0  0  0  0  0  0
    0.3089    0.1169    4.1624 C   0  0  0  0  0  0  0  0  0  0  0  0
    1.2668   -0.6810    4.2733 O   0  5  0  0  0  0  0  0  0  0  0  0
   -0.1705    0.7971    5.0966 O   0  0  0  0  0  0  0  0  0  0  0  0
    0.7092   -0.7119   -0.8914 C   0  0  0  0  0  0  0  0  0  0  0  0
    1.2455   -1.8208   -0.8427 O   0  0  0  0  0  0  0  0  0  0  0  0
    0.8623    0.1047   -1.9420 N   0  0  0  0  0  0  0  0  0  0  0  0
    0.4371    1.0183   -1.8874 H   0  0  0  0  0  0  0  0  0  0  0  0
    1.6975   -0.1984   -3.1013 C   0  0  0  0  0  0  0  0  0  0  0  0
    1.4396   -1.1837   -3.4934 H   0  0  0  0  0  0  0  0  0  0  0  0
    1.5490    0.5533   -3.8778 H   0  0  0  0  0  0  0  0  0  0  0  0
    2.7468   -0.2052   -2.8001 H   0  0  0  0  0  0  0  0  0  0  0  0
  5  6  2  0  0  0  0
  5  7  1  0  0  0  0
  2  3  1  0  0  0  0
  2  4  1  0  0  0  0
  2  5  1  0  0  0  0
  1  2  1  0  0  0  0
 20 21  2  0  0  0  0
 20 22  1  0  0  0  0
 17 18  1  0  0  0  0
 17 19  2  0  0  0  0
 14 15  1  0  0  0  0
 14 16  1  0  0  0  0
 14 17  1  0  0  0  0
 11 12  1  0  0  0  0
 11 13  1  0  0  0  0
 11 14  1  0  0  0  0
  9 10  1  0  0  0  0
  9 11  1  0  0  0  0
  9 20  1  0  0  0  0
  7  8  1  0  0  0  0
  7  9  1  0  0  0  0
 24 25  1  0  0  0  0
 24 26  1  0  0  0  0
 24 27  1  0  0  0  0
 22 23  1  0  0  0  0
 22 24  1  0  0  0  0
M  CHG  1  18  -1
M  END
$$$$
default_name
  -OEChem-01062215323D

 27 26  0     1  0  0  0  0  0999 V2000
   -3.2406   -3.5400    1.2326 H   0  0  0  0  0  0  0  0  0  0  0  0
   -3.1436   -2.6190    0.6606 C   0  0  0  0  0  0  0  0  0  0  0  0
   -3.8786   -1.8920    0.9996 H   0  0  0  0  0  0  0  0  0  0  0  0
   -3.2846   -2.8280   -0.3984 H   0  0  0  0  0  0  0  0  0  0  0  0
   -1.7586   -2.0580    0.8686 C   0  0  0  0  0  0  0  0  0  0  0  0
   -0.9666   -2.6340    1.6026 O   0  0  0  0  0  0  0  0  0  0  0  0
   -1.4866   -0.9220    0.2366 N   0  0  0  0  0  0  0  0  0  0  0  0
   -2.2166   -0.4790   -0.2994 H   0  0  0  0  0  0  0  0  0  0  0  0
   -0.1956   -0.2250    0.2596 C   0  0  1  0  0  0  0  0  0  0  0  0
   -0.3691    0.8409    0.1098 H   0  0  0  0  0  0  0  0  0  0  0  0
    0.4487   -0.4003    1.6496 C   0  0  0  0  0  0  0  0  0  0  0  0
    0.4793   -1.4678    1.8737 H   0  0  0  0  0  0  0  0  0  0  0  0
    1.4725   -0.0246    1.6219 H   0  0  0  0  0  0  0  0  0  0  0  0
   -0.3201    0.3124    2.7749 C   0  0  0  0  0  0  0  0  0  0  0  0
   -0.3624    1.3822    2.5568 H   0  0  0  0  0  0  0  0  0  0  0  0
   -1.3442   -0.0700    2.7863 H   0  0  0  0  0  0  0  0  0  0  0  0
    0.3089    0.1169    4.1624 C   0  0  0  0  0  0  0  0  0  0  0  0
    1.2668   -0.6810    4.2733 O   0  5  0  0  0  0  0  0  0  0  0  0
   -0.1705    0.7971    5.0966 O   0  0  0  0  0  0  0  0  0  0  0  0
    0.7092   -0.7119   -0.8914 C   0  0  0  0  0  0  0  0  0  0  0  0
    1.0217   -1.9007   -0.9848 O   0  0  0  0  0  0  0  0  0  0  0  0
    1.1129    0.2001   -1.7854 N   0  0  0  0  0  0  0  0  0  0  0  0
    0.8625    1.1626   -1.6140 H   0  0  0  0  0  0  0  0  0  0  0  0
    1.9847   -0.0936   -2.9199 C   0  0  0  0  0  0  0  0  0  0  0  0
    1.5865   -0.9408   -3.4807 H   0  0  0  0  0  0  0  0  0  0  0  0
    2.0550    0.7763   -3.5745 H   0  0  0  0  0  0  0  0  0  0  0  0
    2.9802   -0.3526   -2.5542 H   0  0  0  0  0  0  0  0  0  0  0  0
  5  6  2  0  0  0  0
  5  7  1  0  0  0  0
  2  3  1  0  0  0  0
  2  4  1  0  0  0  0
  2  5  1  0  0  0  0
  1  2  1  0  0  0  0
 20 21  2  0  0  0  0
 20 22  1  0  0  0  0
 17 18  1  0  0  0  0
 17 19  2  0  0  0  0
 14 15  1  0  0  0  0
 14 16  1  0  0  0  0
 14 17  1  0  0  0  0
 11 12  1  0  0  0  0
 11 13  1  0  0  0  0
 11 14  1  0  0  0  0
  9 10  1  0  0  0  0
  9 11  1  0  0  0  0
  9 20  1  0  0  0  0
  7  8  1  0  0  0  0
  7  9  1  0  0  0  0
 24 25  1  0  0  0  0
 24 26  1  0  0  0  0
 24 27  1  0  0  0  0
 22 23  1  0  0  0  0
 22 24  1  0  0  0  0
M  CHG  1  18  -1
M  END
$$$$
default_name
  -OEChem-01062215323D

 27 26  0     1  0  0  0  0  0999 V2000
   -3.2406   -3.5400    1.2326 H   0  0  0  0  0  0  0  0  0  0  0  0
   -3.1436   -2.6190    0.6606 C   0  0  0  0  0  0  0  0  0  0  0  0
   -3.8786   -1.8920    0.9996 H   0  0  0  0  0  0  0  0  0  0  0  0
   -3.2846   -2.8280   -0.3984 H   0  0  0  0  0  0  0  0  0  0  0  0
   -1.7586   -2.0580    0.8686 C   0  0  0  0  0  0  0  0  0  0  0  0
   -0.9666   -2.6340    1.6026 O   0  0  0  0  0  0  0  0  0  0  0  0
   -1.4866   -0.9220    0.2366 N   0  0  0  0  0  0  0  0  0  0  0  0
   -2.2166   -0.4790   -0.2994 H   0  0  0  0  0  0  0  0  0  0  0  0
   -0.1956   -0.2250    0.2596 C   0  0  1  0  0  0  0  0  0  0  0  0
   -0.3691    0.8409    0.1098 H   0  0  0  0  0  0  0  0  0  0  0  0
    0.4487   -0.4003    1.6496 C   0  0  0  0  0  0  0  0  0  0  0  0
    0.4793   -1.4678    1.8737 H   0  0  0  0  0  0  0  0  0  0  0  0
    1.4725   -0.0246    1.6219 H   0  0  0  0  0  0  0  0  0  0  0  0
   -0.3201    0.3124    2.7749 C   0  0  0  0  0  0  0  0  0  0  0  0
   -0.3624    1.3822    2.5568 H   0  0  0  0  0  0  0  0  0  0  0  0
   -1.3442   -0.0700    2.7863 H   0  0  0  0  0  0  0  0  0  0  0  0
    0.3089    0.1169    4.1624 C   0  0  0  0  0  0  0  0  0  0  0  0
    1.2668   -0.6810    4.2733 O   0  5  0  0  0  0  0  0  0  0  0  0
   -0.1705    0.7971    5.0966 O   0  0  0  0  0  0  0  0  0  0  0  0
    0.7092   -0.7119   -0.8914 C   0  0  0  0  0  0  0  0  0  0  0  0
    0.8017   -1.9131   -1.1525 O   0  0  0  0  0  0  0  0  0  0  0  0
    1.3605    0.2202   -1.5992 N   0  0  0  0  0  0  0  0  0  0  0  0
    1.2790    1.1784   -1.2933 H   0  0  0  0  0  0  0  0  0  0  0  0
    2.2676   -0.0752   -2.7053 C   0  0  0  0  0  0  0  0  0  0  0  0
    1.7742   -0.7365   -3.4196 H   0  0  0  0  0  0  0  0  0  0  0  0
    2.5620    0.8480   -3.2063 H   0  0  0  0  0  0  0  0  0  0  0  0
    3.1571   -0.5774   -2.3200 H   0  0  0  0  0  0  0  0  0  0  0  0
  5  6  2  0  0  0  0
  5  7  1  0  0  0  0
  2  3  1  0  0  0  0
  2  4  1  0  0  0  0
  2  5  1  0  0  0  0
  1  2  1  0  0  0  0
 20 21  2  0  0  0  0
 20 22  1  0  0  0  0
 17 18  1  0  0  0  0
 17 19  2  0  0  0  0
 14 15  1  0  0  0  0
 14 16  1  0  0  0  0
 14 17  1  0  0  0  0
 11 12  1  0  0  0  0
 11 13  1  0  0  0  0
 11 14  1  0  0  0  0
  9 10  1  0  0  0  0
  9 11  1  0  0  0  0
  9 20  1  0  0  0  0
  7  8  1  0  0  0  0
  7  9  1  0  0  0  0
 24 25  1  0  0  0  0
 24 26  1  0  0  0  0
 24 27  1  0  0  0  0
 22 23  1  0  0  0  0
 22 24  1  0  0  0  0
M  CHG  1  18  -1
M  END
$$$$
default_name
  -OEChem-01062215323D

 27 26  0     1  0  0  0  0  0999 V2000
   -3.2406   -3.5400    1.2326 H   0  0  0  0  0  0  0  0  0  0  0  0
   -3.1436   -2.6190    0.6606 C   0  0  0  0  0  0  0  0  0  0  0  0
   -3.8786   -1.8920    0.9996 H   0  0  0  0  0  0  0  0  0  0  0  0
   -3.2846   -2.8280   -0.3984 H   0  0  0  0  0  0  0  0  0  0  0  0
   -1.7586   -2.0580    0.8686 C   0  0  0  0  0  0  0  0  0  0  0  0
   -0.9666   -2.6340    1.6026 O   0  0  0  0  0  0  0  0  0  0  0  0
   -1.4866   -0.9220    0.2366 N   0  0  0  0  0  0  0  0  0  0  0  0
   -2.2166   -0.4790   -0.2994 H   0  0  0  0  0  0  0  0  0  0  0  0
   -0.1956   -0.2250    0.2596 C   0  0  1  0  0  0  0  0  0  0  0  0
   -0.3691    0.8409    0.1098 H   0  0  0  0  0  0  0  0  0  0  0  0
    0.4487   -0.4003    1.6496 C   0  0  0  0  0  0  0  0  0  0  0  0
    0.4793   -1.4678    1.8737 H   0  0  0  0  0  0  0  0  0  0  0  0
    1.4725   -0.0246    1.6219 H   0  0  0  0  0  0  0  0  0  0  0  0
   -0.3201    0.3124    2.7749 C   0  0  0  0  0  0  0  0  0  0  0  0
   -0.3624    1.3822    2.5568 H   0  0  0  0  0  0  0  0  0  0  0  0
   -1.3442   -0.0700    2.7863 H   0  0  0  0  0  0  0  0  0  0  0  0
    0.3089    0.1169    4.1624 C   0  0  0  0  0  0  0  0  0  0  0  0
    1.2668   -0.6810    4.2733 O   0  5  0  0  0  0  0  0  0  0  0  0
   -0.1705    0.7971    5.0966 O   0  0  0  0  0  0  0  0  0  0  0  0
    0.7092   -0.7119   -0.8914 C   0  0  0  0  0  0  0  0  0  0  0  0
    0.6005   -1.8572   -1.3343 O   0  0  0  0  0  0  0  0  0  0  0  0
    1.5884    0.1635   -1.3961 N   0  0  0  0  0  0  0  0  0  0  0  0
    1.6582    1.0646   -0.9472 H   0  0  0  0  0  0  0  0  0  0  0  0
    2.5269   -0.1447   -2.4721 C   0  0  0  0  0  0  0  0  0  0  0  0
    1.9899   -0.5846   -3.3142 H   0  0  0  0  0  0  0  0  0  0  0  0
    3.0355    0.7635   -2.7983 H   0  0  0  0  0  0  0  0  0  0  0  0
    3.2655   -0.8642   -2.1135 H   0  0  0  0  0  0  0  0  0  0  0  0
  5  6  2  0  0  0  0
  5  7  1  0  0  0  0
  2  3  1  0  0  0  0
  2  4  1  0  0  0  0
  2  5  1  0  0  0  0
  1  2  1  0  0  0  0
 20 21  2  0  0  0  0
 20 22  1  0  0  0  0
 17 18  1  0  0  0  0
 17 19  2  0  0  0  0
 14 15  1  0  0  0  0
 14 16  1  0  0  0  0
 14 17  1  0  0  0  0
 11 12  1  0  0  0  0
 11 13  1  0  0  0  0
 11 14  1  0  0  0  0
  9 10  1  0  0  0  0
  9 11  1  0  0  0  0
  9 20  1  0  0  0  0
  7  8  1  0  0  0  0
  7  9  1  0  0  0  0
 24 25  1  0  0  0  0
 24 26  1  0  0  0  0
 24 27  1  0  0  0  0
 22 23  1  0  0  0  0
 22 24  1  0  0  0  0
M  CHG  1  18  -1
M  END
$$$$
default_name
  -OEChem-01062215323D

 27 26  0     1  0  0  0  0  0999 V2000
   -3.2406   -3.5400    1.2326 H   0  0  0  0  0  0  0  0  0  0  0  0
   -3.1436   -2.6190    0.6606 C   0  0  0  0  0  0  0  0  0  0  0  0
   -3.8786   -1.8920    0.9996 H   0  0  0  0  0  0  0  0  0  0  0  0
   -3.2846   -2.8280   -0.3984 H   0  0  0  0  0  0  0  0  0  0  0  0
   -1.7586   -2.0580    0.8686 C   0  0  0  0  0  0  0  0  0  0  0  0
   -0.9666   -2.6340    1.6026 O   0  0  0  0  0  0  0  0  0  0  0  0
   -1.4866   -0.9220    0.2366 N   0  0  0  0  0  0  0  0  0  0  0  0
   -2.2166   -0.4790   -0.2994 H   0  0  0  0  0  0  0  0  0  0  0  0
   -0.1956   -0.2250    0.2596 C   0  0  1  0  0  0  0  0  0  0  0  0
   -0.3691    0.8409    0.1098 H   0  0  0  0  0  0  0  0  0  0  0  0
    0.4487   -0.4003    1.6496 C   0  0  0  0  0  0  0  0  0  0  0  0
    0.4793   -1.4678    1.8737 H   0  0  0  0  0  0  0  0  0  0  0  0
    1.4725   -0.0246    1.6219 H   0  0  0  0  0  0  0  0  0  0  0  0
   -0.3201    0.3124    2.7749 C   0  0  0  0  0  0  0  0  0  0  0  0
   -0.3624    1.3822    2.5568 H   0  0  0  0  0  0  0  0  0  0  0  0
   -1.3442   -0.0700    2.7863 H   0  0  0  0  0  0  0  0  0  0  0  0
    0.3089    0.1169    4.1624 C   0  0  0  0  0  0  0  0  0  0  0  0
    1.2668   -0.6810    4.2733 O   0  5  0  0  0  0  0  0  0  0  0  0
   -0.1705    0.7971    5.0966 O   0  0  0  0  0  0  0  0  0  0  0  0
    0.7092   -0.7119   -0.8914 C   0  0  0  0  0  0  0  0  0  0  0  0
    0.4318   -1.7367   -1.5179 O   0  0  0  0  0  0  0  0  0  0  0  0
    1.7810    0.0339   -1.1899 N   0  0  0  0  0  0  0  0  0  0  0  0
    1.9742    0.8289   -0.5991 H   0  0  0  0  0  0  0  0  0  0  0  0
    2.7448   -0.2973   -2.2362 C   0  0  0  0  0  0  0  0  0  0  0  0
    2.2191   -0.4956   -3.1718 H   0  0  0  0  0  0  0  0  0  0  0  0
    3.4432    0.5286   -2.3784 H   0  0  0  0  0  0  0  0  0  0  0  0
    3.2980   -1.1936   -1.9487 H   0  0  0  0  0  0  0  0  0  0  0  0
  5  6  2  0  0  0  0
  5  7  1  0  0  0  0
  2  3  1  0  0  0  0
  2  4  1  0  0  0  0
  2  5  1  0  0  0  0
  1  2  1  0  0  0  0
 20 21  2  0  0  0  0
 20 22  1  0  0  0  0
 17 18  1  0  0  0  0
 17 19  2  0  0  0  0
 14 15  1  0  0  0  0
 14 16  1  0  0  0  0
 14 17  1  0  0  0  0
 11 12  1  0  0  0  0
 11 13  1  0  0  0  0
 11 14  1  0  0  0  0
  9 10  1  0  0  0  0
  9 11  1  0  0  0  0
  9 20  1  0  0  0  0
  7  8  1  0  0  0  0
  7  9  1  0  0  0  0
 24 25  1  0  0  0  0
 24 26  1  0  0  0  0
 24 27  1  0  0  0  0
 22 23  1  0  0  0  0
 22 24  1  0  0  0  0
M  CHG  1  18  -1
M  END
$$$$
default_name
  -OEChem-01062215323D

 27 26  0     1  0  0  0  0  0999 V2000
   -3.2406   -3.5400    1.2326 H   0  0  0  0  0  0  0  0  0  0  0  0
   -3.1436   -2.6190    0.6606 C   0  0  0  0  0  0  0  0  0  0  0  0
   -3.8786   -1.8920    0.9996 H   0  0  0  0  0  0  0  0  0  0  0  0
   -3.2846   -2.8280   -0.3984 H   0  0  0  0  0  0  0  0  0  0  0  0
   -1.7586   -2.0580    0.8686 C   0  0  0  0  0  0  0  0  0  0  0  0
   -0.9666   -2.6340    1.6026 O   0  0  0  0  0  0  0  0  0  0  0  0
   -1.4866   -0.9220    0.2366 N   0  0  0  0  0  0  0  0  0  0  0  0
   -2.2166   -0.4790   -0.2994 H   0  0  0  0  0  0  0  0  0  0  0  0
   -0.1956   -0.2250    0.2596 C   0  0  1  0  0  0  0  0  0  0  0  0
   -0.3754    0.8437    0.3792 H   0  0  0  0  0  0  0  0  0  0  0  0
    0.6135   -0.7001    1.4833 C   0  0  0  0  0  0  0  0  0  0  0  0
    0.6606   -1.7898    1.4528 H   0  0  0  0  0  0  0  0  0  0  0  0
    1.6299   -0.3092    1.4169 H   0  0  0  0  0  0  0  0  0  0  0  0
   -0.0032   -0.2762    2.8270 C   0  0  0  0  0  0  0  0  0  0  0  0
   -0.0612    0.8142    2.8654 H   0  0  0  0  0  0  0  0  0  0  0  0
   -1.0219   -0.6699    2.8762 H   0  0  0  0  0  0  0  0  0  0  0  0
    0.7902   -0.7707    4.0456 C   0  0  0  0  0  0  0  0  0  0  0  0
    1.7462   -1.5552    3.8535 O   0  5  0  0  0  0  0  0  0  0  0  0
    0.4366   -0.3296    5.1618 O   0  0  0  0  0  0  0  0  0  0  0  0
    0.5552   -0.4207   -1.0740 C   0  0  0  0  0  0  0  0  0  0  0  0
    0.0489   -1.0718   -1.9902 O   0  0  0  0  0  0  0  0  0  0  0  0
    1.7547    0.1626   -1.1968 N   0  0  0  0  0  0  0  0  0  0  0  0
    2.1285    0.6337   -0.3863 H   0  0  0  0  0  0  0  0  0  0  0  0
    2.5992    0.0591   -2.3841 C   0  0  0  0  0  0  0  0  0  0  0  0
    2.0206    0.3213   -3.2714 H   0  0  0  0  0  0  0  0  0  0  0  0
    3.4551    0.7297   -2.2956 H   0  0  0  0  0  0  0  0  0  0  0  0
    2.9535   -0.9682   -2.4882 H   0  0  0  0  0  0  0  0  0  0  0  0
  5  6  2  0  0  0  0
  5  7  1  0  0  0  0
  2  3  1  0  0  0  0
  2  4  1  0  0  0  0
  2  5  1  0  0  0  0
  1  2  1  0  0  0  0
 20 21  2  0  0  0  0
 20 22  1  0  0  0  0
 17 18  1  0  0  0  0
 17 19  2  0  0  0  0
 14 15  1  0  0  0  0
 14 16  1  0  0  0  0
 14 17  1  0  0  0  0
 11 12  1  0  0  0  0
 11 13  1  0  0  0  0
 11 14  1  0  0  0  0
  9 10  1  0  0  0  0
  9 11  1  0  0  0  0
  9 20  1  0  0  0  0
  7  8  1  0  0  0  0
  7  9  1  0  0  0  0
 24 25  1  0  0  0  0
 24 26  1  0  0  0  0
 24 27  1  0  0  0  0
 22 23  1  0  0  0  0
 22 24  1  0  0  0  0
M  CHG  1  18  -1
M  END
$$$$
default_name
  -OEChem-01062215323D

 27 26  0     1  0  0  0  0  0999 V2000
   -3.2406   -3.5400    1.2326 H   0  0  0  0  0  0  0  0  0  0  0  0
   -3.1436   -2.6190    0.6606 C   0  0  0  0  0  0  0  0  0  0  0  0
   -3.8786   -1.8920    0.9996 H   0  0  0  0  0  0  0  0  0  0  0  0
   -3.2846   -2.8280   -0.3984 H   0  0  0  0  0  0  0  0  0  0  0  0
   -1.7586   -2.0580    0.8686 C   0  0  0  0  0  0  0  0  0  0  0  0
   -0.9666   -2.6340    1.6026 O   0  0  0  0  0  0  0  0  0  0  0  0
   -1.4866   -0.9220    0.2366 N   0  0  0  0  0  0  0  0  0  0  0  0
   -2.2166   -0.4790   -0.2994 H   0  0  0  0  0  0  0  0  0  0  0  0
   -0.1956   -0.2250    0.2596 C   0  0  1  0  0  0  0  0  0  0  0  0
   -0.3754    0.8437    0.3792 H   0  0  0  0  0  0  0  0  0  0  0  0
    0.6135   -0.7001    1.4833 C   0  0  0  0  0  0  0  0  0  0  0  0
    0.6606   -1.7898    1.4528 H   0  0  0  0  0  0  0  0  0  0  0  0
    1.6299   -0.3092    1.4169 H   0  0  0  0  0  0  0  0  0  0  0  0
   -0.0032   -0.2762    2.8270 C   0  0  0  0  0  0  0  0  0  0  0  0
   -0.0612    0.8142    2.8654 H   0  0  0  0  0  0  0  0  0  0  0  0
   -1.0219   -0.6699    2.8762 H   0  0  0  0  0  0  0  0  0  0  0  0
    0.7902   -0.7707    4.0456 C   0  0  0  0  0  0  0  0  0  0  0  0
    1.7462   -1.5552    3.8535 O   0  5  0  0  0  0  0  0  0  0  0  0
    0.4366   -0.3296    5.1618 O   0  0  0  0  0  0  0  0  0  0  0  0
    0.5552   -0.4207   -1.0740 C   0  0  0  0  0  0  0  0  0  0  0  0
   -0.0390   -0.8237   -2.0761 O   0  0  0  0  0  0  0  0  0  0  0  0
    1.8586   -0.1128   -1.0979 N   0  0  0  0  0  0  0  0  0  0  0  0
    2.2888    0.1590   -0.2264 H   0  0  0  0  0  0  0  0  0  0  0  0
    2.7141   -0.2584   -2.2728 C   0  0  0  0  0  0  0  0  0  0  0  0
    2.2505    0.2341   -3.1292 H   0  0  0  0  0  0  0  0  0  0  0  0
    3.6922    0.1856   -2.0823 H   0  0  0  0  0  0  0  0  0  0  0  0
    2.8365   -1.3186   -2.5027 H   0  0  0  0  0  0  0  0  0  0  0  0
  5  6  2  0  0  0  0
  5  7  1  0  0  0  0
  2  3  1  0  0  0  0
  2  4  1  0  0  0  0
  2  5  1  0  0  0  0
  1  2  1  0  0  0  0
 20 21  2  0  0  0  0
 20 22  1  0  0  0  0
 17 18  1  0  0  0  0
 17 19  2  0  0  0  0
 14 15  1  0  0  0  0
 14 16  1  0  0  0  0
 14 17  1  0  0  0  0
 11 12  1  0  0  0  0
 11 13  1  0  0  0  0
 11 14  1  0  0  0  0
  9 10  1  0  0  0  0
  9 11  1  0  0  0  0
  9 20  1  0  0  0  0
  7  8  1  0  0  0  0
  7  9  1  0  0  0  0
 24 25  1  0  0  0  0
 24 26  1  0  0  0  0
 24 27  1  0  0  0  0
 22 23  1  0  0  0  0
 22 24  1  0  0  0  0
M  CHG  1  18  -1
M  END
$$$$
default_name
  -OEChem-01062215323D

 27 26  0     1  0  0  0  0  0999 V2000
   -3.2406   -3.5400    1.2326 H   0  0  0  0  0  0  0  0  0  0  0  0
   -3.1436   -2.6190    0.6606 C   0  0  0  0  0  0  0  0  0  0  0  0
   -3.8786   -1.8920    0.9996 H   0  0  0  0  0  0  0  0  0  0  0  0
   -3.2846   -2.8280   -0.3984 H   0  0  0  0  0  0  0  0  0  0  0  0
   -1.7586   -2.0580    0.8686 C   0  0  0  0  0  0  0  0  0  0  0  0
   -0.9666   -2.6340    1.6026 O   0  0  0  0  0  0  0  0  0  0  0  0
   -1.4866   -0.9220    0.2366 N   0  0  0  0  0  0  0  0  0  0  0  0
   -2.2166   -0.4790   -0.2994 H   0  0  0  0  0  0  0  0  0  0  0  0
   -0.1956   -0.2250    0.2596 C   0  0  1  0  0  0  0  0  0  0  0  0
   -0.3754    0.8437    0.3792 H   0  0  0  0  0  0  0  0  0  0  0  0
    0.6135   -0.7001    1.4833 C   0  0  0  0  0  0  0  0  0  0  0  0
    0.6606   -1.7898    1.4528 H   0  0  0  0  0  0  0  0  0  0  0  0
    1.6299   -0.3092    1.4169 H   0  0  0  0  0  0  0  0  0  0  0  0
   -0.0032   -0.2762    2.8270 C   0  0  0  0  0  0  0  0  0  0  0  0
   -0.0612    0.8142    2.8654 H   0  0  0  0  0  0  0  0  0  0  0  0
   -1.0219   -0.6699    2.8762 H   0  0  0  0  0  0  0  0  0  0  0  0
    0.7902   -0.7707    4.0456 C   0  0  0  0  0  0  0  0  0  0  0  0
    1.7462   -1.5552    3.8535 O   0  5  0  0  0  0  0  0  0  0  0  0
    0.4366   -0.3296    5.1618 O   0  0  0  0  0  0  0  0  0  0  0  0
    0.5552   -0.4207   -1.0740 C   0  0  0  0  0  0  0  0  0  0  0  0
   -0.0656   -0.5535   -2.1307 O   0  0  0  0  0  0  0  0  0  0  0  0
    1.8940   -0.4145   -1.0337 N   0  0  0  0  0  0  0  0  0  0  0  0
    2.3322   -0.3555   -0.1265 H   0  0  0  0  0  0  0  0  0  0  0  0
    2.7505   -0.6048   -2.2015 C   0  0  0  0  0  0  0  0  0  0  0  0
    2.4484    0.0805   -2.9952 H   0  0  0  0  0  0  0  0  0  0  0  0
    3.7925   -0.4199   -1.9370 H   0  0  0  0  0  0  0  0  0  0  0  0
    2.6456   -1.6291   -2.5646 H   0  0  0  0  0  0  0  0  0  0  0  0
  5  6  2  0  0  0  0
  5  7  1  0  0  0  0
  2  3  1  0  0  0  0
  2  4  1  0  0  0  0
  2  5  1  0  0  0  0
  1  2  1  0  0  0  0
 20 21  2  0  0  0  0
 20 22  1  0  0  0  0
 17 18  1  0  0  0  0
 17 19  2  0  0  0  0
 14 15  1  0  0  0  0
 14 16  1  0  0  0  0
 14 17  1  0  0  0  0
 11 12  1  0  0  0  0
 11 13  1  0  0  0  0
 11 14  1  0  0  0  0
  9 10  1  0  0  0  0
  9 11  1  0  0  0  0
  9 20  1  0  0  0  0
  7  8  1  0  0  0  0
  7  9  1  0  0  0  0
 24 25  1  0  0  0  0
 24 26  1  0  0  0  0
 24 27  1  0  0  0  0
 22 23  1  0  0  0  0
 22 24  1  0  0  0  0
M  CHG  1  18  -1
M  END
$$$$
default_name
  -OEChem-01062215323D

 27 26  0     1  0  0  0  0  0999 V2000
   -3.2406   -3.5400    1.2326 H   0  0  0  0  0  0  0  0  0  0  0  0
   -3.1436   -2.6190    0.6606 C   0  0  0  0  0  0  0  0  0  0  0  0
   -3.8786   -1.8920    0.9996 H   0  0  0  0  0  0  0  0  0  0  0  0
   -3.2846   -2.8280   -0.3984 H   0  0  0  0  0  0  0  0  0  0  0  0
   -1.7586   -2.0580    0.8686 C   0  0  0  0  0  0  0  0  0  0  0  0
   -0.9666   -2.6340    1.6026 O   0  0  0  0  0  0  0  0  0  0  0  0
   -1.4866   -0.9220    0.2366 N   0  0  0  0  0  0  0  0  0  0  0  0
   -2.2166   -0.4790   -0.2994 H   0  0  0  0  0  0  0  0  0  0  0  0
   -0.1956   -0.2250    0.2596 C   0  0  1  0  0  0  0  0  0  0  0  0
   -0.3754    0.8437    0.3792 H   0  0  0  0  0  0  0  0  0  0  0  0
    0.6135   -0.7001    1.4833 C   0  0  0  0  0  0  0  0  0  0  0  0
    0.6606   -1.7898    1.4528 H   0  0  0  0  0  0  0  0  0  0  0  0
    1.6299   -0.3092    1.4169 H   0  0  0  0  0  0  0  0  0  0  0  0
   -0.0032   -0.2762    2.8270 C   0  0  0  0  0  0  0  0  0  0  0  0
   -0.0612    0.8142    2.8654 H   0  0  0  0  0  0  0  0  0  0  0  0
   -1.0219   -0.6699    2.8762 H   0  0  0  0  0  0  0  0  0  0  0  0
    0.7902   -0.7707    4.0456 C   0  0  0  0  0  0  0  0  0  0  0  0
    1.7462   -1.5552    3.8535 O   0  5  0  0  0  0  0  0  0  0  0  0
    0.4366   -0.3296    5.1618 O   0  0  0  0  0  0  0  0  0  0  0  0
    0.5552   -0.4207   -1.0740 C   0  0  0  0  0  0  0  0  0  0  0  0
   -0.0291   -0.2797   -2.1503 O   0  0  0  0  0  0  0  0  0  0  0  0
    1.8587   -0.7220   -1.0085 N   0  0  0  0  0  0  0  0  0  0  0  0
    2.2558   -0.8747   -0.0934 H   0  0  0  0  0  0  0  0  0  0  0  0
    2.7057   -0.9566   -2.1751 C   0  0  0  0  0  0  0  0  0  0  0  0
    2.6009   -0.1290   -2.8787 H   0  0  0  0  0  0  0  0  0  0  0  0
    3.7492   -1.0455   -1.8696 H   0  0  0  0  0  0  0  0  0  0  0  0
    2.3937   -1.8784   -2.6698 H   0  0  0  0  0  0  0  0  0  0  0  0
  5  6  2  0  0  0  0
  5  7  1  0  0  0  0
  2  3  1  0  0  0  0
  2  4  1  0  0  0  0
  2  5  1  0  0  0  0
  1  2  1  0  0  0  0
 20 21  2  0  0  0  0
 20 22  1  0  0  0  0
 17 18  1  0  0  0  0
 17 19  2  0  0  0  0
 14 15  1  0  0  0  0
 14 16  1  0  0  0  0
 14 17  1  0  0  0  0
 11 12  1  0  0  0  0
 11 13  1  0  0  0  0
 11 14  1  0  0  0  0
  9 10  1  0  0  0  0
  9 11  1  0  0  0  0
  9 20  1  0  0  0  0
  7  8  1  0  0  0  0
  7  9  1  0  0  0  0
 24 25  1  0  0  0  0
 24 26  1  0  0  0  0
 24 27  1  0  0  0  0
 22 23  1  0  0  0  0
 22 24  1  0  0  0  0
M  CHG  1  18  -1
M  END
$$$$
default_name
  -OEChem-01062215323D

 27 26  0     1  0  0  0  0  0999 V2000
   -3.2406   -3.5400    1.2326 H   0  0  0  0  0  0  0  0  0  0  0  0
   -3.1436   -2.6190    0.6606 C   0  0  0  0  0  0  0  0  0  0  0  0
   -3.8786   -1.8920    0.9996 H   0  0  0  0  0  0  0  0  0  0  0  0
   -3.2846   -2.8280   -0.3984 H   0  0  0  0  0  0  0  0  0  0  0  0
   -1.7586   -2.0580    0.8686 C   0  0  0  0  0  0  0  0  0  0  0  0
   -0.9666   -2.6340    1.6026 O   0  0  0  0  0  0  0  0  0  0  0  0
   -1.4866   -0.9220    0.2366 N   0  0  0  0  0  0  0  0  0  0  0  0
   -2.2166   -0.4790   -0.2994 H   0  0  0  0  0  0  0  0  0  0  0  0
   -0.1956   -0.2250    0.2596 C   0  0  1  0  0  0  0  0  0  0  0  0
   -0.3754    0.8437    0.3792 H   0  0  0  0  0  0  0  0  0  0  0  0
    0.6135   -0.7001    1.4833 C   0  0  0  0  0  0  0  0  0  0  0  0
    0.6606   -1.7898    1.4528 H   0  0  0  0  0  0  0  0  0  0  0  0
    1.6299   -0.3092    1.4169 H   0  0  0  0  0  0  0  0  0  0  0  0
   -0.0032   -0.2762    2.8270 C   0  0  0  0  0  0  0  0  0  0  0  0
   -0.0612    0.8142    2.8654 H   0  0  0  0  0  0  0  0  0  0  0  0
   -1.0219   -0.6699    2.8762 H   0  0  0  0  0  0  0  0  0  0  0  0
    0.7902   -0.7707    4.0456 C   0  0  0  0  0  0  0  0  0  0  0  0
    1.7462   -1.5552    3.8535 O   0  5  0  0  0  0  0  0  0  0  0  0
    0.4366   -0.3296    5.1618 O   0  0  0  0  0  0  0  0  0  0  0  0
    0.5552   -0.4207   -1.0740 C   0  0  0  0  0  0  0  0  0  0  0  0
    0.0681   -0.0210   -2.1335 O   0  0  0  0  0  0  0  0  0  0  0  0
    1.7549   -1.0142   -1.0240 N   0  0  0  0  0  0  0  0  0  0  0  0
    2.0647   -1.3634   -0.1292 H   0  0  0  0  0  0  0  0  0  0  0  0
    2.5830   -1.2897   -2.1953 C   0  0  0  0  0  0  0  0  0  0  0  0
    2.6974   -0.3802   -2.7875 H   0  0  0  0  0  0  0  0  0  0  0  0
    3.5652   -1.6486   -1.8847 H   0  0  0  0  0  0  0  0  0  0  0  0
    2.0981   -2.0496   -2.8111 H   0  0  0  0  0  0  0  0  0  0  0  0
  5  6  2  0  0  0  0
  5  7  1  0  0  0  0
  2  3  1  0  0  0  0
  2  4  1  0  0  0  0
  2  5  1  0  0  0  0
  1  2  1  0  0  0  0
 20 21  2  0  0  0  0
 20 22  1  0  0  0  0
 17 18  1  0  0  0  0
 17 19  2  0  0  0  0
 14 15  1  0  0  0  0
 14 16  1  0  0  0  0
 14 17  1  0  0  0  0
 11 12  1  0  0  0  0
 11 13  1  0  0  0  0
 11 14  1  0  0  0  0
  9 10  1  0  0  0  0
  9 11  1  0  0  0  0
  9 20  1  0  0  0  0
  7  8  1  0  0  0  0
  7  9  1  0  0  0  0
 24 25  1  0  0  0  0
 24 26  1  0  0  0  0
 24 27  1  0  0  0  0
 22 23  1  0  0  0  0
 22 24  1  0  0  0  0
M  CHG  1  18  -1
M  END
$$$$
default_name
  -OEChem-01062215323D

 27 26  0     1  0  0  0  0  0999 V2000
   -3.2406   -3.5400    1.2326 H   0  0  0  0  0  0  0  0  0  0  0  0
   -3.1436   -2.6190    0.6606 C   0  0  0  0  0  0  0  0  0  0  0  0
   -3.8786   -1.8920    0.9996 H   0  0  0  0  0  0  0  0  0  0  0  0
   -3.2846   -2.8280   -0.3984 H   0  0  0  0  0  0  0  0  0  0  0  0
   -1.7586   -2.0580    0.8686 C   0  0  0  0  0  0  0  0  0  0  0  0
   -0.9666   -2.6340    1.6026 O   0  0  0  0  0  0  0  0  0  0  0  0
   -1.4866   -0.9220    0.2366 N   0  0  0  0  0  0  0  0  0  0  0  0
   -2.2166   -0.4790   -0.2994 H   0  0  0  0  0  0  0  0  0  0  0  0
   -0.1956   -0.2250    0.2596 C   0  0  1  0  0  0  0  0  0  0  0  0
   -0.3754    0.8437    0.3792 H   0  0  0  0  0  0  0  0  0  0  0  0
    0.6135   -0.7001    1.4833 C   0  0  0  0  0  0  0  0  0  0  0  0
    0.6606   -1.7898    1.4528 H   0  0  0  0  0  0  0  0  0  0  0  0
    1.6299   -0.3092    1.4169 H   0  0  0  0  0  0  0  0  0  0  0  0
   -0.0032   -0.2762    2.8270 C   0  0  0  0  0  0  0  0  0  0  0  0
   -0.0612    0.8142    2.8654 H   0  0  0  0  0  0  0  0  0  0  0  0
   -1.0219   -0.6699    2.8762 H   0  0  0  0  0  0  0  0  0  0  0  0
    0.7902   -0.7707    4.0456 C   0  0  0  0  0  0  0  0  0  0  0  0
    1.7462   -1.5552    3.8535 O   0  5  0  0  0  0  0  0  0  0  0  0
    0.4366   -0.3296    5.1618 O   0  0  0  0  0  0  0  0  0  0  0  0
    0.5552   -0.4207   -1.0740 C   0  0  0  0  0  0  0  0  0  0  0  0
    0.2193    0.2051   -2.0816 O   0  0  0  0  0  0  0  0  0  0  0  0
    1.5898   -1.2714   -1.0792 N   0  0  0  0  0  0  0  0  0  0  0  0
    1.7720   -1.7881   -0.2317 H   0  0  0  0  0  0  0  0  0  0  0  0
    2.3905   -1.5814   -2.2608 C   0  0  0  0  0  0  0  0  0  0  0  0
    2.7315   -0.6559   -2.7278 H   0  0  0  0  0  0  0  0  0  0  0  0
    3.2530   -2.1880   -1.9813 H   0  0  0  0  0  0  0  0  0  0  0  0
    1.7789   -2.1311   -2.9789 H   0  0  0  0  0  0  0  0  0  0  0  0
  5  6  2  0  0  0  0
  5  7  1  0  0  0  0
  2  3  1  0  0  0  0
  2  4  1  0  0  0  0
  2  5  1  0  0  0  0
  1  2  1  0  0  0  0
 20 21  2  0  0  0  0
 20 22  1  0  0  0  0
 17 18  1  0  0  0  0
 17 19  2  0  0  0  0
 14 15  1  0  0  0  0
 14 16  1  0  0  0  0
 14 17  1  0  0  0  0
 11 12  1  0  0  0  0
 11 13  1  0  0  0  0
 11 14  1  0  0  0  0
  9 10  1  0  0  0  0
  9 11  1  0  0  0  0
  9 20  1  0  0  0  0
  7  8  1  0  0  0  0
  7  9  1  0  0  0  0
 24 25  1  0  0  0  0
 24 26  1  0  0  0  0
 24 27  1  0  0  0  0
 22 23  1  0  0  0  0
 22 24  1  0  0  0  0
M  CHG  1  18  -1
M  END
$$$$
default_name
  -OEChem-01062215323D

 27 26  0     1  0  0  0  0  0999 V2000
   -3.2406   -3.5400    1.2326 H   0  0  0  0  0  0  0  0  0  0  0  0
   -3.1436   -2.6190    0.6606 C   0  0  0  0  0  0  0  0  0  0  0  0
   -3.8786   -1.8920    0.9996 H   0  0  0  0  0  0  0  0  0  0  0  0
   -3.2846   -2.8280   -0.3984 H   0  0  0  0  0  0  0  0  0  0  0  0
   -1.7586   -2.0580    0.8686 C   0  0  0  0  0  0  0  0  0  0  0  0
   -0.9666   -2.6340    1.6026 O   0  0  0  0  0  0  0  0  0  0  0  0
   -1.4866   -0.9220    0.2366 N   0  0  0  0  0  0  0  0  0  0  0  0
   -2.2166   -0.4790   -0.2994 H   0  0  0  0  0  0  0  0  0  0  0  0
   -0.1956   -0.2250    0.2596 C   0  0  1  0  0  0  0  0  0  0  0  0
   -0.3754    0.8437    0.3792 H   0  0  0  0  0  0  0  0  0  0  0  0
    0.6135   -0.7001    1.4833 C   0  0  0  0  0  0  0  0  0  0  0  0
    0.6606   -1.7898    1.4528 H   0  0  0  0  0  0  0  0  0  0  0  0
    1.6299   -0.3092    1.4169 H   0  0  0  0  0  0  0  0  0  0  0  0
   -0.0032   -0.2762    2.8270 C   0  0  0  0  0  0  0  0  0  0  0  0
   -0.0612    0.8142    2.8654 H   0  0  0  0  0  0  0  0  0  0  0  0
   -1.0219   -0.6699    2.8762 H   0  0  0  0  0  0  0  0  0  0  0  0
    0.7902   -0.7707    4.0456 C   0  0  0  0  0  0  0  0  0  0  0  0
    1.7462   -1.5552    3.8535 O   0  5  0  0  0  0  0  0  0  0  0  0
    0.4366   -0.3296    5.1618 O   0  0  0  0  0  0  0  0  0  0  0  0
    0.5552   -0.4207   -1.0740 C   0  0  0  0  0  0  0  0  0  0  0  0
    0.4143    0.3831   -1.9979 O   0  0  0  0  0  0  0  0  0  0  0  0
    1.3747   -1.4758   -1.1704 N   0  0  0  0  0  0  0  0  0  0  0  0
    1.3976   -2.1199   -0.3938 H   0  0  0  0  0  0  0  0  0  0  0  0
    2.1415   -1.8119   -2.3672 C   0  0  0  0  0  0  0  0  0  0  0  0
    2.7008   -0.9373   -2.7038 H   0  0  0  0  0  0  0  0  0  0  0  0
    2.8340   -2.6271   -2.1528 H   0  0  0  0  0  0  0  0  0  0  0  0
    1.4578   -2.1173   -3.1616 H   0  0  0  0  0  0  0  0  0  0  0  0
  5  6  2  0  0  0  0
  5  7  1  0  0  0  0
  2  3  1  0  0  0  0
  2  4  1  0  0  0  0
  2  5  1  0  0  0  0
  1  2  1  0  0  0  0
 20 21  2  0  0  0  0
 20 22  1  0  0  0  0
 17 18  1  0  0  0  0
 17 19  2  0  0  0  0
 14 15  1  0  0  0  0
 14 16  1  0  0  0  0
 14 17  1  0  0  0  0
 11 12  1  0  0  0  0
 11 13  1  0  0  0  0
 11 14  1  0  0  0  0
  9 10  1  0  0  0  0
  9 11  1  0  0  0  0
  9 20  1  0  0  0  0
  7  8  1  0  0  0  0
  7  9  1  0  0  0  0
 24 25  1  0  0  0  0
 24 26  1  0  0  0  0
 24 27  1  0  0  0  0
 22 23  1  0  0  0  0
 22 24  1  0  0  0  0
M  CHG  1  18  -1
M  END
$$$$
default_name
  -OEChem-01062215323D

 27 26  0     1  0  0  0  0  0999 V2000
   -3.2406   -3.5400    1.2326 H   0  0  0  0  0  0  0  0  0  0  0  0
   -3.1436   -2.6190    0.6606 C   0  0  0  0  0  0  0  0  0  0  0  0
   -3.8786   -1.8920    0.9996 H   0  0  0  0  0  0  0  0  0  0  0  0
   -3.2846   -2.8280   -0.3984 H   0  0  0  0  0  0  0  0  0  0  0  0
   -1.7586   -2.0580    0.8686 C   0  0  0  0  0  0  0  0  0  0  0  0
   -0.9666   -2.6340    1.6026 O   0  0  0  0  0  0  0  0  0  0  0  0
   -1.4866   -0.9220    0.2366 N   0  0  0  0  0  0  0  0  0  0  0  0
   -2.2166   -0.4790   -0.2994 H   0  0  0  0  0  0  0  0  0  0  0  0
   -0.1956   -0.2250    0.2596 C   0  0  1  0  0  0  0  0  0  0  0  0
   -0.3754    0.8437    0.3792 H   0  0  0  0  0  0  0  0  0  0  0  0
    0.6135   -0.7001    1.4833 C   0  0  0  0  0  0  0  0  0  0  0  0
    0.6606   -1.7898    1.4528 H   0  0  0  0  0  0  0  0  0  0  0  0
    1.6299   -0.3092    1.4169 H   0  0  0  0  0  0  0  0  0  0  0  0
   -0.0032   -0.2762    2.8270 C   0  0  0  0  0  0  0  0  0  0  0  0
   -0.0612    0.8142    2.8654 H   0  0  0  0  0  0  0  0  0  0  0  0
   -1.0219   -0.6699    2.8762 H   0  0  0  0  0  0  0  0  0  0  0  0
    0.7902   -0.7707    4.0456 C   0  0  0  0  0  0  0  0  0  0  0  0
    1.7462   -1.5552    3.8535 O   0  5  0  0  0  0  0  0  0  0  0  0
    0.4366   -0.3296    5.1618 O   0  0  0  0  0  0  0  0  0  0  0  0
    0.5552   -0.4207   -1.0740 C   0  0  0  0  0  0  0  0  0  0  0  0
    0.6396    0.5010   -1.8883 O   0  0  0  0  0  0  0  0  0  0  0  0
    1.1241   -1.6137   -1.2912 N   0  0  0  0  0  0  0  0  0  0  0  0
    0.9671   -2.3363   -0.6045 H   0  0  0  0  0  0  0  0  0  0  0  0
    1.8530   -1.9654   -2.5071 C   0  0  0  0  0  0  0  0  0  0  0  0
    2.6073   -1.2053   -2.7171 H   0  0  0  0  0  0  0  0  0  0  0  0
    2.3366   -2.9359   -2.3875 H   0  0  0  0  0  0  0  0  0  0  0  0
    1.1568   -2.0091   -3.3470 H   0  0  0  0  0  0  0  0  0  0  0  0
  5  6  2  0  0  0  0
  5  7  1  0  0  0  0
  2  3  1  0  0  0  0
  2  4  1  0  0  0  0
  2  5  1  0  0  0  0
  1  2  1  0  0  0  0
 20 21  2  0  0  0  0
 20 22  1  0  0  0  0
 17 18  1  0  0  0  0
 17 19  2  0  0  0  0
 14 15  1  0  0  0  0
 14 16  1  0  0  0  0
 14 17  1  0  0  0  0
 11 12  1  0  0  0  0
 11 13  1  0  0  0  0
 11 14  1  0  0  0  0
  9 10  1  0  0  0  0
  9 11  1  0  0  0  0
  9 20  1  0  0  0  0
  7  8  1  0  0  0  0
  7  9  1  0  0  0  0
 24 25  1  0  0  0  0
 24 26  1  0  0  0  0
 24 27  1  0  0  0  0
 22 23  1  0  0  0  0
 22 24  1  0  0  0  0
M  CHG  1  18  -1
M  END
$$$$
default_name
  -OEChem-01062215323D

 27 26  0     1  0  0  0  0  0999 V2000
   -3.2406   -3.5400    1.2326 H   0  0  0  0  0  0  0  0  0  0  0  0
   -3.1436   -2.6190    0.6606 C   0  0  0  0  0  0  0  0  0  0  0  0
   -3.8786   -1.8920    0.9996 H   0  0  0  0  0  0  0  0  0  0  0  0
   -3.2846   -2.8280   -0.3984 H   0  0  0  0  0  0  0  0  0  0  0  0
   -1.7586   -2.0580    0.8686 C   0  0  0  0  0  0  0  0  0  0  0  0
   -0.9666   -2.6340    1.6026 O   0  0  0  0  0  0  0  0  0  0  0  0
   -1.4866   -0.9220    0.2366 N   0  0  0  0  0  0  0  0  0  0  0  0
   -2.2166   -0.4790   -0.2994 H   0  0  0  0  0  0  0  0  0  0  0  0
   -0.1956   -0.2250    0.2596 C   0  0  1  0  0  0  0  0  0  0  0  0
   -0.3754    0.8437    0.3792 H   0  0  0  0  0  0  0  0  0  0  0  0
    0.6135   -0.7001    1.4833 C   0  0  0  0  0  0  0  0  0  0  0  0
    0.6606   -1.7898    1.4528 H   0  0  0  0  0  0  0  0  0  0  0  0
    1.6299   -0.3092    1.4169 H   0  0  0  0  0  0  0  0  0  0  0  0
   -0.0032   -0.2762    2.8270 C   0  0  0  0  0  0  0  0  0  0  0  0
   -0.0612    0.8142    2.8654 H   0  0  0  0  0  0  0  0  0  0  0  0
   -1.0219   -0.6699    2.8762 H   0  0  0  0  0  0  0  0  0  0  0  0
    0.7902   -0.7707    4.0456 C   0  0  0  0  0  0  0  0  0  0  0  0
    1.7462   -1.5552    3.8535 O   0  5  0  0  0  0  0  0  0  0  0  0
    0.4366   -0.3296    5.1618 O   0  0  0  0  0  0  0  0  0  0  0  0
    0.5552   -0.4207   -1.0740 C   0  0  0  0  0  0  0  0  0  0  0  0
    0.8801    0.5505   -1.7602 O   0  0  0  0  0  0  0  0  0  0  0  0
    0.8551   -1.6756   -1.4336 N   0  0  0  0  0  0  0  0  0  0  0  0
    0.5097   -2.4225   -0.8493 H   0  0  0  0  0  0  0  0  0  0  0  0
    1.5445   -2.0315   -2.6711 C   0  0  0  0  0  0  0  0  0  0  0  0
    2.4576   -1.4415   -2.7668 H   0  0  0  0  0  0  0  0  0  0  0  0
    1.7949   -3.0933   -2.6694 H   0  0  0  0  0  0  0  0  0  0  0  0
    0.8963   -1.8139   -3.5223 H   0  0  0  0  0  0  0  0  0  0  0  0
  5  6  2  0  0  0  0
  5  7  1  0  0  0  0
  2  3  1  0  0  0  0
  2  4  1  0  0  0  0
  2  5  1  0  0  0  0
  1  2  1  0  0  0  0
 20 21  2  0  0  0  0
 20 22  1  0  0  0  0
 17 18  1  0  0  0  0
 17 19  2  0  0  0  0
 14 15  1  0  0  0  0
 14 16  1  0  0  0  0
 14 17  1  0  0  0  0
 11 12  1  0  0  0  0
 11 13  1  0  0  0  0
 11 14  1  0  0  0  0
  9 10  1  0  0  0  0
  9 11  1  0  0  0  0
  9 20  1  0  0  0  0
  7  8  1  0  0  0  0
  7  9  1  0  0  0  0
 24 25  1  0  0  0  0
 24 26  1  0  0  0  0
 24 27  1  0  0  0  0
 22 23  1  0  0  0  0
 22 24  1  0  0  0  0
M  CHG  1  18  -1
M  END
$$$$
default_name
  -OEChem-01062215323D

 27 26  0     1  0  0  0  0  0999 V2000
   -3.2406   -3.5400    1.2326 H   0  0  0  0  0  0  0  0  0  0  0  0
   -3.1436   -2.6190    0.6606 C   0  0  0  0  0  0  0  0  0  0  0  0
   -3.8786   -1.8920    0.9996 H   0  0  0  0  0  0  0  0  0  0  0  0
   -3.2846   -2.8280   -0.3984 H   0  0  0  0  0  0  0  0  0  0  0  0
   -1.7586   -2.0580    0.8686 C   0  0  0  0  0  0  0  0  0  0  0  0
   -0.9666   -2.6340    1.6026 O   0  0  0  0  0  0  0  0  0  0  0  0
   -1.4866   -0.9220    0.2366 N   0  0  0  0  0  0  0  0  0  0  0  0
   -2.2166   -0.4790   -0.2994 H   0  0  0  0  0  0  0  0  0  0  0  0
   -0.1956   -0.2250    0.2596 C   0  0  1  0  0  0  0  0  0  0  0  0
   -0.3754    0.8437    0.3792 H   0  0  0  0  0  0  0  0  0  0  0  0
    0.6135   -0.7001    1.4833 C   0  0  0  0  0  0  0  0  0  0  0  0
    0.6606   -1.7898    1.4528 H   0  0  0  0  0  0  0  0  0  0  0  0
    1.6299   -0.3092    1.4169 H   0  0  0  0  0  0  0  0  0  0  0  0
   -0.0032   -0.2762    2.8270 C   0  0  0  0  0  0  0  0  0  0  0  0
   -0.0612    0.8142    2.8654 H   0  0  0  0  0  0  0  0  0  0  0  0
   -1.0219   -0.6699    2.8762 H   0  0  0  0  0  0  0  0  0  0  0  0
    0.7902   -0.7707    4.0456 C   0  0  0  0  0  0  0  0  0  0  0  0
    1.7462   -1.5552    3.8535 O   0  5  0  0  0  0  0  0  0  0  0  0
    0.4366   -0.3296    5.1618 O   0  0  0  0  0  0  0  0  0  0  0  0
    0.5552   -0.4207   -1.0740 C   0  0  0  0  0  0  0  0  0  0  0  0
    1.1192    0.5285   -1.6224 O   0  0  0  0  0  0  0  0  0  0  0  0
    0.5862   -1.6573   -1.5876 N   0  0  0  0  0  0  0  0  0  0  0  0
    0.0567   -2.3725   -1.1117 H   0  0  0  0  0  0  0  0  0  0  0  0
    1.2371   -2.0057   -2.8480 C   0  0  0  0  0  0  0  0  0  0  0  0
    2.2617   -1.6300   -2.8494 H   0  0  0  0  0  0  0  0  0  0  0  0
    1.2456   -3.0886   -2.9793 H   0  0  0  0  0  0  0  0  0  0  0  0
    0.6942   -1.5450   -3.6755 H   0  0  0  0  0  0  0  0  0  0  0  0
  5  6  2  0  0  0  0
  5  7  1  0  0  0  0
  2  3  1  0  0  0  0
  2  4  1  0  0  0  0
  2  5  1  0  0  0  0
  1  2  1  0  0  0  0
 20 21  2  0  0  0  0
 20 22  1  0  0  0  0
 17 18  1  0  0  0  0
 17 19  2  0  0  0  0
 14 15  1  0  0  0  0
 14 16  1  0  0  0  0
 14 17  1  0  0  0  0
 11 12  1  0  0  0  0
 11 13  1  0  0  0  0
 11 14  1  0  0  0  0
  9 10  1  0  0  0  0
  9 11  1  0  0  0  0
  9 20  1  0  0  0  0
  7  8  1  0  0  0  0
  7  9  1  0  0  0  0
 24 25  1  0  0  0  0
 24 26  1  0  0  0  0
 24 27  1  0  0  0  0
 22 23  1  0  0  0  0
 22 24  1  0  0  0  0
M  CHG  1  18  -1
M  END
$$$$
default_name
  -OEChem-01062215323D

 27 26  0     1  0  0  0  0  0999 V2000
   -3.2406   -3.5400    1.2326 H   0  0  0  0  0  0  0  0  0  0  0  0
   -3.1436   -2.6190    0.6606 C   0  0  0  0  0  0  0  0  0  0  0  0
   -3.8786   -1.8920    0.9996 H   0  0  0  0  0  0  0  0  0  0  0  0
   -3.2846   -2.8280   -0.3984 H   0  0  0  0  0  0  0  0  0  0  0  0
   -1.7586   -2.0580    0.8686 C   0  0  0  0  0  0  0  0  0  0  0  0
   -0.9666   -2.6340    1.6026 O   0  0  0  0  0  0  0  0  0  0  0  0
   -1.4866   -0.9220    0.2366 N   0  0  0  0  0  0  0  0  0  0  0  0
   -2.2166   -0.4790   -0.2994 H   0  0  0  0  0  0  0  0  0  0  0  0
   -0.1956   -0.2250    0.2596 C   0  0  1  0  0  0  0  0  0  0  0  0
   -0.3754    0.8437    0.3792 H   0  0  0  0  0  0  0  0  0  0  0  0
    0.6135   -0.7001    1.4833 C   0  0  0  0  0  0  0  0  0  0  0  0
    0.6606   -1.7898    1.4528 H   0  0  0  0  0  0  0  0  0  0  0  0
    1.6299   -0.3092    1.4169 H   0  0  0  0  0  0  0  0  0  0  0  0
   -0.0032   -0.2762    2.8270 C   0  0  0  0  0  0  0  0  0  0  0  0
   -0.0612    0.8142    2.8654 H   0  0  0  0  0  0  0  0  0  0  0  0
   -1.0219   -0.6699    2.8762 H   0  0  0  0  0  0  0  0  0  0  0  0
    0.7902   -0.7707    4.0456 C   0  0  0  0  0  0  0  0  0  0  0  0
    1.7462   -1.5552    3.8535 O   0  5  0  0  0  0  0  0  0  0  0  0
    0.4366   -0.3296    5.1618 O   0  0  0  0  0  0  0  0  0  0  0  0
    0.5552   -0.4207   -1.0740 C   0  0  0  0  0  0  0  0  0  0  0  0
    1.3408    0.4363   -1.4841 O   0  0  0  0  0  0  0  0  0  0  0  0
    0.3356   -1.5601   -1.7430 N   0  0  0  0  0  0  0  0  0  0  0  0
   -0.3611   -2.1899   -1.3737 H   0  0  0  0  0  0  0  0  0  0  0  0
    0.9518   -1.8897   -3.0256 C   0  0  0  0  0  0  0  0  0  0  0  0
    2.0330   -1.7578   -2.9594 H   0  0  0  0  0  0  0  0  0  0  0  0
    0.7262   -2.9222   -3.2961 H   0  0  0  0  0  0  0  0  0  0  0  0
    0.5640   -1.2208   -3.7964 H   0  0  0  0  0  0  0  0  0  0  0  0
  5  6  2  0  0  0  0
  5  7  1  0  0  0  0
  2  3  1  0  0  0  0
  2  4  1  0  0  0  0
  2  5  1  0  0  0  0
  1  2  1  0  0  0  0
 20 21  2  0  0  0  0
 20 22  1  0  0  0  0
 17 18  1  0  0  0  0
 17 19  2  0  0  0  0
 14 15  1  0  0  0  0
 14 16  1  0  0  0  0
 14 17  1  0  0  0  0
 11 12  1  0  0  0  0
 11 13  1  0  0  0  0
 11 14  1  0  0  0  0
  9 10  1  0  0  0  0
  9 11  1  0  0  0  0
  9 20  1  0  0  0  0
  7  8  1  0  0  0  0
  7  9  1  0  0  0  0
 24 25  1  0  0  0  0
 24 26  1  0  0  0  0
 24 27  1  0  0  0  0
 22 23  1  0  0  0  0
 22 24  1  0  0  0  0
M  CHG  1  18  -1
M  END
$$$$
default_name
  -OEChem-01062215323D

 27 26  0     1  0  0  0  0  0999 V2000
   -3.2406   -3.5400    1.2326 H   0  0  0  0  0  0  0  0  0  0  0  0
   -3.1436   -2.6190    0.6606 C   0  0  0  0  0  0  0  0  0  0  0  0
   -3.8786   -1.8920    0.9996 H   0  0  0  0  0  0  0  0  0  0  0  0
   -3.2846   -2.8280   -0.3984 H   0  0  0  0  0  0  0  0  0  0  0  0
   -1.7586   -2.0580    0.8686 C   0  0  0  0  0  0  0  0  0  0  0  0
   -0.9666   -2.6340    1.6026 O   0  0  0  0  0  0  0  0  0  0  0  0
   -1.4866   -0.9220    0.2366 N   0  0  0  0  0  0  0  0  0  0  0  0
   -2.2166   -0.4790   -0.2994 H   0  0  0  0  0  0  0  0  0  0  0  0
   -0.1956   -0.2250    0.2596 C   0  0  1  0  0  0  0  0  0  0  0  0
   -0.3754    0.8437    0.3792 H   0  0  0  0  0  0  0  0  0  0  0  0
    0.6135   -0.7001    1.4833 C   0  0  0  0  0  0  0  0  0  0  0  0
    0.6606   -1.7898    1.4528 H   0  0  0  0  0  0  0  0  0  0  0  0
    1.6299   -0.3092    1.4169 H   0  0  0  0  0  0  0  0  0  0  0  0
   -0.0032   -0.2762    2.8270 C   0  0  0  0  0  0  0  0  0  0  0  0
   -0.0612    0.8142    2.8654 H   0  0  0  0  0  0  0  0  0  0  0  0
   -1.0219   -0.6699    2.8762 H   0  0  0  0  0  0  0  0  0  0  0  0
    0.7902   -0.7707    4.0456 C   0  0  0  0  0  0  0  0  0  0  0  0
    1.7462   -1.5552    3.8535 O   0  5  0  0  0  0  0  0  0  0  0  0
    0.4366   -0.3296    5.1618 O   0  0  0  0  0  0  0  0  0  0  0  0
    0.5552   -0.4207   -1.0740 C   0  0  0  0  0  0  0  0  0  0  0  0
    1.5296    0.2803   -1.3549 O   0  0  0  0  0  0  0  0  0  0  0  0
    0.1203   -1.3905   -1.8891 N   0  0  0  0  0  0  0  0  0  0  0  0
   -0.7153   -1.8870   -1.6175 H   0  0  0  0  0  0  0  0  0  0  0  0
    0.7079   -1.6915   -3.1920 C   0  0  0  0  0  0  0  0  0  0  0  0
    1.7872   -1.8163   -3.0892 H   0  0  0  0  0  0  0  0  0  0  0  0
    0.2722   -2.6054   -3.5982 H   0  0  0  0  0  0  0  0  0  0  0  0
    0.5149   -0.8632   -3.8765 H   0  0  0  0  0  0  0  0  0  0  0  0
  5  6  2  0  0  0  0
  5  7  1  0  0  0  0
  2  3  1  0  0  0  0
  2  4  1  0  0  0  0
  2  5  1  0  0  0  0
  1  2  1  0  0  0  0
 20 21  2  0  0  0  0
 20 22  1  0  0  0  0
 17 18  1  0  0  0  0
 17 19  2  0  0  0  0
 14 15  1  0  0  0  0
 14 16  1  0  0  0  0
 14 17  1  0  0  0  0
 11 12  1  0  0  0  0
 11 13  1  0  0  0  0
 11 14  1  0  0  0  0
  9 10  1  0  0  0  0
  9 11  1  0  0  0  0
  9 20  1  0  0  0  0
  7  8  1  0  0  0  0
  7  9  1  0  0  0  0
 24 25  1  0  0  0  0
 24 26  1  0  0  0  0
 24 27  1  0  0  0  0
 22 23  1  0  0  0  0
 22 24  1  0  0  0  0
M  CHG  1  18  -1
M  END
$$$$
default_name
  -OEChem-01062215323D

 27 26  0     1  0  0  0  0  0999 V2000
   -3.2406   -3.5400    1.2326 H   0  0  0  0  0  0  0  0  0  0  0  0
   -3.1436   -2.6190    0.6606 C   0  0  0  0  0  0  0  0  0  0  0  0
   -3.8786   -1.8920    0.9996 H   0  0  0  0  0  0  0  0  0  0  0  0
   -3.2846   -2.8280   -0.3984 H   0  0  0  0  0  0  0  0  0  0  0  0
   -1.7586   -2.0580    0.8686 C   0  0  0  0  0  0  0  0  0  0  0  0
   -0.9666   -2.6340    1.6026 O   0  0  0  0  0  0  0  0  0  0  0  0
   -1.4866   -0.9220    0.2366 N   0  0  0  0  0  0  0  0  0  0  0  0
   -2.2166   -0.4790   -0.2994 H   0  0  0  0  0  0  0  0  0  0  0  0
   -0.1956   -0.2250    0.2596 C   0  0  1  0  0  0  0  0  0  0  0  0
   -0.3754    0.8437    0.3792 H   0  0  0  0  0  0  0  0  0  0  0  0
    0.6135   -0.7001    1.4833 C   0  0  0  0  0  0  0  0  0  0  0  0
    0.6606   -1.7898    1.4528 H   0  0  0  0  0  0  0  0  0  0  0  0
    1.6299   -0.3092    1.4169 H   0  0  0  0  0  0  0  0  0  0  0  0
   -0.0032   -0.2762    2.8270 C   0  0  0  0  0  0  0  0  0  0  0  0
   -0.0612    0.8142    2.8654 H   0  0  0  0  0  0  0  0  0  0  0  0
   -1.0219   -0.6699    2.8762 H   0  0  0  0  0  0  0  0  0  0  0  0
    0.7902   -0.7707    4.0456 C   0  0  0  0  0  0  0  0  0  0  0  0
    1.7462   -1.5552    3.8535 O   0  5  0  0  0  0  0  0  0  0  0  0
    0.4366   -0.3296    5.1618 O   0  0  0  0  0  0  0  0  0  0  0  0
    0.5552   -0.4207   -1.0740 C   0  0  0  0  0  0  0  0  0  0  0  0
    1.6728    0.0711   -1.2436 O   0  0  0  0  0  0  0  0  0  0  0  0
   -0.0449   -1.1601   -2.0158 N   0  0  0  0  0  0  0  0  0  0  0  0
   -0.9815   -1.4845   -1.8265 H   0  0  0  0  0  0  0  0  0  0  0  0
    0.5222   -1.4245   -3.3357 C   0  0  0  0  0  0  0  0  0  0  0  0
    1.5409   -1.8014   -3.2301 H   0  0  0  0  0  0  0  0  0  0  0  0
   -0.0856   -2.1597   -3.8650 H   0  0  0  0  0  0  0  0  0  0  0  0
    0.5500   -0.4968   -3.9105 H   0  0  0  0  0  0  0  0  0  0  0  0
  5  6  2  0  0  0  0
  5  7  1  0  0  0  0
  2  3  1  0  0  0  0
  2  4  1  0  0  0  0
  2  5  1  0  0  0  0
  1  2  1  0  0  0  0
 20 21  2  0  0  0  0
 20 22  1  0  0  0  0
 17 18  1  0  0  0  0
 17 19  2  0  0  0  0
 14 15  1  0  0  0  0
 14 16  1  0  0  0  0
 14 17  1  0  0  0  0
 11 12  1  0  0  0  0
 11 13  1  0  0  0  0
 11 14  1  0  0  0  0
  9 10  1  0  0  0  0
  9 11  1  0  0  0  0
  9 20  1  0  0  0  0
  7  8  1  0  0  0  0
  7  9  1  0  0  0  0
 24 25  1  0  0  0  0
 24 26  1  0  0  0  0
 24 27  1  0  0  0  0
 22 23  1  0  0  0  0
 22 24  1  0  0  0  0
M  CHG  1  18  -1
M  END
$$$$
default_name
  -OEChem-01062215323D

 27 26  0     1  0  0  0  0  0999 V2000
   -3.2406   -3.5400    1.2326 H   0  0  0  0  0  0  0  0  0  0  0  0
   -3.1436   -2.6190    0.6606 C   0  0  0  0  0  0  0  0  0  0  0  0
   -3.8786   -1.8920    0.9996 H   0  0  0  0  0  0  0  0  0  0  0  0
   -3.2846   -2.8280   -0.3984 H   0  0  0  0  0  0  0  0  0  0  0  0
   -1.7586   -2.0580    0.8686 C   0  0  0  0  0  0  0  0  0  0  0  0
   -0.9666   -2.6340    1.6026 O   0  0  0  0  0  0  0  0  0  0  0  0
   -1.4866   -0.9220    0.2366 N   0  0  0  0  0  0  0  0  0  0  0  0
   -2.2166   -0.4790   -0.2994 H   0  0  0  0  0  0  0  0  0  0  0  0
   -0.1956   -0.2250    0.2596 C   0  0  1  0  0  0  0  0  0  0  0  0
   -0.3754    0.8437    0.3792 H   0  0  0  0  0  0  0  0  0  0  0  0
    0.6135   -0.7001    1.4833 C   0  0  0  0  0  0  0  0  0  0  0  0
    0.6606   -1.7898    1.4528 H   0  0  0  0  0  0  0  0  0  0  0  0
    1.6299   -0.3092    1.4169 H   0  0  0  0  0  0  0  0  0  0  0  0
   -0.0032   -0.2762    2.8270 C   0  0  0  0  0  0  0  0  0  0  0  0
   -0.0612    0.8142    2.8654 H   0  0  0  0  0  0  0  0  0  0  0  0
   -1.0219   -0.6699    2.8762 H   0  0  0  0  0  0  0  0  0  0  0  0
    0.7902   -0.7707    4.0456 C   0  0  0  0  0  0  0  0  0  0  0  0
    1.7462   -1.5552    3.8535 O   0  5  0  0  0  0  0  0  0  0  0  0
    0.4366   -0.3296    5.1618 O   0  0  0  0  0  0  0  0  0  0  0  0
    0.5552   -0.4207   -1.0740 C   0  0  0  0  0  0  0  0  0  0  0  0
    1.7608   -0.1770   -1.1577 O   0  0  0  0  0  0  0  0  0  0  0  0
   -0.1487   -0.8847   -2.1147 N   0  0  0  0  0  0  0  0  0  0  0  0
   -1.1419   -1.0099   -1.9863 H   0  0  0  0  0  0  0  0  0  0  0  0
    0.4072   -1.1070   -3.4470 C   0  0  0  0  0  0  0  0  0  0  0  0
    1.3109   -1.7142   -3.3723 H   0  0  0  0  0  0  0  0  0  0  0  0
   -0.3227   -1.6156   -4.0784 H   0  0  0  0  0  0  0  0  0  0  0  0
    0.6670   -0.1464   -3.8960 H   0  0  0  0  0  0  0  0  0  0  0  0
  5  6  2  0  0  0  0
  5  7  1  0  0  0  0
  2  3  1  0  0  0  0
  2  4  1  0  0  0  0
  2  5  1  0  0  0  0
  1  2  1  0  0  0  0
 20 21  2  0  0  0  0
 20 22  1  0  0  0  0
 17 18  1  0  0  0  0
 17 19  2  0  0  0  0
 14 15  1  0  0  0  0
 14 16  1  0  0  0  0
 14 17  1  0  0  0  0
 11 12  1  0  0  0  0
 11 13  1  0  0  0  0
 11 14  1  0  0  0  0
  9 10  1  0  0  0  0
  9 11  1  0  0  0  0
  9 20  1  0  0  0  0
  7  8  1  0  0  0  0
  7  9  1  0  0  0  0
 24 25  1  0  0  0  0
 24 26  1  0  0  0  0
 24 27  1  0  0  0  0
 22 23  1  0  0  0  0
 22 24  1  0  0  0  0
M  CHG  1  18  -1
M  END
$$$$
default_name
  -OEChem-01062215323D

 27 26  0     1  0  0  0  0  0999 V2000
   -3.2406   -3.5400    1.2326 H   0  0  0  0  0  0  0  0  0  0  0  0
   -3.1436   -2.6190    0.6606 C   0  0  0  0  0  0  0  0  0  0  0  0
   -3.8786   -1.8920    0.9996 H   0  0  0  0  0  0  0  0  0  0  0  0
   -3.2846   -2.8280   -0.3984 H   0  0  0  0  0  0  0  0  0  0  0  0
   -1.7586   -2.0580    0.8686 C   0  0  0  0  0  0  0  0  0  0  0  0
   -0.9666   -2.6340    1.6026 O   0  0  0  0  0  0  0  0  0  0  0  0
   -1.4866   -0.9220    0.2366 N   0  0  0  0  0  0  0  0  0  0  0  0
   -2.2166   -0.4790   -0.2994 H   0  0  0  0  0  0  0  0  0  0  0  0
   -0.1956   -0.2250    0.2596 C   0  0  1  0  0  0  0  0  0  0  0  0
   -0.3754    0.8437    0.3792 H   0  0  0  0  0  0  0  0  0  0  0  0
    0.6135   -0.7001    1.4833 C   0  0  0  0  0  0  0  0  0  0  0  0
    0.6606   -1.7898    1.4528 H   0  0  0  0  0  0  0  0  0  0  0  0
    1.6299   -0.3092    1.4169 H   0  0  0  0  0  0  0  0  0  0  0  0
   -0.0032   -0.2762    2.8270 C   0  0  0  0  0  0  0  0  0  0  0  0
   -0.0612    0.8142    2.8654 H   0  0  0  0  0  0  0  0  0  0  0  0
   -1.0219   -0.6699    2.8762 H   0  0  0  0  0  0  0  0  0  0  0  0
    0.7902   -0.7707    4.0456 C   0  0  0  0  0  0  0  0  0  0  0  0
    1.7462   -1.5552    3.8535 O   0  5  0  0  0  0  0  0  0  0  0  0
    0.4366   -0.3296    5.1618 O   0  0  0  0  0  0  0  0  0  0  0  0
    0.5552   -0.4207   -1.0740 C   0  0  0  0  0  0  0  0  0  0  0  0
    1.7874   -0.4472   -1.1031 O   0  0  0  0  0  0  0  0  0  0  0  0
   -0.1842   -0.5830   -2.1789 N   0  0  0  0  0  0  0  0  0  0  0  0
   -1.1853   -0.4954   -2.0863 H   0  0  0  0  0  0  0  0  0  0  0  0
    0.3709   -0.7606   -3.5183 C   0  0  0  0  0  0  0  0  0  0  0  0
    1.1130   -1.5606   -3.5063 H   0  0  0  0  0  0  0  0  0  0  0  0
   -0.4230   -1.0101   -4.2237 H   0  0  0  0  0  0  0  0  0  0  0  0
    0.8580    0.1641   -3.8340 H   0  0  0  0  0  0  0  0  0  0  0  0
  5  6  2  0  0  0  0
  5  7  1  0  0  0  0
  2  3  1  0  0  0  0
  2  4  1  0  0  0  0
  2  5  1  0  0  0  0
  1  2  1  0  0  0  0
 20 21  2  0  0  0  0
 20 22  1  0  0  0  0
 17 18  1  0  0  0  0
 17 19  2  0  0  0  0
 14 15  1  0  0  0  0
 14 16  1  0  0  0  0
 14 17  1  0  0  0  0
 11 12  1  0  0  0  0
 11 13  1  0  0  0  0
 11 14  1  0  0  0  0
  9 10  1  0  0  0  0
  9 11  1  0  0  0  0
  9 20  1  0  0  0  0
  7  8  1  0  0  0  0
  7  9  1  0  0  0  0
 24 25  1  0  0  0  0
 24 26  1  0  0  0  0
 24 27  1  0  0  0  0
 22 23  1  0  0  0  0
 22 24  1  0  0  0  0
M  CHG  1  18  -1
M  END
$$$$
default_name
  -OEChem-01062215323D

 27 26  0     1  0  0  0  0  0999 V2000
   -3.2406   -3.5400    1.2326 H   0  0  0  0  0  0  0  0  0  0  0  0
   -3.1436   -2.6190    0.6606 C   0  0  0  0  0  0  0  0  0  0  0  0
   -3.8786   -1.8920    0.9996 H   0  0  0  0  0  0  0  0  0  0  0  0
   -3.2846   -2.8280   -0.3984 H   0  0  0  0  0  0  0  0  0  0  0  0
   -1.7586   -2.0580    0.8686 C   0  0  0  0  0  0  0  0  0  0  0  0
   -0.9666   -2.6340    1.6026 O   0  0  0  0  0  0  0  0  0  0  0  0
   -1.4866   -0.9220    0.2366 N   0  0  0  0  0  0  0  0  0  0  0  0
   -2.2166   -0.4790   -0.2994 H   0  0  0  0  0  0  0  0  0  0  0  0
   -0.1956   -0.2250    0.2596 C   0  0  1  0  0  0  0  0  0  0  0  0
   -0.3754    0.8437    0.3792 H   0  0  0  0  0  0  0  0  0  0  0  0
    0.6135   -0.7001    1.4833 C   0  0  0  0  0  0  0  0  0  0  0  0
    0.6606   -1.7898    1.4528 H   0  0  0  0  0  0  0  0  0  0  0  0
    1.6299   -0.3092    1.4169 H   0  0  0  0  0  0  0  0  0  0  0  0
   -0.0032   -0.2762    2.8270 C   0  0  0  0  0  0  0  0  0  0  0  0
   -0.0612    0.8142    2.8654 H   0  0  0  0  0  0  0  0  0  0  0  0
   -1.0219   -0.6699    2.8762 H   0  0  0  0  0  0  0  0  0  0  0  0
    0.7902   -0.7707    4.0456 C   0  0  0  0  0  0  0  0  0  0  0  0
    1.7462   -1.5552    3.8535 O   0  5  0  0  0  0  0  0  0  0  0  0
    0.4366   -0.3296    5.1618 O   0  0  0  0  0  0  0  0  0  0  0  0
    0.5552   -0.4207   -1.0740 C   0  0  0  0  0  0  0  0  0  0  0  0
    1.7508   -0.7210   -1.0835 O   0  0  0  0  0  0  0  0  0  0  0  0
   -0.1488   -0.2756   -2.2041 N   0  0  0  0  0  0  0  0  0  0  0  0
   -1.1088    0.0239   -2.1194 H   0  0  0  0  0  0  0  0  0  0  0  0
    0.4156   -0.4088   -3.5447 C   0  0  0  0  0  0  0  0  0  0  0  0
    0.9606   -1.3511   -3.6228 H   0  0  0  0  0  0  0  0  0  0  0  0
   -0.3797   -0.3846   -4.2910 H   0  0  0  0  0  0  0  0  0  0  0  0
    1.1098    0.4134   -3.7288 H   0  0  0  0  0  0  0  0  0  0  0  0
  5  6  2  0  0  0  0
  5  7  1  0  0  0  0
  2  3  1  0  0  0  0
  2  4  1  0  0  0  0
  2  5  1  0  0  0  0
  1  2  1  0  0  0  0
 20 21  2  0  0  0  0
 20 22  1  0  0  0  0
 17 18  1  0  0  0  0
 17 19  2  0  0  0  0
 14 15  1  0  0  0  0
 14 16  1  0  0  0  0
 14 17  1  0  0  0  0
 11 12  1  0  0  0  0
 11 13  1  0  0  0  0
 11 14  1  0  0  0  0
  9 10  1  0  0  0  0
  9 11  1  0  0  0  0
  9 20  1  0  0  0  0
  7  8  1  0  0  0  0
  7  9  1  0  0  0  0
 24 25  1  0  0  0  0
 24 26  1  0  0  0  0
 24 27  1  0  0  0  0
 22 23  1  0  0  0  0
 22 24  1  0  0  0  0
M  CHG  1  18  -1
M  END
$$$$
default_name
  -OEChem-01062215323D

 27 26  0     1  0  0  0  0  0999 V2000
   -3.2406   -3.5400    1.2326 H   0  0  0  0  0  0  0  0  0  0  0  0
   -3.1436   -2.6190    0.6606 C   0  0  0  0  0  0  0  0  0  0  0  0
   -3.8786   -1.8920    0.9996 H   0  0  0  0  0  0  0  0  0  0  0  0
   -3.2846   -2.8280   -0.3984 H   0  0  0  0  0  0  0  0  0  0  0  0
   -1.7586   -2.0580    0.8686 C   0  0  0  0  0  0  0  0  0  0  0  0
   -0.9666   -2.6340    1.6026 O   0  0  0  0  0  0  0  0  0  0  0  0
   -1.4866   -0.9220    0.2366 N   0  0  0  0  0  0  0  0  0  0  0  0
   -2.2166   -0.4790   -0.2994 H   0  0  0  0  0  0  0  0  0  0  0  0
   -0.1956   -0.2250    0.2596 C   0  0  1  0  0  0  0  0  0  0  0  0
   -0.3754    0.8437    0.3792 H   0  0  0  0  0  0  0  0  0  0  0  0
    0.6135   -0.7001    1.4833 C   0  0  0  0  0  0  0  0  0  0  0  0
    0.6606   -1.7898    1.4528 H   0  0  0  0  0  0  0  0  0  0  0  0
    1.6299   -0.3092    1.4169 H   0  0  0  0  0  0  0  0  0  0  0  0
   -0.0032   -0.2762    2.8270 C   0  0  0  0  0  0  0  0  0  0  0  0
   -0.0612    0.8142    2.8654 H   0  0  0  0  0  0  0  0  0  0  0  0
   -1.0219   -0.6699    2.8762 H   0  0  0  0  0  0  0  0  0  0  0  0
    0.7902   -0.7707    4.0456 C   0  0  0  0  0  0  0  0  0  0  0  0
    1.7462   -1.5552    3.8535 O   0  5  0  0  0  0  0  0  0  0  0  0
    0.4366   -0.3296    5.1618 O   0  0  0  0  0  0  0  0  0  0  0  0
    0.5552   -0.4207   -1.0740 C   0  0  0  0  0  0  0  0  0  0  0  0
    1.6536   -0.9797   -1.1002 O   0  0  0  0  0  0  0  0  0  0  0  0
   -0.0451    0.0167   -2.1886 N   0  0  0  0  0  0  0  0  0  0  0  0
   -0.9177    0.5125   -2.0835 H   0  0  0  0  0  0  0  0  0  0  0  0
    0.5384   -0.0757   -3.5245 C   0  0  0  0  0  0  0  0  0  0  0  0
    0.8640   -1.0999   -3.7140 H   0  0  0  0  0  0  0  0  0  0  0  0
   -0.1957    0.2185   -4.2759 H   0  0  0  0  0  0  0  0  0  0  0  0
    1.4054    0.5847   -3.5875 H   0  0  0  0  0  0  0  0  0  0  0  0
  5  6  2  0  0  0  0
  5  7  1  0  0  0  0
  2  3  1  0  0  0  0
  2  4  1  0  0  0  0
  2  5  1  0  0  0  0
  1  2  1  0  0  0  0
 20 21  2  0  0  0  0
 20 22  1  0  0  0  0
 17 18  1  0  0  0  0
 17 19  2  0  0  0  0
 14 15  1  0  0  0  0
 14 16  1  0  0  0  0
 14 17  1  0  0  0  0
 11 12  1  0  0  0  0
 11 13  1  0  0  0  0
 11 14  1  0  0  0  0
  9 10  1  0  0  0  0
  9 11  1  0  0  0  0
  9 20  1  0  0  0  0
  7  8  1  0  0  0  0
  7  9  1  0  0  0  0
 24 25  1  0  0  0  0
 24 26  1  0  0  0  0
 24 27  1  0  0  0  0
 22 23  1  0  0  0  0
 22 24  1  0  0  0  0
M  CHG  1  18  -1
M  END
$$$$
default_name
  -OEChem-01062215323D

 27 26  0     1  0  0  0  0  0999 V2000
   -3.2406   -3.5400    1.2326 H   0  0  0  0  0  0  0  0  0  0  0  0
   -3.1436   -2.6190    0.6606 C   0  0  0  0  0  0  0  0  0  0  0  0
   -3.8786   -1.8920    0.9996 H   0  0  0  0  0  0  0  0  0  0  0  0
   -3.2846   -2.8280   -0.3984 H   0  0  0  0  0  0  0  0  0  0  0  0
   -1.7586   -2.0580    0.8686 C   0  0  0  0  0  0  0  0  0  0  0  0
   -0.9666   -2.6340    1.6026 O   0  0  0  0  0  0  0  0  0  0  0  0
   -1.4866   -0.9220    0.2366 N   0  0  0  0  0  0  0  0  0  0  0  0
   -2.2166   -0.4790   -0.2994 H   0  0  0  0  0  0  0  0  0  0  0  0
   -0.1956   -0.2250    0.2596 C   0  0  1  0  0  0  0  0  0  0  0  0
   -0.3754    0.8437    0.3792 H   0  0  0  0  0  0  0  0  0  0  0  0
    0.6135   -0.7001    1.4833 C   0  0  0  0  0  0  0  0  0  0  0  0
    0.6606   -1.7898    1.4528 H   0  0  0  0  0  0  0  0  0  0  0  0
    1.6299   -0.3092    1.4169 H   0  0  0  0  0  0  0  0  0  0  0  0
   -0.0032   -0.2762    2.8270 C   0  0  0  0  0  0  0  0  0  0  0  0
   -0.0612    0.8142    2.8654 H   0  0  0  0  0  0  0  0  0  0  0  0
   -1.0219   -0.6699    2.8762 H   0  0  0  0  0  0  0  0  0  0  0  0
    0.7902   -0.7707    4.0456 C   0  0  0  0  0  0  0  0  0  0  0  0
    1.7462   -1.5552    3.8535 O   0  5  0  0  0  0  0  0  0  0  0  0
    0.4366   -0.3296    5.1618 O   0  0  0  0  0  0  0  0  0  0  0  0
    0.5552   -0.4207   -1.0740 C   0  0  0  0  0  0  0  0  0  0  0  0
    1.5024   -1.2058   -1.1522 O   0  0  0  0  0  0  0  0  0  0  0  0
    0.1200    0.2738   -2.1334 N   0  0  0  0  0  0  0  0  0  0  0  0
   -0.6250    0.9372   -1.9810 H   0  0  0  0  0  0  0  0  0  0  0  0
    0.7308    0.2160   -3.4589 C   0  0  0  0  0  0  0  0  0  0  0  0
    0.8300   -0.8242   -3.7737 H   0  0  0  0  0  0  0  0  0  0  0  0
    0.1165    0.7580   -4.1793 H   0  0  0  0  0  0  0  0  0  0  0  0
    1.7247    0.6661   -3.4198 H   0  0  0  0  0  0  0  0  0  0  0  0
  5  6  2  0  0  0  0
  5  7  1  0  0  0  0
  2  3  1  0  0  0  0
  2  4  1  0  0  0  0
  2  5  1  0  0  0  0
  1  2  1  0  0  0  0
 20 21  2  0  0  0  0
 20 22  1  0  0  0  0
 17 18  1  0  0  0  0
 17 19  2  0  0  0  0
 14 15  1  0  0  0  0
 14 16  1  0  0  0  0
 14 17  1  0  0  0  0
 11 12  1  0  0  0  0
 11 13  1  0  0  0  0
 11 14  1  0  0  0  0
  9 10  1  0  0  0  0
  9 11  1  0  0  0  0
  9 20  1  0  0  0  0
  7  8  1  0  0  0  0
  7  9  1  0  0  0  0
 24 25  1  0  0  0  0
 24 26  1  0  0  0  0
 24 27  1  0  0  0  0
 22 23  1  0  0  0  0
 22 24  1  0  0  0  0
M  CHG  1  18  -1
M  END
$$$$
default_name
  -OEChem-01062215323D

 27 26  0     1  0  0  0  0  0999 V2000
   -3.2406   -3.5400    1.2326 H   0  0  0  0  0  0  0  0  0  0  0  0
   -3.1436   -2.6190    0.6606 C   0  0  0  0  0  0  0  0  0  0  0  0
   -3.8786   -1.8920    0.9996 H   0  0  0  0  0  0  0  0  0  0  0  0
   -3.2846   -2.8280   -0.3984 H   0  0  0  0  0  0  0  0  0  0  0  0
   -1.7586   -2.0580    0.8686 C   0  0  0  0  0  0  0  0  0  0  0  0
   -0.9666   -2.6340    1.6026 O   0  0  0  0  0  0  0  0  0  0  0  0
   -1.4866   -0.9220    0.2366 N   0  0  0  0  0  0  0  0  0  0  0  0
   -2.2166   -0.4790   -0.2994 H   0  0  0  0  0  0  0  0  0  0  0  0
   -0.1956   -0.2250    0.2596 C   0  0  1  0  0  0  0  0  0  0  0  0
   -0.3754    0.8437    0.3792 H   0  0  0  0  0  0  0  0  0  0  0  0
    0.6135   -0.7001    1.4833 C   0  0  0  0  0  0  0  0  0  0  0  0
    0.6606   -1.7898    1.4528 H   0  0  0  0  0  0  0  0  0  0  0  0
    1.6299   -0.3092    1.4169 H   0  0  0  0  0  0  0  0  0  0  0  0
   -0.0032   -0.2762    2.8270 C   0  0  0  0  0  0  0  0  0  0  0  0
   -0.0612    0.8142    2.8654 H   0  0  0  0  0  0  0  0  0  0  0  0
   -1.0219   -0.6699    2.8762 H   0  0  0  0  0  0  0  0  0  0  0  0
    0.7902   -0.7707    4.0456 C   0  0  0  0  0  0  0  0  0  0  0  0
    1.7462   -1.5552    3.8535 O   0  5  0  0  0  0  0  0  0  0  0  0
    0.4366   -0.3296    5.1618 O   0  0  0  0  0  0  0  0  0  0  0  0
    0.5552   -0.4207   -1.0740 C   0  0  0  0  0  0  0  0  0  0  0  0
    1.3075   -1.3838   -1.2358 O   0  0  0  0  0  0  0  0  0  0  0  0
    0.3352    0.4782   -2.0422 N   0  0  0  0  0  0  0  0  0  0  0  0
   -0.2507    1.2691   -1.8190 H   0  0  0  0  0  0  0  0  0  0  0  0
    0.9798    0.4465   -3.3526 C   0  0  0  0  0  0  0  0  0  0  0  0
    0.8607   -0.5428   -3.7976 H   0  0  0  0  0  0  0  0  0  0  0  0
    0.5355    1.1970   -4.0078 H   0  0  0  0  0  0  0  0  0  0  0  0
    2.0457    0.6523   -3.2370 H   0  0  0  0  0  0  0  0  0  0  0  0
  5  6  2  0  0  0  0
  5  7  1  0  0  0  0
  2  3  1  0  0  0  0
  2  4  1  0  0  0  0
  2  5  1  0  0  0  0
  1  2  1  0  0  0  0
 20 21  2  0  0  0  0
 20 22  1  0  0  0  0
 17 18  1  0  0  0  0
 17 19  2  0  0  0  0
 14 15  1  0  0  0  0
 14 16  1  0  0  0  0
 14 17  1  0  0  0  0
 11 12  1  0  0  0  0
 11 13  1  0  0  0  0
 11 14  1  0  0  0  0
  9 10  1  0  0  0  0
  9 11  1  0  0  0  0
  9 20  1  0  0  0  0
  7  8  1  0  0  0  0
  7  9  1  0  0  0  0
 24 25  1  0  0  0  0
 24 26  1  0  0  0  0
 24 27  1  0  0  0  0
 22 23  1  0  0  0  0
 22 24  1  0  0  0  0
M  CHG  1  18  -1
M  END
$$$$
default_name
  -OEChem-01062215323D

 27 26  0     1  0  0  0  0  0999 V2000
   -3.2406   -3.5400    1.2326 H   0  0  0  0  0  0  0  0  0  0  0  0
   -3.1436   -2.6190    0.6606 C   0  0  0  0  0  0  0  0  0  0  0  0
   -3.8786   -1.8920    0.9996 H   0  0  0  0  0  0  0  0  0  0  0  0
   -3.2846   -2.8280   -0.3984 H   0  0  0  0  0  0  0  0  0  0  0  0
   -1.7586   -2.0580    0.8686 C   0  0  0  0  0  0  0  0  0  0  0  0
   -0.9666   -2.6340    1.6026 O   0  0  0  0  0  0  0  0  0  0  0  0
   -1.4866   -0.9220    0.2366 N   0  0  0  0  0  0  0  0  0  0  0  0
   -2.2166   -0.4790   -0.2994 H   0  0  0  0  0  0  0  0  0  0  0  0
   -0.1956   -0.2250    0.2596 C   0  0  1  0  0  0  0  0  0  0  0  0
   -0.3754    0.8437    0.3792 H   0  0  0  0  0  0  0  0  0  0  0  0
    0.6135   -0.7001    1.4833 C   0  0  0  0  0  0  0  0  0  0  0  0
    0.6606   -1.7898    1.4528 H   0  0  0  0  0  0  0  0  0  0  0  0
    1.6299   -0.3092    1.4169 H   0  0  0  0  0  0  0  0  0  0  0  0
   -0.0032   -0.2762    2.8270 C   0  0  0  0  0  0  0  0  0  0  0  0
   -0.0612    0.8142    2.8654 H   0  0  0  0  0  0  0  0  0  0  0  0
   -1.0219   -0.6699    2.8762 H   0  0  0  0  0  0  0  0  0  0  0  0
    0.7902   -0.7707    4.0456 C   0  0  0  0  0  0  0  0  0  0  0  0
    1.7462   -1.5552    3.8535 O   0  5  0  0  0  0  0  0  0  0  0  0
    0.4366   -0.3296    5.1618 O   0  0  0  0  0  0  0  0  0  0  0  0
    0.5552   -0.4207   -1.0740 C   0  0  0  0  0  0  0  0  0  0  0  0
    1.0821   -1.5016   -1.3454 O   0  0  0  0  0  0  0  0  0  0  0  0
    0.5858    0.6161   -1.9214 N   0  0  0  0  0  0  0  0  0  0  0  0
    0.1799    1.4854   -1.6083 H   0  0  0  0  0  0  0  0  0  0  0  0
    1.2684    0.6000   -3.2126 C   0  0  0  0  0  0  0  0  0  0  0  0
    0.9541   -0.2748   -3.7844 H   0  0  0  0  0  0  0  0  0  0  0  0
    1.0329    1.5058   -3.7731 H   0  0  0  0  0  0  0  0  0  0  0  0
    2.3467    0.5441   -3.0517 H   0  0  0  0  0  0  0  0  0  0  0  0
  5  6  2  0  0  0  0
  5  7  1  0  0  0  0
  2  3  1  0  0  0  0
  2  4  1  0  0  0  0
  2  5  1  0  0  0  0
  1  2  1  0  0  0  0
 20 21  2  0  0  0  0
 20 22  1  0  0  0  0
 17 18  1  0  0  0  0
 17 19  2  0  0  0  0
 14 15  1  0  0  0  0
 14 16  1  0  0  0  0
 14 17  1  0  0  0  0
 11 12  1  0  0  0  0
 11 13  1  0  0  0  0
 11 14  1  0  0  0  0
  9 10  1  0  0  0  0
  9 11  1  0  0  0  0
  9 20  1  0  0  0  0
  7  8  1  0  0  0  0
  7  9  1  0  0  0  0
 24 25  1  0  0  0  0
 24 26  1  0  0  0  0
 24 27  1  0  0  0  0
 22 23  1  0  0  0  0
 22 24  1  0  0  0  0
M  CHG  1  18  -1
M  END
$$$$
default_name
  -OEChem-01062215323D

 27 26  0     1  0  0  0  0  0999 V2000
   -3.2406   -3.5400    1.2326 H   0  0  0  0  0  0  0  0  0  0  0  0
   -3.1436   -2.6190    0.6606 C   0  0  0  0  0  0  0  0  0  0  0  0
   -3.8786   -1.8920    0.9996 H   0  0  0  0  0  0  0  0  0  0  0  0
   -3.2846   -2.8280   -0.3984 H   0  0  0  0  0  0  0  0  0  0  0  0
   -1.7586   -2.0580    0.8686 C   0  0  0  0  0  0  0  0  0  0  0  0
   -0.9666   -2.6340    1.6026 O   0  0  0  0  0  0  0  0  0  0  0  0
   -1.4866   -0.9220    0.2366 N   0  0  0  0  0  0  0  0  0  0  0  0
   -2.2166   -0.4790   -0.2994 H   0  0  0  0  0  0  0  0  0  0  0  0
   -0.1956   -0.2250    0.2596 C   0  0  1  0  0  0  0  0  0  0  0  0
   -0.3754    0.8437    0.3792 H   0  0  0  0  0  0  0  0  0  0  0  0
    0.6135   -0.7001    1.4833 C   0  0  0  0  0  0  0  0  0  0  0  0
    0.6606   -1.7898    1.4528 H   0  0  0  0  0  0  0  0  0  0  0  0
    1.6299   -0.3092    1.4169 H   0  0  0  0  0  0  0  0  0  0  0  0
   -0.0032   -0.2762    2.8270 C   0  0  0  0  0  0  0  0  0  0  0  0
   -0.0612    0.8142    2.8654 H   0  0  0  0  0  0  0  0  0  0  0  0
   -1.0219   -0.6699    2.8762 H   0  0  0  0  0  0  0  0  0  0  0  0
    0.7902   -0.7707    4.0456 C   0  0  0  0  0  0  0  0  0  0  0  0
    1.7462   -1.5552    3.8535 O   0  5  0  0  0  0  0  0  0  0  0  0
    0.4366   -0.3296    5.1618 O   0  0  0  0  0  0  0  0  0  0  0  0
    0.5552   -0.4207   -1.0740 C   0  0  0  0  0  0  0  0  0  0  0  0
    0.8417   -1.5512   -1.4735 O   0  0  0  0  0  0  0  0  0  0  0  0
    0.8547    0.6780   -1.7791 N   0  0  0  0  0  0  0  0  0  0  0  0
    0.6373    1.5716   -1.3635 H   0  0  0  0  0  0  0  0  0  0  0  0
    1.5769    0.6661   -3.0486 C   0  0  0  0  0  0  0  0  0  0  0  0
    1.1039   -0.0385   -3.7347 H   0  0  0  0  0  0  0  0  0  0  0  0
    1.5747    1.6632   -3.4912 H   0  0  0  0  0  0  0  0  0  0  0  0
    2.6072    0.3489   -2.8764 H   0  0  0  0  0  0  0  0  0  0  0  0
  5  6  2  0  0  0  0
  5  7  1  0  0  0  0
  2  3  1  0  0  0  0
  2  4  1  0  0  0  0
  2  5  1  0  0  0  0
  1  2  1  0  0  0  0
 20 21  2  0  0  0  0
 20 22  1  0  0  0  0
 17 18  1  0  0  0  0
 17 19  2  0  0  0  0
 14 15  1  0  0  0  0
 14 16  1  0  0  0  0
 14 17  1  0  0  0  0
 11 12  1  0  0  0  0
 11 13  1  0  0  0  0
 11 14  1  0  0  0  0
  9 10  1  0  0  0  0
  9 11  1  0  0  0  0
  9 20  1  0  0  0  0
  7  8  1  0  0  0  0
  7  9  1  0  0  0  0
 24 25  1  0  0  0  0
 24 26  1  0  0  0  0
 24 27  1  0  0  0  0
 22 23  1  0  0  0  0
 22 24  1  0  0  0  0
M  CHG  1  18  -1
M  END
$$$$
default_name
  -OEChem-01062215323D

 27 26  0     1  0  0  0  0  0999 V2000
   -3.2406   -3.5400    1.2326 H   0  0  0  0  0  0  0  0  0  0  0  0
   -3.1436   -2.6190    0.6606 C   0  0  0  0  0  0  0  0  0  0  0  0
   -3.8786   -1.8920    0.9996 H   0  0  0  0  0  0  0  0  0  0  0  0
   -3.2846   -2.8280   -0.3984 H   0  0  0  0  0  0  0  0  0  0  0  0
   -1.7586   -2.0580    0.8686 C   0  0  0  0  0  0  0  0  0  0  0  0
   -0.9666   -2.6340    1.6026 O   0  0  0  0  0  0  0  0  0  0  0  0
   -1.4866   -0.9220    0.2366 N   0  0  0  0  0  0  0  0  0  0  0  0
   -2.2166   -0.4790   -0.2994 H   0  0  0  0  0  0  0  0  0  0  0  0
   -0.1956   -0.2250    0.2596 C   0  0  1  0  0  0  0  0  0  0  0  0
   -0.3754    0.8437    0.3792 H   0  0  0  0  0  0  0  0  0  0  0  0
    0.6135   -0.7001    1.4833 C   0  0  0  0  0  0  0  0  0  0  0  0
    0.6606   -1.7898    1.4528 H   0  0  0  0  0  0  0  0  0  0  0  0
    1.6299   -0.3092    1.4169 H   0  0  0  0  0  0  0  0  0  0  0  0
   -0.0032   -0.2762    2.8270 C   0  0  0  0  0  0  0  0  0  0  0  0
   -0.0612    0.8142    2.8654 H   0  0  0  0  0  0  0  0  0  0  0  0
   -1.0219   -0.6699    2.8762 H   0  0  0  0  0  0  0  0  0  0  0  0
    0.7902   -0.7707    4.0456 C   0  0  0  0  0  0  0  0  0  0  0  0
    1.7462   -1.5552    3.8535 O   0  5  0  0  0  0  0  0  0  0  0  0
    0.4366   -0.3296    5.1618 O   0  0  0  0  0  0  0  0  0  0  0  0
    0.5552   -0.4207   -1.0740 C   0  0  0  0  0  0  0  0  0  0  0  0
    0.6025   -1.5291   -1.6114 O   0  0  0  0  0  0  0  0  0  0  0  0
    1.1237    0.6597   -1.6250 N   0  0  0  0  0  0  0  0  0  0  0  0
    1.0903    1.5216   -1.1011 H   0  0  0  0  0  0  0  0  0  0  0  0
    1.8843    0.6403   -2.8718 C   0  0  0  0  0  0  0  0  0  0  0  0
    1.2997    0.1499   -3.6521 H   0  0  0  0  0  0  0  0  0  0  0  0
    2.1240    1.6586   -3.1813 H   0  0  0  0  0  0  0  0  0  0  0  0
    2.8094    0.0800   -2.7231 H   0  0  0  0  0  0  0  0  0  0  0  0
  5  6  2  0  0  0  0
  5  7  1  0  0  0  0
  2  3  1  0  0  0  0
  2  4  1  0  0  0  0
  2  5  1  0  0  0  0
  1  2  1  0  0  0  0
 20 21  2  0  0  0  0
 20 22  1  0  0  0  0
 17 18  1  0  0  0  0
 17 19  2  0  0  0  0
 14 15  1  0  0  0  0
 14 16  1  0  0  0  0
 14 17  1  0  0  0  0
 11 12  1  0  0  0  0
 11 13  1  0  0  0  0
 11 14  1  0  0  0  0
  9 10  1  0  0  0  0
  9 11  1  0  0  0  0
  9 20  1  0  0  0  0
  7  8  1  0  0  0  0
  7  9  1  0  0  0  0
 24 25  1  0  0  0  0
 24 26  1  0  0  0  0
 24 27  1  0  0  0  0
 22 23  1  0  0  0  0
 22 24  1  0  0  0  0
M  CHG  1  18  -1
M  END
$$$$
default_name
  -OEChem-01062215323D

 27 26  0     1  0  0  0  0  0999 V2000
   -3.2406   -3.5400    1.2326 H   0  0  0  0  0  0  0  0  0  0  0  0
   -3.1436   -2.6190    0.6606 C   0  0  0  0  0  0  0  0  0  0  0  0
   -3.8786   -1.8920    0.9996 H   0  0  0  0  0  0  0  0  0  0  0  0
   -3.2846   -2.8280   -0.3984 H   0  0  0  0  0  0  0  0  0  0  0  0
   -1.7586   -2.0580    0.8686 C   0  0  0  0  0  0  0  0  0  0  0  0
   -0.9666   -2.6340    1.6026 O   0  0  0  0  0  0  0  0  0  0  0  0
   -1.4866   -0.9220    0.2366 N   0  0  0  0  0  0  0  0  0  0  0  0
   -2.2166   -0.4790   -0.2994 H   0  0  0  0  0  0  0  0  0  0  0  0
   -0.1956   -0.2250    0.2596 C   0  0  1  0  0  0  0  0  0  0  0  0
   -0.3754    0.8437    0.3792 H   0  0  0  0  0  0  0  0  0  0  0  0
    0.6135   -0.7001    1.4833 C   0  0  0  0  0  0  0  0  0  0  0  0
    0.6606   -1.7898    1.4528 H   0  0  0  0  0  0  0  0  0  0  0  0
    1.6299   -0.3092    1.4169 H   0  0  0  0  0  0  0  0  0  0  0  0
   -0.0032   -0.2762    2.8270 C   0  0  0  0  0  0  0  0  0  0  0  0
   -0.0612    0.8142    2.8654 H   0  0  0  0  0  0  0  0  0  0  0  0
   -1.0219   -0.6699    2.8762 H   0  0  0  0  0  0  0  0  0  0  0  0
    0.7902   -0.7707    4.0456 C   0  0  0  0  0  0  0  0  0  0  0  0
    1.7462   -1.5552    3.8535 O   0  5  0  0  0  0  0  0  0  0  0  0
    0.4366   -0.3296    5.1618 O   0  0  0  0  0  0  0  0  0  0  0  0
    0.5552   -0.4207   -1.0740 C   0  0  0  0  0  0  0  0  0  0  0  0
    0.3810   -1.4370   -1.7496 O   0  0  0  0  0  0  0  0  0  0  0  0
    1.3743    0.5625   -1.4696 N   0  0  0  0  0  0  0  0  0  0  0  0
    1.5081    1.3390   -0.8391 H   0  0  0  0  0  0  0  0  0  0  0  0
    2.1696    0.5243   -2.6942 C   0  0  0  0  0  0  0  0  0  0  0  0
    1.5284    0.2778   -3.5421 H   0  0  0  0  0  0  0  0  0  0  0  0
    2.6433    1.4921   -2.8645 H   0  0  0  0  0  0  0  0  0  0  0  0
    2.9395   -0.2442   -2.6023 H   0  0  0  0  0  0  0  0  0  0  0  0
  5  6  2  0  0  0  0
  5  7  1  0  0  0  0
  2  3  1  0  0  0  0
  2  4  1  0  0  0  0
  2  5  1  0  0  0  0
  1  2  1  0  0  0  0
 20 21  2  0  0  0  0
 20 22  1  0  0  0  0
 17 18  1  0  0  0  0
 17 19  2  0  0  0  0
 14 15  1  0  0  0  0
 14 16  1  0  0  0  0
 14 17  1  0  0  0  0
 11 12  1  0  0  0  0
 11 13  1  0  0  0  0
 11 14  1  0  0  0  0
  9 10  1  0  0  0  0
  9 11  1  0  0  0  0
  9 20  1  0  0  0  0
  7  8  1  0  0  0  0
  7  9  1  0  0  0  0
 24 25  1  0  0  0  0
 24 26  1  0  0  0  0
 24 27  1  0  0  0  0
 22 23  1  0  0  0  0
 22 24  1  0  0  0  0
M  CHG  1  18  -1
M  END
$$$$
default_name
  -OEChem-01062215323D

 27 26  0     1  0  0  0  0  0999 V2000
   -3.2406   -3.5400    1.2326 H   0  0  0  0  0  0  0  0  0  0  0  0
   -3.1436   -2.6190    0.6606 C   0  0  0  0  0  0  0  0  0  0  0  0
   -3.8786   -1.8920    0.9996 H   0  0  0  0  0  0  0  0  0  0  0  0
   -3.2846   -2.8280   -0.3984 H   0  0  0  0  0  0  0  0  0  0  0  0
   -1.7586   -2.0580    0.8686 C   0  0  0  0  0  0  0  0  0  0  0  0
   -0.9666   -2.6340    1.6026 O   0  0  0  0  0  0  0  0  0  0  0  0
   -1.4866   -0.9220    0.2366 N   0  0  0  0  0  0  0  0  0  0  0  0
   -2.2166   -0.4790   -0.2994 H   0  0  0  0  0  0  0  0  0  0  0  0
   -0.1956   -0.2250    0.2596 C   0  0  1  0  0  0  0  0  0  0  0  0
   -0.3754    0.8437    0.3792 H   0  0  0  0  0  0  0  0  0  0  0  0
    0.6135   -0.7001    1.4833 C   0  0  0  0  0  0  0  0  0  0  0  0
    0.6606   -1.7898    1.4528 H   0  0  0  0  0  0  0  0  0  0  0  0
    1.6299   -0.3092    1.4169 H   0  0  0  0  0  0  0  0  0  0  0  0
   -0.0032   -0.2762    2.8270 C   0  0  0  0  0  0  0  0  0  0  0  0
   -0.0612    0.8142    2.8654 H   0  0  0  0  0  0  0  0  0  0  0  0
   -1.0219   -0.6699    2.8762 H   0  0  0  0  0  0  0  0  0  0  0  0
    0.7902   -0.7707    4.0456 C   0  0  0  0  0  0  0  0  0  0  0  0
    1.7462   -1.5552    3.8535 O   0  5  0  0  0  0  0  0  0  0  0  0
    0.4366   -0.3296    5.1618 O   0  0  0  0  0  0  0  0  0  0  0  0
    0.5552   -0.4207   -1.0740 C   0  0  0  0  0  0  0  0  0  0  0  0
    0.1922   -1.2810   -1.8788 O   0  0  0  0  0  0  0  0  0  0  0  0
    1.5895    0.3929   -1.3236 N   0  0  0  0  0  0  0  0  0  0  0  0
    1.8622    1.0361   -0.5953 H   0  0  0  0  0  0  0  0  0  0  0  0
    2.4134    0.3261   -2.5278 C   0  0  0  0  0  0  0  0  0  0  0  0
    1.7743    0.3362   -3.4123 H   0  0  0  0  0  0  0  0  0  0  0  0
    3.0973    1.1753   -2.5624 H   0  0  0  0  0  0  0  0  0  0  0  0
    2.9887   -0.6018   -2.5222 H   0  0  0  0  0  0  0  0  0  0  0  0
  5  6  2  0  0  0  0
  5  7  1  0  0  0  0
  2  3  1  0  0  0  0
  2  4  1  0  0  0  0
  2  5  1  0  0  0  0
  1  2  1  0  0  0  0
 20 21  2  0  0  0  0
 20 22  1  0  0  0  0
 17 18  1  0  0  0  0
 17 19  2  0  0  0  0
 14 15  1  0  0  0  0
 14 16  1  0  0  0  0
 14 17  1  0  0  0  0
 11 12  1  0  0  0  0
 11 13  1  0  0  0  0
 11 14  1  0  0  0  0
  9 10  1  0  0  0  0
  9 11  1  0  0  0  0
  9 20  1  0  0  0  0
  7  8  1  0  0  0  0
  7  9  1  0  0  0  0
 24 25  1  0  0  0  0
 24 26  1  0  0  0  0
 24 27  1  0  0  0  0
 22 23  1  0  0  0  0
 22 24  1  0  0  0  0
M  CHG  1  18  -1
M  END
$$$$
default_name
  -OEChem-01062215323D

 27 26  0     1  0  0  0  0  0999 V2000
   -3.2406   -3.5400    1.2326 H   0  0  0  0  0  0  0  0  0  0  0  0
   -3.1436   -2.6190    0.6606 C   0  0  0  0  0  0  0  0  0  0  0  0
   -3.8786   -1.8920    0.9996 H   0  0  0  0  0  0  0  0  0  0  0  0
   -3.2846   -2.8280   -0.3984 H   0  0  0  0  0  0  0  0  0  0  0  0
   -1.7586   -2.0580    0.8686 C   0  0  0  0  0  0  0  0  0  0  0  0
   -0.9666   -2.6340    1.6026 O   0  0  0  0  0  0  0  0  0  0  0  0
   -1.4866   -0.9220    0.2366 N   0  0  0  0  0  0  0  0  0  0  0  0
   -2.2166   -0.4790   -0.2994 H   0  0  0  0  0  0  0  0  0  0  0  0
   -0.1956   -0.2250    0.2596 C   0  0  1  0  0  0  0  0  0  0  0  0
   -0.3483    0.7850    0.6408 H   0  0  0  0  0  0  0  0  0  0  0  0
    0.7535   -0.9511    1.2343 C   0  0  0  0  0  0  0  0  0  0  0  0
    0.7853   -2.0042    0.9506 H   0  0  0  0  0  0  0  0  0  0  0  0
    1.7578   -0.5368    1.1347 H   0  0  0  0  0  0  0  0  0  0  0  0
    0.3116   -0.8554    2.7043 C   0  0  0  0  0  0  0  0  0  0  0  0
    0.2699    0.1965    2.9971 H   0  0  0  0  0  0  0  0  0  0  0  0
   -0.6972   -1.2685    2.7869 H   0  0  0  0  0  0  0  0  0  0  0  0
    1.2443   -1.5994    3.6715 C   0  0  0  0  0  0  0  0  0  0  0  0
    2.1613   -2.3021    3.1901 O   0  5  0  0  0  0  0  0  0  0  0  0
    1.0357   -1.4304    4.8935 O   0  0  0  0  0  0  0  0  0  0  0  0
    0.3829   -0.0984   -1.1651 C   0  0  0  0  0  0  0  0  0  0  0  0
   -0.2393   -0.5332   -2.1365 O   0  0  0  0  0  0  0  0  0  0  0  0
    1.5639    0.5193   -1.2977 N   0  0  0  0  0  0  0  0  0  0  0  0
    2.0396    0.8005   -0.4532 H   0  0  0  0  0  0  0  0  0  0  0  0
    2.2543    0.7041   -2.5715 C   0  0  0  0  0  0  0  0  0  0  0  0
    1.5733    1.1507   -3.2980 H   0  0  0  0  0  0  0  0  0  0  0  0
    3.1214    1.3525   -2.4380 H   0  0  0  0  0  0  0  0  0  0  0  0
    2.5826   -0.2660   -2.9497 H   0  0  0  0  0  0  0  0  0  0  0  0
  5  6  2  0  0  0  0
  5  7  1  0  0  0  0
  2  3  1  0  0  0  0
  2  4  1  0  0  0  0
  2  5  1  0  0  0  0
  1  2  1  0  0  0  0
 20 21  2  0  0  0  0
 20 22  1  0  0  0  0
 17 18  1  0  0  0  0
 17 19  2  0  0  0  0
 14 15  1  0  0  0  0
 14 16  1  0  0  0  0
 14 17  1  0  0  0  0
 11 12  1  0  0  0  0
 11 13  1  0  0  0  0
 11 14  1  0  0  0  0
  9 10  1  0  0  0  0
  9 11  1  0  0  0  0
  9 20  1  0  0  0  0
  7  8  1  0  0  0  0
  7  9  1  0  0  0  0
 24 25  1  0  0  0  0
 24 26  1  0  0  0  0
 24 27  1  0  0  0  0
 22 23  1  0  0  0  0
 22 24  1  0  0  0  0
M  CHG  1  18  -1
M  END
$$$$
default_name
  -OEChem-01062215323D

 27 26  0     1  0  0  0  0  0999 V2000
   -3.2406   -3.5400    1.2326 H   0  0  0  0  0  0  0  0  0  0  0  0
   -3.1436   -2.6190    0.6606 C   0  0  0  0  0  0  0  0  0  0  0  0
   -3.8786   -1.8920    0.9996 H   0  0  0  0  0  0  0  0  0  0  0  0
   -3.2846   -2.8280   -0.3984 H   0  0  0  0  0  0  0  0  0  0  0  0
   -1.7586   -2.0580    0.8686 C   0  0  0  0  0  0  0  0  0  0  0  0
   -0.9666   -2.6340    1.6026 O   0  0  0  0  0  0  0  0  0  0  0  0
   -1.4866   -0.9220    0.2366 N   0  0  0  0  0  0  0  0  0  0  0  0
   -2.2166   -0.4790   -0.2994 H   0  0  0  0  0  0  0  0  0  0  0  0
   -0.1956   -0.2250    0.2596 C   0  0  1  0  0  0  0  0  0  0  0  0
   -0.3483    0.7850    0.6408 H   0  0  0  0  0  0  0  0  0  0  0  0
    0.7535   -0.9511    1.2343 C   0  0  0  0  0  0  0  0  0  0  0  0
    0.7853   -2.0042    0.9506 H   0  0  0  0  0  0  0  0  0  0  0  0
    1.7578   -0.5368    1.1347 H   0  0  0  0  0  0  0  0  0  0  0  0
    0.3116   -0.8554    2.7043 C   0  0  0  0  0  0  0  0  0  0  0  0
    0.2699    0.1965    2.9971 H   0  0  0  0  0  0  0  0  0  0  0  0
   -0.6972   -1.2685    2.7869 H   0  0  0  0  0  0  0  0  0  0  0  0
    1.2443   -1.5994    3.6715 C   0  0  0  0  0  0  0  0  0  0  0  0
    2.1613   -2.3021    3.1901 O   0  5  0  0  0  0  0  0  0  0  0  0
    1.0357   -1.4304    4.8935 O   0  0  0  0  0  0  0  0  0  0  0  0
    0.3829   -0.0984   -1.1651 C   0  0  0  0  0  0  0  0  0  0  0  0
   -0.3346   -0.2737   -2.1521 O   0  0  0  0  0  0  0  0  0  0  0  0
    1.6764    0.2306   -1.2777 N   0  0  0  0  0  0  0  0  0  0  0  0
    2.2136    0.3049   -0.4266 H   0  0  0  0  0  0  0  0  0  0  0  0
    2.3788    0.3718   -2.5505 C   0  0  0  0  0  0  0  0  0  0  0  0
    1.8181    1.0376   -3.2086 H   0  0  0  0  0  0  0  0  0  0  0  0
    3.3775    0.7786   -2.3850 H   0  0  0  0  0  0  0  0  0  0  0  0
    2.4611   -0.6060   -3.0292 H   0  0  0  0  0  0  0  0  0  0  0  0
  5  6  2  0  0  0  0
  5  7  1  0  0  0  0
  2  3  1  0  0  0  0
  2  4  1  0  0  0  0
  2  5  1  0  0  0  0
  1  2  1  0  0  0  0
 20 21  2  0  0  0  0
 20 22  1  0  0  0  0
 17 18  1  0  0  0  0
 17 19  2  0  0  0  0
 14 15  1  0  0  0  0
 14 16  1  0  0  0  0
 14 17  1  0  0  0  0
 11 12  1  0  0  0  0
 11 13  1  0  0  0  0
 11 14  1  0  0  0  0
  9 10  1  0  0  0  0
  9 11  1  0  0  0  0
  9 20  1  0  0  0  0
  7  8  1  0  0  0  0
  7  9  1  0  0  0  0
 24 25  1  0  0  0  0
 24 26  1  0  0  0  0
 24 27  1  0  0  0  0
 22 23  1  0  0  0  0
 22 24  1  0  0  0  0
M  CHG  1  18  -1
M  END
$$$$
default_name
  -OEChem-01062215323D

 27 26  0     1  0  0  0  0  0999 V2000
   -3.2406   -3.5400    1.2326 H   0  0  0  0  0  0  0  0  0  0  0  0
   -3.1436   -2.6190    0.6606 C   0  0  0  0  0  0  0  0  0  0  0  0
   -3.8786   -1.8920    0.9996 H   0  0  0  0  0  0  0  0  0  0  0  0
   -3.2846   -2.8280   -0.3984 H   0  0  0  0  0  0  0  0  0  0  0  0
   -1.7586   -2.0580    0.8686 C   0  0  0  0  0  0  0  0  0  0  0  0
   -0.9666   -2.6340    1.6026 O   0  0  0  0  0  0  0  0  0  0  0  0
   -1.4866   -0.9220    0.2366 N   0  0  0  0  0  0  0  0  0  0  0  0
   -2.2166   -0.4790   -0.2994 H   0  0  0  0  0  0  0  0  0  0  0  0
   -0.1956   -0.2250    0.2596 C   0  0  1  0  0  0  0  0  0  0  0  0
   -0.3483    0.7850    0.6408 H   0  0  0  0  0  0  0  0  0  0  0  0
    0.7535   -0.9511    1.2343 C   0  0  0  0  0  0  0  0  0  0  0  0
    0.7853   -2.0042    0.9506 H   0  0  0  0  0  0  0  0  0  0  0  0
    1.7578   -0.5368    1.1347 H   0  0  0  0  0  0  0  0  0  0  0  0
    0.3116   -0.8554    2.7043 C   0  0  0  0  0  0  0  0  0  0  0  0
    0.2699    0.1965    2.9971 H   0  0  0  0  0  0  0  0  0  0  0  0
   -0.6972   -1.2685    2.7869 H   0  0  0  0  0  0  0  0  0  0  0  0
    1.2443   -1.5994    3.6715 C   0  0  0  0  0  0  0  0  0  0  0  0
    2.1613   -2.3021    3.1901 O   0  5  0  0  0  0  0  0  0  0  0  0
    1.0357   -1.4304    4.8935 O   0  0  0  0  0  0  0  0  0  0  0  0
    0.3829   -0.0984   -1.1651 C   0  0  0  0  0  0  0  0  0  0  0  0
   -0.3650    0.0013   -2.1400 O   0  0  0  0  0  0  0  0  0  0  0  0
    1.7164   -0.0771   -1.2887 N   0  0  0  0  0  0  0  0  0  0  0  0
    2.2638   -0.2180   -0.4527 H   0  0  0  0  0  0  0  0  0  0  0  0
    2.4202    0.0189   -2.5650 C   0  0  0  0  0  0  0  0  0  0  0  0
    2.0295    0.8612   -3.1385 H   0  0  0  0  0  0  0  0  0  0  0  0
    3.4888    0.1578   -2.3950 H   0  0  0  0  0  0  0  0  0  0  0  0
    2.2608   -0.8976   -3.1364 H   0  0  0  0  0  0  0  0  0  0  0  0
  5  6  2  0  0  0  0
  5  7  1  0  0  0  0
  2  3  1  0  0  0  0
  2  4  1  0  0  0  0
  2  5  1  0  0  0  0
  1  2  1  0  0  0  0
 20 21  2  0  0  0  0
 20 22  1  0  0  0  0
 17 18  1  0  0  0  0
 17 19  2  0  0  0  0
 14 15  1  0  0  0  0
 14 16  1  0  0  0  0
 14 17  1  0  0  0  0
 11 12  1  0  0  0  0
 11 13  1  0  0  0  0
 11 14  1  0  0  0  0
  9 10  1  0  0  0  0
  9 11  1  0  0  0  0
  9 20  1  0  0  0  0
  7  8  1  0  0  0  0
  7  9  1  0  0  0  0
 24 25  1  0  0  0  0
 24 26  1  0  0  0  0
 24 27  1  0  0  0  0
 22 23  1  0  0  0  0
 22 24  1  0  0  0  0
M  CHG  1  18  -1
M  END
$$$$
default_name
  -OEChem-01062215323D

 27 26  0     1  0  0  0  0  0999 V2000
   -3.2406   -3.5400    1.2326 H   0  0  0  0  0  0  0  0  0  0  0  0
   -3.1436   -2.6190    0.6606 C   0  0  0  0  0  0  0  0  0  0  0  0
   -3.8786   -1.8920    0.9996 H   0  0  0  0  0  0  0  0  0  0  0  0
   -3.2846   -2.8280   -0.3984 H   0  0  0  0  0  0  0  0  0  0  0  0
   -1.7586   -2.0580    0.8686 C   0  0  0  0  0  0  0  0  0  0  0  0
   -0.9666   -2.6340    1.6026 O   0  0  0  0  0  0  0  0  0  0  0  0
   -1.4866   -0.9220    0.2366 N   0  0  0  0  0  0  0  0  0  0  0  0
   -2.2166   -0.4790   -0.2994 H   0  0  0  0  0  0  0  0  0  0  0  0
   -0.1956   -0.2250    0.2596 C   0  0  1  0  0  0  0  0  0  0  0  0
   -0.3483    0.7850    0.6408 H   0  0  0  0  0  0  0  0  0  0  0  0
    0.7535   -0.9511    1.2343 C   0  0  0  0  0  0  0  0  0  0  0  0
    0.7853   -2.0042    0.9506 H   0  0  0  0  0  0  0  0  0  0  0  0
    1.7578   -0.5368    1.1347 H   0  0  0  0  0  0  0  0  0  0  0  0
    0.3116   -0.8554    2.7043 C   0  0  0  0  0  0  0  0  0  0  0  0
    0.2699    0.1965    2.9971 H   0  0  0  0  0  0  0  0  0  0  0  0
   -0.6972   -1.2685    2.7869 H   0  0  0  0  0  0  0  0  0  0  0  0
    1.2443   -1.5994    3.6715 C   0  0  0  0  0  0  0  0  0  0  0  0
    2.1613   -2.3021    3.1901 O   0  5  0  0  0  0  0  0  0  0  0  0
    1.0357   -1.4304    4.8935 O   0  0  0  0  0  0  0  0  0  0  0  0
    0.3829   -0.0984   -1.1651 C   0  0  0  0  0  0  0  0  0  0  0  0
   -0.3283    0.2729   -2.1010 O   0  0  0  0  0  0  0  0  0  0  0  0
    1.6813   -0.3828   -1.3302 N   0  0  0  0  0  0  0  0  0  0  0  0
    2.1868   -0.7324   -0.5297 H   0  0  0  0  0  0  0  0  0  0  0  0
    2.3755   -0.3304   -2.6142 C   0  0  0  0  0  0  0  0  0  0  0  0
    2.1930    0.6335   -3.0923 H   0  0  0  0  0  0  0  0  0  0  0  0
    3.4477   -0.4674   -2.4672 H   0  0  0  0  0  0  0  0  0  0  0  0
    1.9954   -1.1210   -3.2641 H   0  0  0  0  0  0  0  0  0  0  0  0
  5  6  2  0  0  0  0
  5  7  1  0  0  0  0
  2  3  1  0  0  0  0
  2  4  1  0  0  0  0
  2  5  1  0  0  0  0
  1  2  1  0  0  0  0
 20 21  2  0  0  0  0
 20 22  1  0  0  0  0
 17 18  1  0  0  0  0
 17 19  2  0  0  0  0
 14 15  1  0  0  0  0
 14 16  1  0  0  0  0
 14 17  1  0  0  0  0
 11 12  1  0  0  0  0
 11 13  1  0  0  0  0
 11 14  1  0  0  0  0
  9 10  1  0  0  0  0
  9 11  1  0  0  0  0
  9 20  1  0  0  0  0
  7  8  1  0  0  0  0
  7  9  1  0  0  0  0
 24 25  1  0  0  0  0
 24 26  1  0  0  0  0
 24 27  1  0  0  0  0
 22 23  1  0  0  0  0
 22 24  1  0  0  0  0
M  CHG  1  18  -1
M  END
$$$$
default_name
  -OEChem-01062215323D

 27 26  0     1  0  0  0  0  0999 V2000
   -3.2406   -3.5400    1.2326 H   0  0  0  0  0  0  0  0  0  0  0  0
   -3.1436   -2.6190    0.6606 C   0  0  0  0  0  0  0  0  0  0  0  0
   -3.8786   -1.8920    0.9996 H   0  0  0  0  0  0  0  0  0  0  0  0
   -3.2846   -2.8280   -0.3984 H   0  0  0  0  0  0  0  0  0  0  0  0
   -1.7586   -2.0580    0.8686 C   0  0  0  0  0  0  0  0  0  0  0  0
   -0.9666   -2.6340    1.6026 O   0  0  0  0  0  0  0  0  0  0  0  0
   -1.4866   -0.9220    0.2366 N   0  0  0  0  0  0  0  0  0  0  0  0
   -2.2166   -0.4790   -0.2994 H   0  0  0  0  0  0  0  0  0  0  0  0
   -0.1956   -0.2250    0.2596 C   0  0  1  0  0  0  0  0  0  0  0  0
   -0.3483    0.7850    0.6408 H   0  0  0  0  0  0  0  0  0  0  0  0
    0.7535   -0.9511    1.2343 C   0  0  0  0  0  0  0  0  0  0  0  0
    0.7853   -2.0042    0.9506 H   0  0  0  0  0  0  0  0  0  0  0  0
    1.7578   -0.5368    1.1347 H   0  0  0  0  0  0  0  0  0  0  0  0
    0.3116   -0.8554    2.7043 C   0  0  0  0  0  0  0  0  0  0  0  0
    0.2699    0.1965    2.9971 H   0  0  0  0  0  0  0  0  0  0  0  0
   -0.6972   -1.2685    2.7869 H   0  0  0  0  0  0  0  0  0  0  0  0
    1.2443   -1.5994    3.6715 C   0  0  0  0  0  0  0  0  0  0  0  0
    2.1613   -2.3021    3.1901 O   0  5  0  0  0  0  0  0  0  0  0  0
    1.0357   -1.4304    4.8935 O   0  0  0  0  0  0  0  0  0  0  0  0
    0.3829   -0.0984   -1.1651 C   0  0  0  0  0  0  0  0  0  0  0  0
   -0.2272    0.5228   -2.0378 O   0  0  0  0  0  0  0  0  0  0  0  0
    1.5735   -0.6657   -1.3991 N   0  0  0  0  0  0  0  0  0  0  0  0
    1.9877   -1.2035   -0.6523 H   0  0  0  0  0  0  0  0  0  0  0  0
    2.2478   -0.6523   -2.6947 C   0  0  0  0  0  0  0  0  0  0  0  0
    2.2975    0.3700   -3.0733 H   0  0  0  0  0  0  0  0  0  0  0  0
    3.2571   -1.0545   -2.5968 H   0  0  0  0  0  0  0  0  0  0  0  0
    1.6829   -1.2610   -3.4034 H   0  0  0  0  0  0  0  0  0  0  0  0
  5  6  2  0  0  0  0
  5  7  1  0  0  0  0
  2  3  1  0  0  0  0
  2  4  1  0  0  0  0
  2  5  1  0  0  0  0
  1  2  1  0  0  0  0
 20 21  2  0  0  0  0
 20 22  1  0  0  0  0
 17 18  1  0  0  0  0
 17 19  2  0  0  0  0
 14 15  1  0  0  0  0
 14 16  1  0  0  0  0
 14 17  1  0  0  0  0
 11 12  1  0  0  0  0
 11 13  1  0  0  0  0
 11 14  1  0  0  0  0
  9 10  1  0  0  0  0
  9 11  1  0  0  0  0
  9 20  1  0  0  0  0
  7  8  1  0  0  0  0
  7  9  1  0  0  0  0
 24 25  1  0  0  0  0
 24 26  1  0  0  0  0
 24 27  1  0  0  0  0
 22 23  1  0  0  0  0
 22 24  1  0  0  0  0
M  CHG  1  18  -1
M  END
$$$$
default_name
  -OEChem-01062215323D

 27 26  0     1  0  0  0  0  0999 V2000
   -3.2406   -3.5400    1.2326 H   0  0  0  0  0  0  0  0  0  0  0  0
   -3.1436   -2.6190    0.6606 C   0  0  0  0  0  0  0  0  0  0  0  0
   -3.8786   -1.8920    0.9996 H   0  0  0  0  0  0  0  0  0  0  0  0
   -3.2846   -2.8280   -0.3984 H   0  0  0  0  0  0  0  0  0  0  0  0
   -1.7586   -2.0580    0.8686 C   0  0  0  0  0  0  0  0  0  0  0  0
   -0.9666   -2.6340    1.6026 O   0  0  0  0  0  0  0  0  0  0  0  0
   -1.4866   -0.9220    0.2366 N   0  0  0  0  0  0  0  0  0  0  0  0
   -2.2166   -0.4790   -0.2994 H   0  0  0  0  0  0  0  0  0  0  0  0
   -0.1956   -0.2250    0.2596 C   0  0  1  0  0  0  0  0  0  0  0  0
   -0.3483    0.7850    0.6408 H   0  0  0  0  0  0  0  0  0  0  0  0
    0.7535   -0.9511    1.2343 C   0  0  0  0  0  0  0  0  0  0  0  0
    0.7853   -2.0042    0.9506 H   0  0  0  0  0  0  0  0  0  0  0  0
    1.7578   -0.5368    1.1347 H   0  0  0  0  0  0  0  0  0  0  0  0
    0.3116   -0.8554    2.7043 C   0  0  0  0  0  0  0  0  0  0  0  0
    0.2699    0.1965    2.9971 H   0  0  0  0  0  0  0  0  0  0  0  0
   -0.6972   -1.2685    2.7869 H   0  0  0  0  0  0  0  0  0  0  0  0
    1.2443   -1.5994    3.6715 C   0  0  0  0  0  0  0  0  0  0  0  0
    2.1613   -2.3021    3.1901 O   0  5  0  0  0  0  0  0  0  0  0  0
    1.0357   -1.4304    4.8935 O   0  0  0  0  0  0  0  0  0  0  0  0
    0.3829   -0.0984   -1.1651 C   0  0  0  0  0  0  0  0  0  0  0  0
   -0.0684    0.7339   -1.9545 O   0  0  0  0  0  0  0  0  0  0  0  0
    1.4002   -0.9065   -1.4908 N   0  0  0  0  0  0  0  0  0  0  0  0
    1.6803   -1.5991   -0.8123 H   0  0  0  0  0  0  0  0  0  0  0  0
    2.0458   -0.9250   -2.8009 C   0  0  0  0  0  0  0  0  0  0  0  0
    2.3359    0.0886   -3.0828 H   0  0  0  0  0  0  0  0  0  0  0  0
    2.9299   -1.5634   -2.7748 H   0  0  0  0  0  0  0  0  0  0  0  0
    1.3446   -1.3081   -3.5449 H   0  0  0  0  0  0  0  0  0  0  0  0
  5  6  2  0  0  0  0
  5  7  1  0  0  0  0
  2  3  1  0  0  0  0
  2  4  1  0  0  0  0
  2  5  1  0  0  0  0
  1  2  1  0  0  0  0
 20 21  2  0  0  0  0
 20 22  1  0  0  0  0
 17 18  1  0  0  0  0
 17 19  2  0  0  0  0
 14 15  1  0  0  0  0
 14 16  1  0  0  0  0
 14 17  1  0  0  0  0
 11 12  1  0  0  0  0
 11 13  1  0  0  0  0
 11 14  1  0  0  0  0
  9 10  1  0  0  0  0
  9 11  1  0  0  0  0
  9 20  1  0  0  0  0
  7  8  1  0  0  0  0
  7  9  1  0  0  0  0
 24 25  1  0  0  0  0
 24 26  1  0  0  0  0
 24 27  1  0  0  0  0
 22 23  1  0  0  0  0
 22 24  1  0  0  0  0
M  CHG  1  18  -1
M  END
$$$$
default_name
  -OEChem-01062215323D

 27 26  0     1  0  0  0  0  0999 V2000
   -3.2406   -3.5400    1.2326 H   0  0  0  0  0  0  0  0  0  0  0  0
   -3.1436   -2.6190    0.6606 C   0  0  0  0  0  0  0  0  0  0  0  0
   -3.8786   -1.8920    0.9996 H   0  0  0  0  0  0  0  0  0  0  0  0
   -3.2846   -2.8280   -0.3984 H   0  0  0  0  0  0  0  0  0  0  0  0
   -1.7586   -2.0580    0.8686 C   0  0  0  0  0  0  0  0  0  0  0  0
   -0.9666   -2.6340    1.6026 O   0  0  0  0  0  0  0  0  0  0  0  0
   -1.4866   -0.9220    0.2366 N   0  0  0  0  0  0  0  0  0  0  0  0
   -2.2166   -0.4790   -0.2994 H   0  0  0  0  0  0  0  0  0  0  0  0
   -0.1956   -0.2250    0.2596 C   0  0  1  0  0  0  0  0  0  0  0  0
   -0.3483    0.7850    0.6408 H   0  0  0  0  0  0  0  0  0  0  0  0
    0.7535   -0.9511    1.2343 C   0  0  0  0  0  0  0  0  0  0  0  0
    0.7853   -2.0042    0.9506 H   0  0  0  0  0  0  0  0  0  0  0  0
    1.7578   -0.5368    1.1347 H   0  0  0  0  0  0  0  0  0  0  0  0
    0.3116   -0.8554    2.7043 C   0  0  0  0  0  0  0  0  0  0  0  0
    0.2699    0.1965    2.9971 H   0  0  0  0  0  0  0  0  0  0  0  0
   -0.6972   -1.2685    2.7869 H   0  0  0  0  0  0  0  0  0  0  0  0
    1.2443   -1.5994    3.6715 C   0  0  0  0  0  0  0  0  0  0  0  0
    2.1613   -2.3021    3.1901 O   0  5  0  0  0  0  0  0  0  0  0  0
    1.0357   -1.4304    4.8935 O   0  0  0  0  0  0  0  0  0  0  0  0
    0.3829   -0.0984   -1.1651 C   0  0  0  0  0  0  0  0  0  0  0  0
    0.1371    0.8918   -1.8571 O   0  0  0  0  0  0  0  0  0  0  0  0
    1.1734   -1.0888   -1.5991 N   0  0  0  0  0  0  0  0  0  0  0  0
    1.2854   -1.8922   -0.9987 H   0  0  0  0  0  0  0  0  0  0  0  0
    1.7832   -1.1297   -2.9257 C   0  0  0  0  0  0  0  0  0  0  0  0
    2.3055   -0.1914   -3.1200 H   0  0  0  0  0  0  0  0  0  0  0  0
    2.4885   -1.9596   -2.9893 H   0  0  0  0  0  0  0  0  0  0  0  0
    1.0036   -1.2589   -3.6790 H   0  0  0  0  0  0  0  0  0  0  0  0
  5  6  2  0  0  0  0
  5  7  1  0  0  0  0
  2  3  1  0  0  0  0
  2  4  1  0  0  0  0
  2  5  1  0  0  0  0
  1  2  1  0  0  0  0
 20 21  2  0  0  0  0
 20 22  1  0  0  0  0
 17 18  1  0  0  0  0
 17 19  2  0  0  0  0
 14 15  1  0  0  0  0
 14 16  1  0  0  0  0
 14 17  1  0  0  0  0
 11 12  1  0  0  0  0
 11 13  1  0  0  0  0
 11 14  1  0  0  0  0
  9 10  1  0  0  0  0
  9 11  1  0  0  0  0
  9 20  1  0  0  0  0
  7  8  1  0  0  0  0
  7  9  1  0  0  0  0
 24 25  1  0  0  0  0
 24 26  1  0  0  0  0
 24 27  1  0  0  0  0
 22 23  1  0  0  0  0
 22 24  1  0  0  0  0
M  CHG  1  18  -1
M  END
$$$$
default_name
  -OEChem-01062215323D

 27 26  0     1  0  0  0  0  0999 V2000
   -3.2406   -3.5400    1.2326 H   0  0  0  0  0  0  0  0  0  0  0  0
   -3.1436   -2.6190    0.6606 C   0  0  0  0  0  0  0  0  0  0  0  0
   -3.8786   -1.8920    0.9996 H   0  0  0  0  0  0  0  0  0  0  0  0
   -3.2846   -2.8280   -0.3984 H   0  0  0  0  0  0  0  0  0  0  0  0
   -1.7586   -2.0580    0.8686 C   0  0  0  0  0  0  0  0  0  0  0  0
   -0.9666   -2.6340    1.6026 O   0  0  0  0  0  0  0  0  0  0  0  0
   -1.4866   -0.9220    0.2366 N   0  0  0  0  0  0  0  0  0  0  0  0
   -2.2166   -0.4790   -0.2994 H   0  0  0  0  0  0  0  0  0  0  0  0
   -0.1956   -0.2250    0.2596 C   0  0  1  0  0  0  0  0  0  0  0  0
   -0.3483    0.7850    0.6408 H   0  0  0  0  0  0  0  0  0  0  0  0
    0.7535   -0.9511    1.2343 C   0  0  0  0  0  0  0  0  0  0  0  0
    0.7853   -2.0042    0.9506 H   0  0  0  0  0  0  0  0  0  0  0  0
    1.7578   -0.5368    1.1347 H   0  0  0  0  0  0  0  0  0  0  0  0
    0.3116   -0.8554    2.7043 C   0  0  0  0  0  0  0  0  0  0  0  0
    0.2699    0.1965    2.9971 H   0  0  0  0  0  0  0  0  0  0  0  0
   -0.6972   -1.2685    2.7869 H   0  0  0  0  0  0  0  0  0  0  0  0
    1.2443   -1.5994    3.6715 C   0  0  0  0  0  0  0  0  0  0  0  0
    2.1613   -2.3021    3.1901 O   0  5  0  0  0  0  0  0  0  0  0  0
    1.0357   -1.4304    4.8935 O   0  0  0  0  0  0  0  0  0  0  0  0
    0.3829   -0.0984   -1.1651 C   0  0  0  0  0  0  0  0  0  0  0  0
    0.3755    0.9857   -1.7519 O   0  0  0  0  0  0  0  0  0  0  0  0
    0.9084   -1.2001   -1.7166 N   0  0  0  0  0  0  0  0  0  0  0  0
    0.8300   -2.0628   -1.1987 H   0  0  0  0  0  0  0  0  0  0  0  0
    1.4780   -1.2526   -3.0605 C   0  0  0  0  0  0  0  0  0  0  0  0
    2.2084   -0.4510   -3.1825 H   0  0  0  0  0  0  0  0  0  0  0  0
    1.9629   -2.2159   -3.2255 H   0  0  0  0  0  0  0  0  0  0  0  0
    0.6831   -1.1169   -3.7965 H   0  0  0  0  0  0  0  0  0  0  0  0
  5  6  2  0  0  0  0
  5  7  1  0  0  0  0
  2  3  1  0  0  0  0
  2  4  1  0  0  0  0
  2  5  1  0  0  0  0
  1  2  1  0  0  0  0
 20 21  2  0  0  0  0
 20 22  1  0  0  0  0
 17 18  1  0  0  0  0
 17 19  2  0  0  0  0
 14 15  1  0  0  0  0
 14 16  1  0  0  0  0
 14 17  1  0  0  0  0
 11 12  1  0  0  0  0
 11 13  1  0  0  0  0
 11 14  1  0  0  0  0
  9 10  1  0  0  0  0
  9 11  1  0  0  0  0
  9 20  1  0  0  0  0
  7  8  1  0  0  0  0
  7  9  1  0  0  0  0
 24 25  1  0  0  0  0
 24 26  1  0  0  0  0
 24 27  1  0  0  0  0
 22 23  1  0  0  0  0
 22 24  1  0  0  0  0
M  CHG  1  18  -1
M  END
$$$$
default_name
  -OEChem-01062215323D

 27 26  0     1  0  0  0  0  0999 V2000
   -3.2406   -3.5400    1.2326 H   0  0  0  0  0  0  0  0  0  0  0  0
   -3.1436   -2.6190    0.6606 C   0  0  0  0  0  0  0  0  0  0  0  0
   -3.8786   -1.8920    0.9996 H   0  0  0  0  0  0  0  0  0  0  0  0
   -3.2846   -2.8280   -0.3984 H   0  0  0  0  0  0  0  0  0  0  0  0
   -1.7586   -2.0580    0.8686 C   0  0  0  0  0  0  0  0  0  0  0  0
   -0.9666   -2.6340    1.6026 O   0  0  0  0  0  0  0  0  0  0  0  0
   -1.4866   -0.9220    0.2366 N   0  0  0  0  0  0  0  0  0  0  0  0
   -2.2166   -0.4790   -0.2994 H   0  0  0  0  0  0  0  0  0  0  0  0
   -0.1956   -0.2250    0.2596 C   0  0  1  0  0  0  0  0  0  0  0  0
   -0.3483    0.7850    0.6408 H   0  0  0  0  0  0  0  0  0  0  0  0
    0.7535   -0.9511    1.2343 C   0  0  0  0  0  0  0  0  0  0  0  0
    0.7853   -2.0042    0.9506 H   0  0  0  0  0  0  0  0  0  0  0  0
    1.7578   -0.5368    1.1347 H   0  0  0  0  0  0  0  0  0  0  0  0
    0.3116   -0.8554    2.7043 C   0  0  0  0  0  0  0  0  0  0  0  0
    0.2699    0.1965    2.9971 H   0  0  0  0  0  0  0  0  0  0  0  0
   -0.6972   -1.2685    2.7869 H   0  0  0  0  0  0  0  0  0  0  0  0
    1.2443   -1.5994    3.6715 C   0  0  0  0  0  0  0  0  0  0  0  0
    2.1613   -2.3021    3.1901 O   0  5  0  0  0  0  0  0  0  0  0  0
    1.0357   -1.4304    4.8935 O   0  0  0  0  0  0  0  0  0  0  0  0
    0.3829   -0.0984   -1.1651 C   0  0  0  0  0  0  0  0  0  0  0  0
    0.6304    1.0092   -1.6464 O   0  0  0  0  0  0  0  0  0  0  0  0
    0.6233   -1.2330   -1.8352 N   0  0  0  0  0  0  0  0  0  0  0  0
    0.3450   -2.0993   -1.3989 H   0  0  0  0  0  0  0  0  0  0  0  0
    1.1510   -1.2854   -3.1962 C   0  0  0  0  0  0  0  0  0  0  0  0
    2.0513   -0.6725   -3.2659 H   0  0  0  0  0  0  0  0  0  0  0  0
    1.3888   -2.3149   -3.4673 H   0  0  0  0  0  0  0  0  0  0  0  0
    0.4050   -0.8918   -3.8894 H   0  0  0  0  0  0  0  0  0  0  0  0
  5  6  2  0  0  0  0
  5  7  1  0  0  0  0
  2  3  1  0  0  0  0
  2  4  1  0  0  0  0
  2  5  1  0  0  0  0
  1  2  1  0  0  0  0
 20 21  2  0  0  0  0
 20 22  1  0  0  0  0
 17 18  1  0  0  0  0
 17 19  2  0  0  0  0
 14 15  1  0  0  0  0
 14 16  1  0  0  0  0
 14 17  1  0  0  0  0
 11 12  1  0  0  0  0
 11 13  1  0  0  0  0
 11 14  1  0  0  0  0
  9 10  1  0  0  0  0
  9 11  1  0  0  0  0
  9 20  1  0  0  0  0
  7  8  1  0  0  0  0
  7  9  1  0  0  0  0
 24 25  1  0  0  0  0
 24 26  1  0  0  0  0
 24 27  1  0  0  0  0
 22 23  1  0  0  0  0
 22 24  1  0  0  0  0
M  CHG  1  18  -1
M  END
$$$$
default_name
  -OEChem-01062215323D

 27 26  0     1  0  0  0  0  0999 V2000
   -3.2406   -3.5400    1.2326 H   0  0  0  0  0  0  0  0  0  0  0  0
   -3.1436   -2.6190    0.6606 C   0  0  0  0  0  0  0  0  0  0  0  0
   -3.8786   -1.8920    0.9996 H   0  0  0  0  0  0  0  0  0  0  0  0
   -3.2846   -2.8280   -0.3984 H   0  0  0  0  0  0  0  0  0  0  0  0
   -1.7586   -2.0580    0.8686 C   0  0  0  0  0  0  0  0  0  0  0  0
   -0.9666   -2.6340    1.6026 O   0  0  0  0  0  0  0  0  0  0  0  0
   -1.4866   -0.9220    0.2366 N   0  0  0  0  0  0  0  0  0  0  0  0
   -2.2166   -0.4790   -0.2994 H   0  0  0  0  0  0  0  0  0  0  0  0
   -0.1956   -0.2250    0.2596 C   0  0  1  0  0  0  0  0  0  0  0  0
   -0.3483    0.7850    0.6408 H   0  0  0  0  0  0  0  0  0  0  0  0
    0.7535   -0.9511    1.2343 C   0  0  0  0  0  0  0  0  0  0  0  0
    0.7853   -2.0042    0.9506 H   0  0  0  0  0  0  0  0  0  0  0  0
    1.7578   -0.5368    1.1347 H   0  0  0  0  0  0  0  0  0  0  0  0
    0.3116   -0.8554    2.7043 C   0  0  0  0  0  0  0  0  0  0  0  0
    0.2699    0.1965    2.9971 H   0  0  0  0  0  0  0  0  0  0  0  0
   -0.6972   -1.2685    2.7869 H   0  0  0  0  0  0  0  0  0  0  0  0
    1.2443   -1.5994    3.6715 C   0  0  0  0  0  0  0  0  0  0  0  0
    2.1613   -2.3021    3.1901 O   0  5  0  0  0  0  0  0  0  0  0  0
    1.0357   -1.4304    4.8935 O   0  0  0  0  0  0  0  0  0  0  0  0
    0.3829   -0.0984   -1.1651 C   0  0  0  0  0  0  0  0  0  0  0  0
    0.8845    0.9607   -1.5475 O   0  0  0  0  0  0  0  0  0  0  0  0
    0.3376   -1.1850   -1.9470 N   0  0  0  0  0  0  0  0  0  0  0  0
   -0.1364   -1.9993   -1.5854 H   0  0  0  0  0  0  0  0  0  0  0  0
    0.8244   -1.2256   -3.3235 C   0  0  0  0  0  0  0  0  0  0  0  0
    1.8448   -0.8408   -3.3647 H   0  0  0  0  0  0  0  0  0  0  0  0
    0.8056   -2.2500   -3.6983 H   0  0  0  0  0  0  0  0  0  0  0  0
    0.1882   -0.5988   -3.9514 H   0  0  0  0  0  0  0  0  0  0  0  0
  5  6  2  0  0  0  0
  5  7  1  0  0  0  0
  2  3  1  0  0  0  0
  2  4  1  0  0  0  0
  2  5  1  0  0  0  0
  1  2  1  0  0  0  0
 20 21  2  0  0  0  0
 20 22  1  0  0  0  0
 17 18  1  0  0  0  0
 17 19  2  0  0  0  0
 14 15  1  0  0  0  0
 14 16  1  0  0  0  0
 14 17  1  0  0  0  0
 11 12  1  0  0  0  0
 11 13  1  0  0  0  0
 11 14  1  0  0  0  0
  9 10  1  0  0  0  0
  9 11  1  0  0  0  0
  9 20  1  0  0  0  0
  7  8  1  0  0  0  0
  7  9  1  0  0  0  0
 24 25  1  0  0  0  0
 24 26  1  0  0  0  0
 24 27  1  0  0  0  0
 22 23  1  0  0  0  0
 22 24  1  0  0  0  0
M  CHG  1  18  -1
M  END
$$$$
default_name
  -OEChem-01062215323D

 27 26  0     1  0  0  0  0  0999 V2000
   -3.2406   -3.5400    1.2326 H   0  0  0  0  0  0  0  0  0  0  0  0
   -3.1436   -2.6190    0.6606 C   0  0  0  0  0  0  0  0  0  0  0  0
   -3.8786   -1.8920    0.9996 H   0  0  0  0  0  0  0  0  0  0  0  0
   -3.2846   -2.8280   -0.3984 H   0  0  0  0  0  0  0  0  0  0  0  0
   -1.7586   -2.0580    0.8686 C   0  0  0  0  0  0  0  0  0  0  0  0
   -0.9666   -2.6340    1.6026 O   0  0  0  0  0  0  0  0  0  0  0  0
   -1.4866   -0.9220    0.2366 N   0  0  0  0  0  0  0  0  0  0  0  0
   -2.2166   -0.4790   -0.2994 H   0  0  0  0  0  0  0  0  0  0  0  0
   -0.1956   -0.2250    0.2596 C   0  0  1  0  0  0  0  0  0  0  0  0
   -0.3483    0.7850    0.6408 H   0  0  0  0  0  0  0  0  0  0  0  0
    0.7535   -0.9511    1.2343 C   0  0  0  0  0  0  0  0  0  0  0  0
    0.7853   -2.0042    0.9506 H   0  0  0  0  0  0  0  0  0  0  0  0
    1.7578   -0.5368    1.1347 H   0  0  0  0  0  0  0  0  0  0  0  0
    0.3116   -0.8554    2.7043 C   0  0  0  0  0  0  0  0  0  0  0  0
    0.2699    0.1965    2.9971 H   0  0  0  0  0  0  0  0  0  0  0  0
   -0.6972   -1.2685    2.7869 H   0  0  0  0  0  0  0  0  0  0  0  0
    1.2443   -1.5994    3.6715 C   0  0  0  0  0  0  0  0  0  0  0  0
    2.1613   -2.3021    3.1901 O   0  5  0  0  0  0  0  0  0  0  0  0
    1.0357   -1.4304    4.8935 O   0  0  0  0  0  0  0  0  0  0  0  0
    0.3829   -0.0984   -1.1651 C   0  0  0  0  0  0  0  0  0  0  0  0
    1.1205    0.8436   -1.4621 O   0  0  0  0  0  0  0  0  0  0  0  0
    0.0707   -1.0596   -2.0442 N   0  0  0  0  0  0  0  0  0  0  0  0
   -0.5814   -1.7696   -1.7457 H   0  0  0  0  0  0  0  0  0  0  0  0
    0.5205   -1.0775   -3.4337 C   0  0  0  0  0  0  0  0  0  0  0  0
    1.6030   -0.9444   -3.4721 H   0  0  0  0  0  0  0  0  0  0  0  0
    0.2528   -2.0254   -3.9028 H   0  0  0  0  0  0  0  0  0  0  0  0
    0.0475   -0.2580   -3.9782 H   0  0  0  0  0  0  0  0  0  0  0  0
  5  6  2  0  0  0  0
  5  7  1  0  0  0  0
  2  3  1  0  0  0  0
  2  4  1  0  0  0  0
  2  5  1  0  0  0  0
  1  2  1  0  0  0  0
 20 21  2  0  0  0  0
 20 22  1  0  0  0  0
 17 18  1  0  0  0  0
 17 19  2  0  0  0  0
 14 15  1  0  0  0  0
 14 16  1  0  0  0  0
 14 17  1  0  0  0  0
 11 12  1  0  0  0  0
 11 13  1  0  0  0  0
 11 14  1  0  0  0  0
  9 10  1  0  0  0  0
  9 11  1  0  0  0  0
  9 20  1  0  0  0  0
  7  8  1  0  0  0  0
  7  9  1  0  0  0  0
 24 25  1  0  0  0  0
 24 26  1  0  0  0  0
 24 27  1  0  0  0  0
 22 23  1  0  0  0  0
 22 24  1  0  0  0  0
M  CHG  1  18  -1
M  END
$$$$
default_name
  -OEChem-01062215323D

 27 26  0     1  0  0  0  0  0999 V2000
   -3.2406   -3.5400    1.2326 H   0  0  0  0  0  0  0  0  0  0  0  0
   -3.1436   -2.6190    0.6606 C   0  0  0  0  0  0  0  0  0  0  0  0
   -3.8786   -1.8920    0.9996 H   0  0  0  0  0  0  0  0  0  0  0  0
   -3.2846   -2.8280   -0.3984 H   0  0  0  0  0  0  0  0  0  0  0  0
   -1.7586   -2.0580    0.8686 C   0  0  0  0  0  0  0  0  0  0  0  0
   -0.9666   -2.6340    1.6026 O   0  0  0  0  0  0  0  0  0  0  0  0
   -1.4866   -0.9220    0.2366 N   0  0  0  0  0  0  0  0  0  0  0  0
   -2.2166   -0.4790   -0.2994 H   0  0  0  0  0  0  0  0  0  0  0  0
   -0.1956   -0.2250    0.2596 C   0  0  1  0  0  0  0  0  0  0  0  0
   -0.3483    0.7850    0.6408 H   0  0  0  0  0  0  0  0  0  0  0  0
    0.7535   -0.9511    1.2343 C   0  0  0  0  0  0  0  0  0  0  0  0
    0.7853   -2.0042    0.9506 H   0  0  0  0  0  0  0  0  0  0  0  0
    1.7578   -0.5368    1.1347 H   0  0  0  0  0  0  0  0  0  0  0  0
    0.3116   -0.8554    2.7043 C   0  0  0  0  0  0  0  0  0  0  0  0
    0.2699    0.1965    2.9971 H   0  0  0  0  0  0  0  0  0  0  0  0
   -0.6972   -1.2685    2.7869 H   0  0  0  0  0  0  0  0  0  0  0  0
    1.2443   -1.5994    3.6715 C   0  0  0  0  0  0  0  0  0  0  0  0
    2.1613   -2.3021    3.1901 O   0  5  0  0  0  0  0  0  0  0  0  0
    1.0357   -1.4304    4.8935 O   0  0  0  0  0  0  0  0  0  0  0  0
    0.3829   -0.0984   -1.1651 C   0  0  0  0  0  0  0  0  0  0  0  0
    1.3222    0.6658   -1.3960 O   0  0  0  0  0  0  0  0  0  0  0  0
   -0.1592   -0.8652   -2.1202 N   0  0  0  0  0  0  0  0  0  0  0  0
   -0.9598   -1.4257   -1.8688 H   0  0  0  0  0  0  0  0  0  0  0  0
    0.2600   -0.8512   -3.5194 C   0  0  0  0  0  0  0  0  0  0  0  0
    1.3424   -0.9763   -3.5807 H   0  0  0  0  0  0  0  0  0  0  0  0
   -0.2318   -1.6565   -4.0668 H   0  0  0  0  0  0  0  0  0  0  0  0
   -0.0075    0.1074   -3.9681 H   0  0  0  0  0  0  0  0  0  0  0  0
  5  6  2  0  0  0  0
  5  7  1  0  0  0  0
  2  3  1  0  0  0  0
  2  4  1  0  0  0  0
  2  5  1  0  0  0  0
  1  2  1  0  0  0  0
 20 21  2  0  0  0  0
 20 22  1  0  0  0  0
 17 18  1  0  0  0  0
 17 19  2  0  0  0  0
 14 15  1  0  0  0  0
 14 16  1  0  0  0  0
 14 17  1  0  0  0  0
 11 12  1  0  0  0  0
 11 13  1  0  0  0  0
 11 14  1  0  0  0  0
  9 10  1  0  0  0  0
  9 11  1  0  0  0  0
  9 20  1  0  0  0  0
  7  8  1  0  0  0  0
  7  9  1  0  0  0  0
 24 25  1  0  0  0  0
 24 26  1  0  0  0  0
 24 27  1  0  0  0  0
 22 23  1  0  0  0  0
 22 24  1  0  0  0  0
M  CHG  1  18  -1
M  END
$$$$
default_name
  -OEChem-01062215323D

 27 26  0     1  0  0  0  0  0999 V2000
   -3.2406   -3.5400    1.2326 H   0  0  0  0  0  0  0  0  0  0  0  0
   -3.1436   -2.6190    0.6606 C   0  0  0  0  0  0  0  0  0  0  0  0
   -3.8786   -1.8920    0.9996 H   0  0  0  0  0  0  0  0  0  0  0  0
   -3.2846   -2.8280   -0.3984 H   0  0  0  0  0  0  0  0  0  0  0  0
   -1.7586   -2.0580    0.8686 C   0  0  0  0  0  0  0  0  0  0  0  0
   -0.9666   -2.6340    1.6026 O   0  0  0  0  0  0  0  0  0  0  0  0
   -1.4866   -0.9220    0.2366 N   0  0  0  0  0  0  0  0  0  0  0  0
   -2.2166   -0.4790   -0.2994 H   0  0  0  0  0  0  0  0  0  0  0  0
   -0.1956   -0.2250    0.2596 C   0  0  1  0  0  0  0  0  0  0  0  0
   -0.3483    0.7850    0.6408 H   0  0  0  0  0  0  0  0  0  0  0  0
    0.7535   -0.9511    1.2343 C   0  0  0  0  0  0  0  0  0  0  0  0
    0.7853   -2.0042    0.9506 H   0  0  0  0  0  0  0  0  0  0  0  0
    1.7578   -0.5368    1.1347 H   0  0  0  0  0  0  0  0  0  0  0  0
    0.3116   -0.8554    2.7043 C   0  0  0  0  0  0  0  0  0  0  0  0
    0.2699    0.1965    2.9971 H   0  0  0  0  0  0  0  0  0  0  0  0
   -0.6972   -1.2685    2.7869 H   0  0  0  0  0  0  0  0  0  0  0  0
    1.2443   -1.5994    3.6715 C   0  0  0  0  0  0  0  0  0  0  0  0
    2.1613   -2.3021    3.1901 O   0  5  0  0  0  0  0  0  0  0  0  0
    1.0357   -1.4304    4.8935 O   0  0  0  0  0  0  0  0  0  0  0  0
    0.3829   -0.0984   -1.1651 C   0  0  0  0  0  0  0  0  0  0  0  0
    1.4760    0.4394   -1.3537 O   0  0  0  0  0  0  0  0  0  0  0  0
   -0.3364   -0.6151   -2.1700 N   0  0  0  0  0  0  0  0  0  0  0  0
   -1.2458   -0.9912   -1.9463 H   0  0  0  0  0  0  0  0  0  0  0  0
    0.0607   -0.5619   -3.5746 C   0  0  0  0  0  0  0  0  0  0  0  0
    1.0808   -0.9343   -3.6832 H   0  0  0  0  0  0  0  0  0  0  0  0
   -0.6152   -1.1685   -4.1791 H   0  0  0  0  0  0  0  0  0  0  0  0
    0.0269    0.4726   -3.9217 H   0  0  0  0  0  0  0  0  0  0  0  0
  5  6  2  0  0  0  0
  5  7  1  0  0  0  0
  2  3  1  0  0  0  0
  2  4  1  0  0  0  0
  2  5  1  0  0  0  0
  1  2  1  0  0  0  0
 20 21  2  0  0  0  0
 20 22  1  0  0  0  0
 17 18  1  0  0  0  0
 17 19  2  0  0  0  0
 14 15  1  0  0  0  0
 14 16  1  0  0  0  0
 14 17  1  0  0  0  0
 11 12  1  0  0  0  0
 11 13  1  0  0  0  0
 11 14  1  0  0  0  0
  9 10  1  0  0  0  0
  9 11  1  0  0  0  0
  9 20  1  0  0  0  0
  7  8  1  0  0  0  0
  7  9  1  0  0  0  0
 24 25  1  0  0  0  0
 24 26  1  0  0  0  0
 24 27  1  0  0  0  0
 22 23  1  0  0  0  0
 22 24  1  0  0  0  0
M  CHG  1  18  -1
M  END
$$$$
default_name
  -OEChem-01062215323D

 27 26  0     1  0  0  0  0  0999 V2000
   -3.2406   -3.5400    1.2326 H   0  0  0  0  0  0  0  0  0  0  0  0
   -3.1436   -2.6190    0.6606 C   0  0  0  0  0  0  0  0  0  0  0  0
   -3.8786   -1.8920    0.9996 H   0  0  0  0  0  0  0  0  0  0  0  0
   -3.2846   -2.8280   -0.3984 H   0  0  0  0  0  0  0  0  0  0  0  0
   -1.7586   -2.0580    0.8686 C   0  0  0  0  0  0  0  0  0  0  0  0
   -0.9666   -2.6340    1.6026 O   0  0  0  0  0  0  0  0  0  0  0  0
   -1.4866   -0.9220    0.2366 N   0  0  0  0  0  0  0  0  0  0  0  0
   -2.2166   -0.4790   -0.2994 H   0  0  0  0  0  0  0  0  0  0  0  0
   -0.1956   -0.2250    0.2596 C   0  0  1  0  0  0  0  0  0  0  0  0
   -0.3483    0.7850    0.6408 H   0  0  0  0  0  0  0  0  0  0  0  0
    0.7535   -0.9511    1.2343 C   0  0  0  0  0  0  0  0  0  0  0  0
    0.7853   -2.0042    0.9506 H   0  0  0  0  0  0  0  0  0  0  0  0
    1.7578   -0.5368    1.1347 H   0  0  0  0  0  0  0  0  0  0  0  0
    0.3116   -0.8554    2.7043 C   0  0  0  0  0  0  0  0  0  0  0  0
    0.2699    0.1965    2.9971 H   0  0  0  0  0  0  0  0  0  0  0  0
   -0.6972   -1.2685    2.7869 H   0  0  0  0  0  0  0  0  0  0  0  0
    1.2443   -1.5994    3.6715 C   0  0  0  0  0  0  0  0  0  0  0  0
    2.1613   -2.3021    3.1901 O   0  5  0  0  0  0  0  0  0  0  0  0
    1.0357   -1.4304    4.8935 O   0  0  0  0  0  0  0  0  0  0  0  0
    0.3829   -0.0984   -1.1651 C   0  0  0  0  0  0  0  0  0  0  0  0
    1.5713    0.1799   -1.3380 O   0  0  0  0  0  0  0  0  0  0  0  0
   -0.4488   -0.3264   -2.1900 N   0  0  0  0  0  0  0  0  0  0  0  0
   -1.4197   -0.4956   -1.9729 H   0  0  0  0  0  0  0  0  0  0  0  0
   -0.0638   -0.2296   -3.5956 C   0  0  0  0  0  0  0  0  0  0  0  0
    0.8359   -0.8212   -3.7726 H   0  0  0  0  0  0  0  0  0  0  0  0
   -0.8712   -0.5945   -4.2320 H   0  0  0  0  0  0  0  0  0  0  0  0
    0.1483    0.8126   -3.8421 H   0  0  0  0  0  0  0  0  0  0  0  0
  5  6  2  0  0  0  0
  5  7  1  0  0  0  0
  2  3  1  0  0  0  0
  2  4  1  0  0  0  0
  2  5  1  0  0  0  0
  1  2  1  0  0  0  0
 20 21  2  0  0  0  0
 20 22  1  0  0  0  0
 17 18  1  0  0  0  0
 17 19  2  0  0  0  0
 14 15  1  0  0  0  0
 14 16  1  0  0  0  0
 14 17  1  0  0  0  0
 11 12  1  0  0  0  0
 11 13  1  0  0  0  0
 11 14  1  0  0  0  0
  9 10  1  0  0  0  0
  9 11  1  0  0  0  0
  9 20  1  0  0  0  0
  7  8  1  0  0  0  0
  7  9  1  0  0  0  0
 24 25  1  0  0  0  0
 24 26  1  0  0  0  0
 24 27  1  0  0  0  0
 22 23  1  0  0  0  0
 22 24  1  0  0  0  0
M  CHG  1  18  -1
M  END
$$$$
default_name
  -OEChem-01062215323D

 27 26  0     1  0  0  0  0  0999 V2000
   -3.2406   -3.5400    1.2326 H   0  0  0  0  0  0  0  0  0  0  0  0
   -3.1436   -2.6190    0.6606 C   0  0  0  0  0  0  0  0  0  0  0  0
   -3.8786   -1.8920    0.9996 H   0  0  0  0  0  0  0  0  0  0  0  0
   -3.2846   -2.8280   -0.3984 H   0  0  0  0  0  0  0  0  0  0  0  0
   -1.7586   -2.0580    0.8686 C   0  0  0  0  0  0  0  0  0  0  0  0
   -0.9666   -2.6340    1.6026 O   0  0  0  0  0  0  0  0  0  0  0  0
   -1.4866   -0.9220    0.2366 N   0  0  0  0  0  0  0  0  0  0  0  0
   -2.2166   -0.4790   -0.2994 H   0  0  0  0  0  0  0  0  0  0  0  0
   -0.1956   -0.2250    0.2596 C   0  0  1  0  0  0  0  0  0  0  0  0
   -0.3483    0.7850    0.6408 H   0  0  0  0  0  0  0  0  0  0  0  0
    0.7535   -0.9511    1.2343 C   0  0  0  0  0  0  0  0  0  0  0  0
    0.7853   -2.0042    0.9506 H   0  0  0  0  0  0  0  0  0  0  0  0
    1.7578   -0.5368    1.1347 H   0  0  0  0  0  0  0  0  0  0  0  0
    0.3116   -0.8554    2.7043 C   0  0  0  0  0  0  0  0  0  0  0  0
    0.2699    0.1965    2.9971 H   0  0  0  0  0  0  0  0  0  0  0  0
   -0.6972   -1.2685    2.7869 H   0  0  0  0  0  0  0  0  0  0  0  0
    1.2443   -1.5994    3.6715 C   0  0  0  0  0  0  0  0  0  0  0  0
    2.1613   -2.3021    3.1901 O   0  5  0  0  0  0  0  0  0  0  0  0
    1.0357   -1.4304    4.8935 O   0  0  0  0  0  0  0  0  0  0  0  0
    0.3829   -0.0984   -1.1651 C   0  0  0  0  0  0  0  0  0  0  0  0
    1.6017   -0.0951   -1.3501 O   0  0  0  0  0  0  0  0  0  0  0  0
   -0.4888   -0.0187   -2.1789 N   0  0  0  0  0  0  0  0  0  0  0  0
   -1.4699    0.0272   -1.9468 H   0  0  0  0  0  0  0  0  0  0  0  0
   -0.1052    0.1233   -3.5810 C   0  0  0  0  0  0  0  0  0  0  0  0
    0.6246   -0.6448   -3.8427 H   0  0  0  0  0  0  0  0  0  0  0  0
   -0.9826    0.0262   -4.2221 H   0  0  0  0  0  0  0  0  0  0  0  0
    0.3486    1.1042   -3.7349 H   0  0  0  0  0  0  0  0  0  0  0  0
  5  6  2  0  0  0  0
  5  7  1  0  0  0  0
  2  3  1  0  0  0  0
  2  4  1  0  0  0  0
  2  5  1  0  0  0  0
  1  2  1  0  0  0  0
 20 21  2  0  0  0  0
 20 22  1  0  0  0  0
 17 18  1  0  0  0  0
 17 19  2  0  0  0  0
 14 15  1  0  0  0  0
 14 16  1  0  0  0  0
 14 17  1  0  0  0  0
 11 12  1  0  0  0  0
 11 13  1  0  0  0  0
 11 14  1  0  0  0  0
  9 10  1  0  0  0  0
  9 11  1  0  0  0  0
  9 20  1  0  0  0  0
  7  8  1  0  0  0  0
  7  9  1  0  0  0  0
 24 25  1  0  0  0  0
 24 26  1  0  0  0  0
 24 27  1  0  0  0  0
 22 23  1  0  0  0  0
 22 24  1  0  0  0  0
M  CHG  1  18  -1
M  END
$$$$
default_name
  -OEChem-01062215323D

 27 26  0     1  0  0  0  0  0999 V2000
   -3.2406   -3.5400    1.2326 H   0  0  0  0  0  0  0  0  0  0  0  0
   -3.1436   -2.6190    0.6606 C   0  0  0  0  0  0  0  0  0  0  0  0
   -3.8786   -1.8920    0.9996 H   0  0  0  0  0  0  0  0  0  0  0  0
   -3.2846   -2.8280   -0.3984 H   0  0  0  0  0  0  0  0  0  0  0  0
   -1.7586   -2.0580    0.8686 C   0  0  0  0  0  0  0  0  0  0  0  0
   -0.9666   -2.6340    1.6026 O   0  0  0  0  0  0  0  0  0  0  0  0
   -1.4866   -0.9220    0.2366 N   0  0  0  0  0  0  0  0  0  0  0  0
   -2.2166   -0.4790   -0.2994 H   0  0  0  0  0  0  0  0  0  0  0  0
   -0.1956   -0.2250    0.2596 C   0  0  1  0  0  0  0  0  0  0  0  0
   -0.3483    0.7850    0.6408 H   0  0  0  0  0  0  0  0  0  0  0  0
    0.7535   -0.9511    1.2343 C   0  0  0  0  0  0  0  0  0  0  0  0
    0.7853   -2.0042    0.9506 H   0  0  0  0  0  0  0  0  0  0  0  0
    1.7578   -0.5368    1.1347 H   0  0  0  0  0  0  0  0  0  0  0  0
    0.3116   -0.8554    2.7043 C   0  0  0  0  0  0  0  0  0  0  0  0
    0.2699    0.1965    2.9971 H   0  0  0  0  0  0  0  0  0  0  0  0
   -0.6972   -1.2685    2.7869 H   0  0  0  0  0  0  0  0  0  0  0  0
    1.2443   -1.5994    3.6715 C   0  0  0  0  0  0  0  0  0  0  0  0
    2.1613   -2.3021    3.1901 O   0  5  0  0  0  0  0  0  0  0  0  0
    1.0357   -1.4304    4.8935 O   0  0  0  0  0  0  0  0  0  0  0  0
    0.3829   -0.0984   -1.1651 C   0  0  0  0  0  0  0  0  0  0  0  0
    1.5650   -0.3668   -1.3892 O   0  0  0  0  0  0  0  0  0  0  0  0
   -0.4537    0.2870   -2.1375 N   0  0  0  0  0  0  0  0  0  0  0  0
   -1.3929    0.5417   -1.8698 H   0  0  0  0  0  0  0  0  0  0  0  0
   -0.0605    0.4726   -3.5319 C   0  0  0  0  0  0  0  0  0  0  0  0
    0.4611   -0.4171   -3.8889 H   0  0  0  0  0  0  0  0  0  0  0  0
   -0.9415    0.6514   -4.1498 H   0  0  0  0  0  0  0  0  0  0  0  0
    0.6141    1.3277   -3.6073 H   0  0  0  0  0  0  0  0  0  0  0  0
  5  6  2  0  0  0  0
  5  7  1  0  0  0  0
  2  3  1  0  0  0  0
  2  4  1  0  0  0  0
  2  5  1  0  0  0  0
  1  2  1  0  0  0  0
 20 21  2  0  0  0  0
 20 22  1  0  0  0  0
 17 18  1  0  0  0  0
 17 19  2  0  0  0  0
 14 15  1  0  0  0  0
 14 16  1  0  0  0  0
 14 17  1  0  0  0  0
 11 12  1  0  0  0  0
 11 13  1  0  0  0  0
 11 14  1  0  0  0  0
  9 10  1  0  0  0  0
  9 11  1  0  0  0  0
  9 20  1  0  0  0  0
  7  8  1  0  0  0  0
  7  9  1  0  0  0  0
 24 25  1  0  0  0  0
 24 26  1  0  0  0  0
 24 27  1  0  0  0  0
 22 23  1  0  0  0  0
 22 24  1  0  0  0  0
M  CHG  1  18  -1
M  END
$$$$
default_name
  -OEChem-01062215323D

 27 26  0     1  0  0  0  0  0999 V2000
   -3.2406   -3.5400    1.2326 H   0  0  0  0  0  0  0  0  0  0  0  0
   -3.1436   -2.6190    0.6606 C   0  0  0  0  0  0  0  0  0  0  0  0
   -3.8786   -1.8920    0.9996 H   0  0  0  0  0  0  0  0  0  0  0  0
   -3.2846   -2.8280   -0.3984 H   0  0  0  0  0  0  0  0  0  0  0  0
   -1.7586   -2.0580    0.8686 C   0  0  0  0  0  0  0  0  0  0  0  0
   -0.9666   -2.6340    1.6026 O   0  0  0  0  0  0  0  0  0  0  0  0
   -1.4866   -0.9220    0.2366 N   0  0  0  0  0  0  0  0  0  0  0  0
   -2.2166   -0.4790   -0.2994 H   0  0  0  0  0  0  0  0  0  0  0  0
   -0.1956   -0.2250    0.2596 C   0  0  1  0  0  0  0  0  0  0  0  0
   -0.3483    0.7850    0.6408 H   0  0  0  0  0  0  0  0  0  0  0  0
    0.7535   -0.9511    1.2343 C   0  0  0  0  0  0  0  0  0  0  0  0
    0.7853   -2.0042    0.9506 H   0  0  0  0  0  0  0  0  0  0  0  0
    1.7578   -0.5368    1.1347 H   0  0  0  0  0  0  0  0  0  0  0  0
    0.3116   -0.8554    2.7043 C   0  0  0  0  0  0  0  0  0  0  0  0
    0.2699    0.1965    2.9971 H   0  0  0  0  0  0  0  0  0  0  0  0
   -0.6972   -1.2685    2.7869 H   0  0  0  0  0  0  0  0  0  0  0  0
    1.2443   -1.5994    3.6715 C   0  0  0  0  0  0  0  0  0  0  0  0
    2.1613   -2.3021    3.1901 O   0  5  0  0  0  0  0  0  0  0  0  0
    1.0357   -1.4304    4.8935 O   0  0  0  0  0  0  0  0  0  0  0  0
    0.3829   -0.0984   -1.1651 C   0  0  0  0  0  0  0  0  0  0  0  0
    1.4639   -0.6167   -1.4524 O   0  0  0  0  0  0  0  0  0  0  0  0
   -0.3459    0.5699   -2.0685 N   0  0  0  0  0  0  0  0  0  0  0  0
   -1.1939    1.0128   -1.7471 H   0  0  0  0  0  0  0  0  0  0  0  0
    0.0672    0.7945   -3.4514 C   0  0  0  0  0  0  0  0  0  0  0  0
    0.3566   -0.1536   -3.9079 H   0  0  0  0  0  0  0  0  0  0  0  0
   -0.7509    1.2385   -4.0203 H   0  0  0  0  0  0  0  0  0  0  0  0
    0.9266    1.4677   -3.4680 H   0  0  0  0  0  0  0  0  0  0  0  0
  5  6  2  0  0  0  0
  5  7  1  0  0  0  0
  2  3  1  0  0  0  0
  2  4  1  0  0  0  0
  2  5  1  0  0  0  0
  1  2  1  0  0  0  0
 20 21  2  0  0  0  0
 20 22  1  0  0  0  0
 17 18  1  0  0  0  0
 17 19  2  0  0  0  0
 14 15  1  0  0  0  0
 14 16  1  0  0  0  0
 14 17  1  0  0  0  0
 11 12  1  0  0  0  0
 11 13  1  0  0  0  0
 11 14  1  0  0  0  0
  9 10  1  0  0  0  0
  9 11  1  0  0  0  0
  9 20  1  0  0  0  0
  7  8  1  0  0  0  0
  7  9  1  0  0  0  0
 24 25  1  0  0  0  0
 24 26  1  0  0  0  0
 24 27  1  0  0  0  0
 22 23  1  0  0  0  0
 22 24  1  0  0  0  0
M  CHG  1  18  -1
M  END
$$$$
default_name
  -OEChem-01062215323D

 27 26  0     1  0  0  0  0  0999 V2000
   -3.2406   -3.5400    1.2326 H   0  0  0  0  0  0  0  0  0  0  0  0
   -3.1436   -2.6190    0.6606 C   0  0  0  0  0  0  0  0  0  0  0  0
   -3.8786   -1.8920    0.9996 H   0  0  0  0  0  0  0  0  0  0  0  0
   -3.2846   -2.8280   -0.3984 H   0  0  0  0  0  0  0  0  0  0  0  0
   -1.7586   -2.0580    0.8686 C   0  0  0  0  0  0  0  0  0  0  0  0
   -0.9666   -2.6340    1.6026 O   0  0  0  0  0  0  0  0  0  0  0  0
   -1.4866   -0.9220    0.2366 N   0  0  0  0  0  0  0  0  0  0  0  0
   -2.2166   -0.4790   -0.2994 H   0  0  0  0  0  0  0  0  0  0  0  0
   -0.1956   -0.2250    0.2596 C   0  0  1  0  0  0  0  0  0  0  0  0
   -0.3483    0.7850    0.6408 H   0  0  0  0  0  0  0  0  0  0  0  0
    0.7535   -0.9511    1.2343 C   0  0  0  0  0  0  0  0  0  0  0  0
    0.7853   -2.0042    0.9506 H   0  0  0  0  0  0  0  0  0  0  0  0
    1.7578   -0.5368    1.1347 H   0  0  0  0  0  0  0  0  0  0  0  0
    0.3116   -0.8554    2.7043 C   0  0  0  0  0  0  0  0  0  0  0  0
    0.2699    0.1965    2.9971 H   0  0  0  0  0  0  0  0  0  0  0  0
   -0.6972   -1.2685    2.7869 H   0  0  0  0  0  0  0  0  0  0  0  0
    1.2443   -1.5994    3.6715 C   0  0  0  0  0  0  0  0  0  0  0  0
    2.1613   -2.3021    3.1901 O   0  5  0  0  0  0  0  0  0  0  0  0
    1.0357   -1.4304    4.8935 O   0  0  0  0  0  0  0  0  0  0  0  0
    0.3829   -0.0984   -1.1651 C   0  0  0  0  0  0  0  0  0  0  0  0
    1.3051   -0.8277   -1.5356 O   0  0  0  0  0  0  0  0  0  0  0  0
   -0.1726    0.8107   -1.9768 N   0  0  0  0  0  0  0  0  0  0  0  0
   -0.8864    1.4084   -1.5872 H   0  0  0  0  0  0  0  0  0  0  0  0
    0.2693    1.0671   -3.3452 C   0  0  0  0  0  0  0  0  0  0  0  0
    0.3182    0.1278   -3.8985 H   0  0  0  0  0  0  0  0  0  0  0  0
   -0.4237    1.7474   -3.8422 H   0  0  0  0  0  0  0  0  0  0  0  0
    1.2649    1.5147   -3.3265 H   0  0  0  0  0  0  0  0  0  0  0  0
  5  6  2  0  0  0  0
  5  7  1  0  0  0  0
  2  3  1  0  0  0  0
  2  4  1  0  0  0  0
  2  5  1  0  0  0  0
  1  2  1  0  0  0  0
 20 21  2  0  0  0  0
 20 22  1  0  0  0  0
 17 18  1  0  0  0  0
 17 19  2  0  0  0  0
 14 15  1  0  0  0  0
 14 16  1  0  0  0  0
 14 17  1  0  0  0  0
 11 12  1  0  0  0  0
 11 13  1  0  0  0  0
 11 14  1  0  0  0  0
  9 10  1  0  0  0  0
  9 11  1  0  0  0  0
  9 20  1  0  0  0  0
  7  8  1  0  0  0  0
  7  9  1  0  0  0  0
 24 25  1  0  0  0  0
 24 26  1  0  0  0  0
 24 27  1  0  0  0  0
 22 23  1  0  0  0  0
 22 24  1  0  0  0  0
M  CHG  1  18  -1
M  END
$$$$
default_name
  -OEChem-01062215323D

 27 26  0     1  0  0  0  0  0999 V2000
   -3.2406   -3.5400    1.2326 H   0  0  0  0  0  0  0  0  0  0  0  0
   -3.1436   -2.6190    0.6606 C   0  0  0  0  0  0  0  0  0  0  0  0
   -3.8786   -1.8920    0.9996 H   0  0  0  0  0  0  0  0  0  0  0  0
   -3.2846   -2.8280   -0.3984 H   0  0  0  0  0  0  0  0  0  0  0  0
   -1.7586   -2.0580    0.8686 C   0  0  0  0  0  0  0  0  0  0  0  0
   -0.9666   -2.6340    1.6026 O   0  0  0  0  0  0  0  0  0  0  0  0
   -1.4866   -0.9220    0.2366 N   0  0  0  0  0  0  0  0  0  0  0  0
   -2.2166   -0.4790   -0.2994 H   0  0  0  0  0  0  0  0  0  0  0  0
   -0.1956   -0.2250    0.2596 C   0  0  1  0  0  0  0  0  0  0  0  0
   -0.3483    0.7850    0.6408 H   0  0  0  0  0  0  0  0  0  0  0  0
    0.7535   -0.9511    1.2343 C   0  0  0  0  0  0  0  0  0  0  0  0
    0.7853   -2.0042    0.9506 H   0  0  0  0  0  0  0  0  0  0  0  0
    1.7578   -0.5368    1.1347 H   0  0  0  0  0  0  0  0  0  0  0  0
    0.3116   -0.8554    2.7043 C   0  0  0  0  0  0  0  0  0  0  0  0
    0.2699    0.1965    2.9971 H   0  0  0  0  0  0  0  0  0  0  0  0
   -0.6972   -1.2685    2.7869 H   0  0  0  0  0  0  0  0  0  0  0  0
    1.2443   -1.5994    3.6715 C   0  0  0  0  0  0  0  0  0  0  0  0
    2.1613   -2.3021    3.1901 O   0  5  0  0  0  0  0  0  0  0  0  0
    1.0357   -1.4304    4.8935 O   0  0  0  0  0  0  0  0  0  0  0  0
    0.3829   -0.0984   -1.1651 C   0  0  0  0  0  0  0  0  0  0  0  0
    1.0996   -0.9856   -1.6331 O   0  0  0  0  0  0  0  0  0  0  0  0
    0.0542    0.9930   -1.8685 N   0  0  0  0  0  0  0  0  0  0  0  0
   -0.4915    1.7014   -1.4008 H   0  0  0  0  0  0  0  0  0  0  0  0
    0.5318    1.2719   -3.2204 C   0  0  0  0  0  0  0  0  0  0  0  0
    0.3486    0.4078   -3.8612 H   0  0  0  0  0  0  0  0  0  0  0  0
    0.0177    2.1436   -3.6278 H   0  0  0  0  0  0  0  0  0  0  0  0
    1.6059    1.4655   -3.1924 H   0  0  0  0  0  0  0  0  0  0  0  0
  5  6  2  0  0  0  0
  5  7  1  0  0  0  0
  2  3  1  0  0  0  0
  2  4  1  0  0  0  0
  2  5  1  0  0  0  0
  1  2  1  0  0  0  0
 20 21  2  0  0  0  0
 20 22  1  0  0  0  0
 17 18  1  0  0  0  0
 17 19  2  0  0  0  0
 14 15  1  0  0  0  0
 14 16  1  0  0  0  0
 14 17  1  0  0  0  0
 11 12  1  0  0  0  0
 11 13  1  0  0  0  0
 11 14  1  0  0  0  0
  9 10  1  0  0  0  0
  9 11  1  0  0  0  0
  9 20  1  0  0  0  0
  7  8  1  0  0  0  0
  7  9  1  0  0  0  0
 24 25  1  0  0  0  0
 24 26  1  0  0  0  0
 24 27  1  0  0  0  0
 22 23  1  0  0  0  0
 22 24  1  0  0  0  0
M  CHG  1  18  -1
M  END
$$$$
default_name
  -OEChem-01062215323D

 27 26  0     1  0  0  0  0  0999 V2000
   -3.2406   -3.5400    1.2326 H   0  0  0  0  0  0  0  0  0  0  0  0
   -3.1436   -2.6190    0.6606 C   0  0  0  0  0  0  0  0  0  0  0  0
   -3.8786   -1.8920    0.9996 H   0  0  0  0  0  0  0  0  0  0  0  0
   -3.2846   -2.8280   -0.3984 H   0  0  0  0  0  0  0  0  0  0  0  0
   -1.7586   -2.0580    0.8686 C   0  0  0  0  0  0  0  0  0  0  0  0
   -0.9666   -2.6340    1.6026 O   0  0  0  0  0  0  0  0  0  0  0  0
   -1.4866   -0.9220    0.2366 N   0  0  0  0  0  0  0  0  0  0  0  0
   -2.2166   -0.4790   -0.2994 H   0  0  0  0  0  0  0  0  0  0  0  0
   -0.1956   -0.2250    0.2596 C   0  0  1  0  0  0  0  0  0  0  0  0
   -0.3483    0.7850    0.6408 H   0  0  0  0  0  0  0  0  0  0  0  0
    0.7535   -0.9511    1.2343 C   0  0  0  0  0  0  0  0  0  0  0  0
    0.7853   -2.0042    0.9506 H   0  0  0  0  0  0  0  0  0  0  0  0
    1.7578   -0.5368    1.1347 H   0  0  0  0  0  0  0  0  0  0  0  0
    0.3116   -0.8554    2.7043 C   0  0  0  0  0  0  0  0  0  0  0  0
    0.2699    0.1965    2.9971 H   0  0  0  0  0  0  0  0  0  0  0  0
   -0.6972   -1.2685    2.7869 H   0  0  0  0  0  0  0  0  0  0  0  0
    1.2443   -1.5994    3.6715 C   0  0  0  0  0  0  0  0  0  0  0  0
    2.1613   -2.3021    3.1901 O   0  5  0  0  0  0  0  0  0  0  0  0
    1.0357   -1.4304    4.8935 O   0  0  0  0  0  0  0  0  0  0  0  0
    0.3829   -0.0984   -1.1651 C   0  0  0  0  0  0  0  0  0  0  0  0
    0.8612   -1.0795   -1.7382 O   0  0  0  0  0  0  0  0  0  0  0  0
    0.3192    1.1043   -1.7510 N   0  0  0  0  0  0  0  0  0  0  0  0
   -0.0361    1.8721   -1.2007 H   0  0  0  0  0  0  0  0  0  0  0  0
    0.8370    1.3948   -3.0855 C   0  0  0  0  0  0  0  0  0  0  0  0
    0.4457    0.6674   -3.7988 H   0  0  0  0  0  0  0  0  0  0  0  0
    0.5434    2.3999   -3.3916 H   0  0  0  0  0  0  0  0  0  0  0  0
    1.9263    1.3235   -3.0749 H   0  0  0  0  0  0  0  0  0  0  0  0
  5  6  2  0  0  0  0
  5  7  1  0  0  0  0
  2  3  1  0  0  0  0
  2  4  1  0  0  0  0
  2  5  1  0  0  0  0
  1  2  1  0  0  0  0
 20 21  2  0  0  0  0
 20 22  1  0  0  0  0
 17 18  1  0  0  0  0
 17 19  2  0  0  0  0
 14 15  1  0  0  0  0
 14 16  1  0  0  0  0
 14 17  1  0  0  0  0
 11 12  1  0  0  0  0
 11 13  1  0  0  0  0
 11 14  1  0  0  0  0
  9 10  1  0  0  0  0
  9 11  1  0  0  0  0
  9 20  1  0  0  0  0
  7  8  1  0  0  0  0
  7  9  1  0  0  0  0
 24 25  1  0  0  0  0
 24 26  1  0  0  0  0
 24 27  1  0  0  0  0
 22 23  1  0  0  0  0
 22 24  1  0  0  0  0
M  CHG  1  18  -1
M  END
$$$$
default_name
  -OEChem-01062215323D

 27 26  0     1  0  0  0  0  0999 V2000
   -3.2406   -3.5400    1.2326 H   0  0  0  0  0  0  0  0  0  0  0  0
   -3.1436   -2.6190    0.6606 C   0  0  0  0  0  0  0  0  0  0  0  0
   -3.8786   -1.8920    0.9996 H   0  0  0  0  0  0  0  0  0  0  0  0
   -3.2846   -2.8280   -0.3984 H   0  0  0  0  0  0  0  0  0  0  0  0
   -1.7586   -2.0580    0.8686 C   0  0  0  0  0  0  0  0  0  0  0  0
   -0.9666   -2.6340    1.6026 O   0  0  0  0  0  0  0  0  0  0  0  0
   -1.4866   -0.9220    0.2366 N   0  0  0  0  0  0  0  0  0  0  0  0
   -2.2166   -0.4790   -0.2994 H   0  0  0  0  0  0  0  0  0  0  0  0
   -0.1956   -0.2250    0.2596 C   0  0  1  0  0  0  0  0  0  0  0  0
   -0.3483    0.7850    0.6408 H   0  0  0  0  0  0  0  0  0  0  0  0
    0.7535   -0.9511    1.2343 C   0  0  0  0  0  0  0  0  0  0  0  0
    0.7853   -2.0042    0.9506 H   0  0  0  0  0  0  0  0  0  0  0  0
    1.7578   -0.5368    1.1347 H   0  0  0  0  0  0  0  0  0  0  0  0
    0.3116   -0.8554    2.7043 C   0  0  0  0  0  0  0  0  0  0  0  0
    0.2699    0.1965    2.9971 H   0  0  0  0  0  0  0  0  0  0  0  0
   -0.6972   -1.2685    2.7869 H   0  0  0  0  0  0  0  0  0  0  0  0
    1.2443   -1.5994    3.6715 C   0  0  0  0  0  0  0  0  0  0  0  0
    2.1613   -2.3021    3.1901 O   0  5  0  0  0  0  0  0  0  0  0  0
    1.0357   -1.4304    4.8935 O   0  0  0  0  0  0  0  0  0  0  0  0
    0.3829   -0.0984   -1.1651 C   0  0  0  0  0  0  0  0  0  0  0  0
    0.6063   -1.1030   -1.8438 O   0  0  0  0  0  0  0  0  0  0  0  0
    0.6042    1.1371   -1.6324 N   0  0  0  0  0  0  0  0  0  0  0  0
    0.4488    1.9086   -1.0006 H   0  0  0  0  0  0  0  0  0  0  0  0
    1.1640    1.4275   -2.9499 C   0  0  0  0  0  0  0  0  0  0  0  0
    0.6028    0.8889   -3.7153 H   0  0  0  0  0  0  0  0  0  0  0  0
    1.1174    2.4990   -3.1498 H   0  0  0  0  0  0  0  0  0  0  0  0
    2.2045    1.0984   -2.9820 H   0  0  0  0  0  0  0  0  0  0  0  0
  5  6  2  0  0  0  0
  5  7  1  0  0  0  0
  2  3  1  0  0  0  0
  2  4  1  0  0  0  0
  2  5  1  0  0  0  0
  1  2  1  0  0  0  0
 20 21  2  0  0  0  0
 20 22  1  0  0  0  0
 17 18  1  0  0  0  0
 17 19  2  0  0  0  0
 14 15  1  0  0  0  0
 14 16  1  0  0  0  0
 14 17  1  0  0  0  0
 11 12  1  0  0  0  0
 11 13  1  0  0  0  0
 11 14  1  0  0  0  0
  9 10  1  0  0  0  0
  9 11  1  0  0  0  0
  9 20  1  0  0  0  0
  7  8  1  0  0  0  0
  7  9  1  0  0  0  0
 24 25  1  0  0  0  0
 24 26  1  0  0  0  0
 24 27  1  0  0  0  0
 22 23  1  0  0  0  0
 22 24  1  0  0  0  0
M  CHG  1  18  -1
M  END
$$$$
default_name
  -OEChem-01062215323D

 27 26  0     1  0  0  0  0  0999 V2000
   -3.2406   -3.5400    1.2326 H   0  0  0  0  0  0  0  0  0  0  0  0
   -3.1436   -2.6190    0.6606 C   0  0  0  0  0  0  0  0  0  0  0  0
   -3.8786   -1.8920    0.9996 H   0  0  0  0  0  0  0  0  0  0  0  0
   -3.2846   -2.8280   -0.3984 H   0  0  0  0  0  0  0  0  0  0  0  0
   -1.7586   -2.0580    0.8686 C   0  0  0  0  0  0  0  0  0  0  0  0
   -0.9666   -2.6340    1.6026 O   0  0  0  0  0  0  0  0  0  0  0  0
   -1.4866   -0.9220    0.2366 N   0  0  0  0  0  0  0  0  0  0  0  0
   -2.2166   -0.4790   -0.2994 H   0  0  0  0  0  0  0  0  0  0  0  0
   -0.1956   -0.2250    0.2596 C   0  0  1  0  0  0  0  0  0  0  0  0
   -0.3483    0.7850    0.6408 H   0  0  0  0  0  0  0  0  0  0  0  0
    0.7535   -0.9511    1.2343 C   0  0  0  0  0  0  0  0  0  0  0  0
    0.7853   -2.0042    0.9506 H   0  0  0  0  0  0  0  0  0  0  0  0
    1.7578   -0.5368    1.1347 H   0  0  0  0  0  0  0  0  0  0  0  0
    0.3116   -0.8554    2.7043 C   0  0  0  0  0  0  0  0  0  0  0  0
    0.2699    0.1965    2.9971 H   0  0  0  0  0  0  0  0  0  0  0  0
   -0.6972   -1.2685    2.7869 H   0  0  0  0  0  0  0  0  0  0  0  0
    1.2443   -1.5994    3.6715 C   0  0  0  0  0  0  0  0  0  0  0  0
    2.1613   -2.3021    3.1901 O   0  5  0  0  0  0  0  0  0  0  0  0
    1.0357   -1.4304    4.8935 O   0  0  0  0  0  0  0  0  0  0  0  0
    0.3829   -0.0984   -1.1651 C   0  0  0  0  0  0  0  0  0  0  0  0
    0.3522   -1.0545   -1.9427 O   0  0  0  0  0  0  0  0  0  0  0  0
    0.8900    1.0892   -1.5206 N   0  0  0  0  0  0  0  0  0  0  0  0
    0.9303    1.8086   -0.8140 H   0  0  0  0  0  0  0  0  0  0  0  0
    1.4906    1.3678   -2.8226 C   0  0  0  0  0  0  0  0  0  0  0  0
    0.8093    1.0572   -3.6165 H   0  0  0  0  0  0  0  0  0  0  0  0
    1.7006    2.4340   -2.9187 H   0  0  0  0  0  0  0  0  0  0  0  0
    2.4213    0.8054   -2.9200 H   0  0  0  0  0  0  0  0  0  0  0  0
  5  6  2  0  0  0  0
  5  7  1  0  0  0  0
  2  3  1  0  0  0  0
  2  4  1  0  0  0  0
  2  5  1  0  0  0  0
  1  2  1  0  0  0  0
 20 21  2  0  0  0  0
 20 22  1  0  0  0  0
 17 18  1  0  0  0  0
 17 19  2  0  0  0  0
 14 15  1  0  0  0  0
 14 16  1  0  0  0  0
 14 17  1  0  0  0  0
 11 12  1  0  0  0  0
 11 13  1  0  0  0  0
 11 14  1  0  0  0  0
  9 10  1  0  0  0  0
  9 11  1  0  0  0  0
  9 20  1  0  0  0  0
  7  8  1  0  0  0  0
  7  9  1  0  0  0  0
 24 25  1  0  0  0  0
 24 26  1  0  0  0  0
 24 27  1  0  0  0  0
 22 23  1  0  0  0  0
 22 24  1  0  0  0  0
M  CHG  1  18  -1
M  END
$$$$
default_name
  -OEChem-01062215323D

 27 26  0     1  0  0  0  0  0999 V2000
   -3.2406   -3.5400    1.2326 H   0  0  0  0  0  0  0  0  0  0  0  0
   -3.1436   -2.6190    0.6606 C   0  0  0  0  0  0  0  0  0  0  0  0
   -3.8786   -1.8920    0.9996 H   0  0  0  0  0  0  0  0  0  0  0  0
   -3.2846   -2.8280   -0.3984 H   0  0  0  0  0  0  0  0  0  0  0  0
   -1.7586   -2.0580    0.8686 C   0  0  0  0  0  0  0  0  0  0  0  0
   -0.9666   -2.6340    1.6026 O   0  0  0  0  0  0  0  0  0  0  0  0
   -1.4866   -0.9220    0.2366 N   0  0  0  0  0  0  0  0  0  0  0  0
   -2.2166   -0.4790   -0.2994 H   0  0  0  0  0  0  0  0  0  0  0  0
   -0.1956   -0.2250    0.2596 C   0  0  1  0  0  0  0  0  0  0  0  0
   -0.3483    0.7850    0.6408 H   0  0  0  0  0  0  0  0  0  0  0  0
    0.7535   -0.9511    1.2343 C   0  0  0  0  0  0  0  0  0  0  0  0
    0.7853   -2.0042    0.9506 H   0  0  0  0  0  0  0  0  0  0  0  0
    1.7578   -0.5368    1.1347 H   0  0  0  0  0  0  0  0  0  0  0  0
    0.3116   -0.8554    2.7043 C   0  0  0  0  0  0  0  0  0  0  0  0
    0.2699    0.1965    2.9971 H   0  0  0  0  0  0  0  0  0  0  0  0
   -0.6972   -1.2685    2.7869 H   0  0  0  0  0  0  0  0  0  0  0  0
    1.2443   -1.5994    3.6715 C   0  0  0  0  0  0  0  0  0  0  0  0
    2.1613   -2.3021    3.1901 O   0  5  0  0  0  0  0  0  0  0  0  0
    1.0357   -1.4304    4.8935 O   0  0  0  0  0  0  0  0  0  0  0  0
    0.3829   -0.0984   -1.1651 C   0  0  0  0  0  0  0  0  0  0  0  0
    0.1163   -0.9374   -2.0281 O   0  0  0  0  0  0  0  0  0  0  0  0
    1.1568    0.9638   -1.4234 N   0  0  0  0  0  0  0  0  0  0  0  0
    1.3753    1.5788   -0.6537 H   0  0  0  0  0  0  0  0  0  0  0  0
    1.7945    1.2197   -2.7124 C   0  0  0  0  0  0  0  0  0  0  0  0
    1.0511    1.1608   -3.5091 H   0  0  0  0  0  0  0  0  0  0  0  0
    2.2534    2.2094   -2.7143 H   0  0  0  0  0  0  0  0  0  0  0  0
    2.5620    0.4646   -2.8931 H   0  0  0  0  0  0  0  0  0  0  0  0
  5  6  2  0  0  0  0
  5  7  1  0  0  0  0
  2  3  1  0  0  0  0
  2  4  1  0  0  0  0
  2  5  1  0  0  0  0
  1  2  1  0  0  0  0
 20 21  2  0  0  0  0
 20 22  1  0  0  0  0
 17 18  1  0  0  0  0
 17 19  2  0  0  0  0
 14 15  1  0  0  0  0
 14 16  1  0  0  0  0
 14 17  1  0  0  0  0
 11 12  1  0  0  0  0
 11 13  1  0  0  0  0
 11 14  1  0  0  0  0
  9 10  1  0  0  0  0
  9 11  1  0  0  0  0
  9 20  1  0  0  0  0
  7  8  1  0  0  0  0
  7  9  1  0  0  0  0
 24 25  1  0  0  0  0
 24 26  1  0  0  0  0
 24 27  1  0  0  0  0
 22 23  1  0  0  0  0
 22 24  1  0  0  0  0
M  CHG  1  18  -1
M  END
$$$$
default_name
  -OEChem-01062215323D

 27 26  0     1  0  0  0  0  0999 V2000
   -3.2406   -3.5400    1.2326 H   0  0  0  0  0  0  0  0  0  0  0  0
   -3.1436   -2.6190    0.6606 C   0  0  0  0  0  0  0  0  0  0  0  0
   -3.8786   -1.8920    0.9996 H   0  0  0  0  0  0  0  0  0  0  0  0
   -3.2846   -2.8280   -0.3984 H   0  0  0  0  0  0  0  0  0  0  0  0
   -1.7586   -2.0580    0.8686 C   0  0  0  0  0  0  0  0  0  0  0  0
   -0.9666   -2.6340    1.6026 O   0  0  0  0  0  0  0  0  0  0  0  0
   -1.4866   -0.9220    0.2366 N   0  0  0  0  0  0  0  0  0  0  0  0
   -2.2166   -0.4790   -0.2994 H   0  0  0  0  0  0  0  0  0  0  0  0
   -0.1956   -0.2250    0.2596 C   0  0  1  0  0  0  0  0  0  0  0  0
   -0.3483    0.7850    0.6408 H   0  0  0  0  0  0  0  0  0  0  0  0
    0.7535   -0.9511    1.2343 C   0  0  0  0  0  0  0  0  0  0  0  0
    0.7853   -2.0042    0.9506 H   0  0  0  0  0  0  0  0  0  0  0  0
    1.7578   -0.5368    1.1347 H   0  0  0  0  0  0  0  0  0  0  0  0
    0.3116   -0.8554    2.7043 C   0  0  0  0  0  0  0  0  0  0  0  0
    0.2699    0.1965    2.9971 H   0  0  0  0  0  0  0  0  0  0  0  0
   -0.6972   -1.2685    2.7869 H   0  0  0  0  0  0  0  0  0  0  0  0
    1.2443   -1.5994    3.6715 C   0  0  0  0  0  0  0  0  0  0  0  0
    2.1613   -2.3021    3.1901 O   0  5  0  0  0  0  0  0  0  0  0  0
    1.0357   -1.4304    4.8935 O   0  0  0  0  0  0  0  0  0  0  0  0
    0.3829   -0.0984   -1.1651 C   0  0  0  0  0  0  0  0  0  0  0  0
   -0.0855   -0.7596   -2.0942 O   0  0  0  0  0  0  0  0  0  0  0  0
    1.3867    0.7694   -1.3474 N   0  0  0  0  0  0  0  0  0  0  0  0
    1.7537    1.2350   -0.5307 H   0  0  0  0  0  0  0  0  0  0  0  0
    2.0550    0.9933   -2.6267 C   0  0  0  0  0  0  0  0  0  0  0  0
    1.3117    1.1927   -3.4005 H   0  0  0  0  0  0  0  0  0  0  0  0
    2.7380    1.8405   -2.5503 H   0  0  0  0  0  0  0  0  0  0  0  0
    2.6170    0.0992   -2.9033 H   0  0  0  0  0  0  0  0  0  0  0  0
  5  6  2  0  0  0  0
  5  7  1  0  0  0  0
  2  3  1  0  0  0  0
  2  4  1  0  0  0  0
  2  5  1  0  0  0  0
  1  2  1  0  0  0  0
 20 21  2  0  0  0  0
 20 22  1  0  0  0  0
 17 18  1  0  0  0  0
 17 19  2  0  0  0  0
 14 15  1  0  0  0  0
 14 16  1  0  0  0  0
 14 17  1  0  0  0  0
 11 12  1  0  0  0  0
 11 13  1  0  0  0  0
 11 14  1  0  0  0  0
  9 10  1  0  0  0  0
  9 11  1  0  0  0  0
  9 20  1  0  0  0  0
  7  8  1  0  0  0  0
  7  9  1  0  0  0  0
 24 25  1  0  0  0  0
 24 26  1  0  0  0  0
 24 27  1  0  0  0  0
 22 23  1  0  0  0  0
 22 24  1  0  0  0  0
M  CHG  1  18  -1
M  END
$$$$
default_name
  -OEChem-01062215323D

 27 26  0     1  0  0  0  0  0999 V2000
   -3.2406   -3.5400    1.2326 H   0  0  0  0  0  0  0  0  0  0  0  0
   -3.1436   -2.6190    0.6606 C   0  0  0  0  0  0  0  0  0  0  0  0
   -3.8786   -1.8920    0.9996 H   0  0  0  0  0  0  0  0  0  0  0  0
   -3.2846   -2.8280   -0.3984 H   0  0  0  0  0  0  0  0  0  0  0  0
   -1.7586   -2.0580    0.8686 C   0  0  0  0  0  0  0  0  0  0  0  0
   -0.9666   -2.6340    1.6026 O   0  0  0  0  0  0  0  0  0  0  0  0
   -1.4866   -0.9220    0.2366 N   0  0  0  0  0  0  0  0  0  0  0  0
   -2.2166   -0.4790   -0.2994 H   0  0  0  0  0  0  0  0  0  0  0  0
   -0.1956   -0.2250    0.2596 C   0  0  1  0  0  0  0  0  0  0  0  0
   -0.2898    0.6689    0.8768 H   0  0  0  0  0  0  0  0  0  0  0  0
    0.8590   -1.1363    0.9193 C   0  0  0  0  0  0  0  0  0  0  0  0
    0.8449   -2.0965    0.4013 H   0  0  0  0  0  0  0  0  0  0  0  0
    1.8476   -0.6919    0.7946 H   0  0  0  0  0  0  0  0  0  0  0  0
    0.6030   -1.3855    2.4152 C   0  0  0  0  0  0  0  0  0  0  0  0
    0.6085   -0.4287    2.9429 H   0  0  0  0  0  0  0  0  0  0  0  0
   -0.3920   -1.8250    2.5244 H   0  0  0  0  0  0  0  0  0  0  0  0
    1.6403   -2.3129    3.0657 C   0  0  0  0  0  0  0  0  0  0  0  0
    2.4836   -2.8707    2.3281 O   0  5  0  0  0  0  0  0  0  0  0  0
    1.5858   -2.4301    4.3101 O   0  0  0  0  0  0  0  0  0  0  0  0
    0.2039    0.2329   -1.1586 C   0  0  0  0  0  0  0  0  0  0  0  0
   -0.5378    0.0191   -2.1198 O   0  0  0  0  0  0  0  0  0  0  0  0
    1.3658    0.8861   -1.2904 N   0  0  0  0  0  0  0  0  0  0  0  0
    1.9449    0.9764   -0.4689 H   0  0  0  0  0  0  0  0  0  0  0  0
    1.8955    1.3684   -2.5633 C   0  0  0  0  0  0  0  0  0  0  0  0
    1.1346    1.9560   -3.0798 H   0  0  0  0  0  0  0  0  0  0  0  0
    2.7790    1.9852   -2.3927 H   0  0  0  0  0  0  0  0  0  0  0  0
    2.1647    0.5160   -3.1899 H   0  0  0  0  0  0  0  0  0  0  0  0
  5  6  2  0  0  0  0
  5  7  1  0  0  0  0
  2  3  1  0  0  0  0
  2  4  1  0  0  0  0
  2  5  1  0  0  0  0
  1  2  1  0  0  0  0
 20 21  2  0  0  0  0
 20 22  1  0  0  0  0
 17 18  1  0  0  0  0
 17 19  2  0  0  0  0
 14 15  1  0  0  0  0
 14 16  1  0  0  0  0
 14 17  1  0  0  0  0
 11 12  1  0  0  0  0
 11 13  1  0  0  0  0
 11 14  1  0  0  0  0
  9 10  1  0  0  0  0
  9 11  1  0  0  0  0
  9 20  1  0  0  0  0
  7  8  1  0  0  0  0
  7  9  1  0  0  0  0
 24 25  1  0  0  0  0
 24 26  1  0  0  0  0
 24 27  1  0  0  0  0
 22 23  1  0  0  0  0
 22 24  1  0  0  0  0
M  CHG  1  18  -1
M  END
$$$$
default_name
  -OEChem-01062215323D

 27 26  0     1  0  0  0  0  0999 V2000
   -3.2406   -3.5400    1.2326 H   0  0  0  0  0  0  0  0  0  0  0  0
   -3.1436   -2.6190    0.6606 C   0  0  0  0  0  0  0  0  0  0  0  0
   -3.8786   -1.8920    0.9996 H   0  0  0  0  0  0  0  0  0  0  0  0
   -3.2846   -2.8280   -0.3984 H   0  0  0  0  0  0  0  0  0  0  0  0
   -1.7586   -2.0580    0.8686 C   0  0  0  0  0  0  0  0  0  0  0  0
   -0.9666   -2.6340    1.6026 O   0  0  0  0  0  0  0  0  0  0  0  0
   -1.4866   -0.9220    0.2366 N   0  0  0  0  0  0  0  0  0  0  0  0
   -2.2166   -0.4790   -0.2994 H   0  0  0  0  0  0  0  0  0  0  0  0
   -0.1956   -0.2250    0.2596 C   0  0  1  0  0  0  0  0  0  0  0  0
   -0.2898    0.6689    0.8768 H   0  0  0  0  0  0  0  0  0  0  0  0
    0.8590   -1.1363    0.9193 C   0  0  0  0  0  0  0  0  0  0  0  0
    0.8449   -2.0965    0.4013 H   0  0  0  0  0  0  0  0  0  0  0  0
    1.8476   -0.6919    0.7946 H   0  0  0  0  0  0  0  0  0  0  0  0
    0.6030   -1.3855    2.4152 C   0  0  0  0  0  0  0  0  0  0  0  0
    0.6085   -0.4287    2.9429 H   0  0  0  0  0  0  0  0  0  0  0  0
   -0.3920   -1.8250    2.5244 H   0  0  0  0  0  0  0  0  0  0  0  0
    1.6403   -2.3129    3.0657 C   0  0  0  0  0  0  0  0  0  0  0  0
    2.4836   -2.8707    2.3281 O   0  5  0  0  0  0  0  0  0  0  0  0
    1.5858   -2.4301    4.3101 O   0  0  0  0  0  0  0  0  0  0  0  0
    0.2039    0.2329   -1.1586 C   0  0  0  0  0  0  0  0  0  0  0  0
   -0.6316    0.2736   -2.0640 O   0  0  0  0  0  0  0  0  0  0  0  0
    1.4769    0.6025   -1.3507 N   0  0  0  0  0  0  0  0  0  0  0  0
    2.1158    0.4911   -0.5775 H   0  0  0  0  0  0  0  0  0  0  0  0
    2.0183    1.0423   -2.6340 C   0  0  0  0  0  0  0  0  0  0  0  0
    1.3875    1.8300   -3.0493 H   0  0  0  0  0  0  0  0  0  0  0  0
    3.0338    1.4190   -2.5038 H   0  0  0  0  0  0  0  0  0  0  0  0
    2.0309    0.2008   -3.3294 H   0  0  0  0  0  0  0  0  0  0  0  0
  5  6  2  0  0  0  0
  5  7  1  0  0  0  0
  2  3  1  0  0  0  0
  2  4  1  0  0  0  0
  2  5  1  0  0  0  0
  1  2  1  0  0  0  0
 20 21  2  0  0  0  0
 20 22  1  0  0  0  0
 17 18  1  0  0  0  0
 17 19  2  0  0  0  0
 14 15  1  0  0  0  0
 14 16  1  0  0  0  0
 14 17  1  0  0  0  0
 11 12  1  0  0  0  0
 11 13  1  0  0  0  0
 11 14  1  0  0  0  0
  9 10  1  0  0  0  0
  9 11  1  0  0  0  0
  9 20  1  0  0  0  0
  7  8  1  0  0  0  0
  7  9  1  0  0  0  0
 24 25  1  0  0  0  0
 24 26  1  0  0  0  0
 24 27  1  0  0  0  0
 22 23  1  0  0  0  0
 22 24  1  0  0  0  0
M  CHG  1  18  -1
M  END
$$$$
default_name
  -OEChem-01062215323D

 27 26  0     1  0  0  0  0  0999 V2000
   -3.2406   -3.5400    1.2326 H   0  0  0  0  0  0  0  0  0  0  0  0
   -3.1436   -2.6190    0.6606 C   0  0  0  0  0  0  0  0  0  0  0  0
   -3.8786   -1.8920    0.9996 H   0  0  0  0  0  0  0  0  0  0  0  0
   -3.2846   -2.8280   -0.3984 H   0  0  0  0  0  0  0  0  0  0  0  0
   -1.7586   -2.0580    0.8686 C   0  0  0  0  0  0  0  0  0  0  0  0
   -0.9666   -2.6340    1.6026 O   0  0  0  0  0  0  0  0  0  0  0  0
   -1.4866   -0.9220    0.2366 N   0  0  0  0  0  0  0  0  0  0  0  0
   -2.2166   -0.4790   -0.2994 H   0  0  0  0  0  0  0  0  0  0  0  0
   -0.1956   -0.2250    0.2596 C   0  0  1  0  0  0  0  0  0  0  0  0
   -0.2898    0.6689    0.8768 H   0  0  0  0  0  0  0  0  0  0  0  0
    0.8590   -1.1363    0.9193 C   0  0  0  0  0  0  0  0  0  0  0  0
    0.8449   -2.0965    0.4013 H   0  0  0  0  0  0  0  0  0  0  0  0
    1.8476   -0.6919    0.7946 H   0  0  0  0  0  0  0  0  0  0  0  0
    0.6030   -1.3855    2.4152 C   0  0  0  0  0  0  0  0  0  0  0  0
    0.6085   -0.4287    2.9429 H   0  0  0  0  0  0  0  0  0  0  0  0
   -0.3920   -1.8250    2.5244 H   0  0  0  0  0  0  0  0  0  0  0  0
    1.6403   -2.3129    3.0657 C   0  0  0  0  0  0  0  0  0  0  0  0
    2.4836   -2.8707    2.3281 O   0  5  0  0  0  0  0  0  0  0  0  0
    1.5858   -2.4301    4.3101 O   0  0  0  0  0  0  0  0  0  0  0  0
    0.2039    0.2329   -1.1586 C   0  0  0  0  0  0  0  0  0  0  0  0
   -0.6575    0.5380   -1.9860 O   0  0  0  0  0  0  0  0  0  0  0  0
    1.5121    0.3062   -1.4364 N   0  0  0  0  0  0  0  0  0  0  0  0
    2.1570   -0.0111   -0.7280 H   0  0  0  0  0  0  0  0  0  0  0  0
    2.0539    0.7028   -2.7336 C   0  0  0  0  0  0  0  0  0  0  0  0
    1.6041    1.6462   -3.0476 H   0  0  0  0  0  0  0  0  0  0  0  0
    3.1367    0.8190   -2.6685 H   0  0  0  0  0  0  0  0  0  0  0  0
    1.8160   -0.0624   -3.4749 H   0  0  0  0  0  0  0  0  0  0  0  0
  5  6  2  0  0  0  0
  5  7  1  0  0  0  0
  2  3  1  0  0  0  0
  2  4  1  0  0  0  0
  2  5  1  0  0  0  0
  1  2  1  0  0  0  0
 20 21  2  0  0  0  0
 20 22  1  0  0  0  0
 17 18  1  0  0  0  0
 17 19  2  0  0  0  0
 14 15  1  0  0  0  0
 14 16  1  0  0  0  0
 14 17  1  0  0  0  0
 11 12  1  0  0  0  0
 11 13  1  0  0  0  0
 11 14  1  0  0  0  0
  9 10  1  0  0  0  0
  9 11  1  0  0  0  0
  9 20  1  0  0  0  0
  7  8  1  0  0  0  0
  7  9  1  0  0  0  0
 24 25  1  0  0  0  0
 24 26  1  0  0  0  0
 24 27  1  0  0  0  0
 22 23  1  0  0  0  0
 22 24  1  0  0  0  0
M  CHG  1  18  -1
M  END
$$$$
default_name
  -OEChem-01062215323D

 27 26  0     1  0  0  0  0  0999 V2000
   -3.2406   -3.5400    1.2326 H   0  0  0  0  0  0  0  0  0  0  0  0
   -3.1436   -2.6190    0.6606 C   0  0  0  0  0  0  0  0  0  0  0  0
   -3.8786   -1.8920    0.9996 H   0  0  0  0  0  0  0  0  0  0  0  0
   -3.2846   -2.8280   -0.3984 H   0  0  0  0  0  0  0  0  0  0  0  0
   -1.7586   -2.0580    0.8686 C   0  0  0  0  0  0  0  0  0  0  0  0
   -0.9666   -2.6340    1.6026 O   0  0  0  0  0  0  0  0  0  0  0  0
   -1.4866   -0.9220    0.2366 N   0  0  0  0  0  0  0  0  0  0  0  0
   -2.2166   -0.4790   -0.2994 H   0  0  0  0  0  0  0  0  0  0  0  0
   -0.1956   -0.2250    0.2596 C   0  0  1  0  0  0  0  0  0  0  0  0
   -0.2898    0.6689    0.8768 H   0  0  0  0  0  0  0  0  0  0  0  0
    0.8590   -1.1363    0.9193 C   0  0  0  0  0  0  0  0  0  0  0  0
    0.8449   -2.0965    0.4013 H   0  0  0  0  0  0  0  0  0  0  0  0
    1.8476   -0.6919    0.7946 H   0  0  0  0  0  0  0  0  0  0  0  0
    0.6030   -1.3855    2.4152 C   0  0  0  0  0  0  0  0  0  0  0  0
    0.6085   -0.4287    2.9429 H   0  0  0  0  0  0  0  0  0  0  0  0
   -0.3920   -1.8250    2.5244 H   0  0  0  0  0  0  0  0  0  0  0  0
    1.6403   -2.3129    3.0657 C   0  0  0  0  0  0  0  0  0  0  0  0
    2.4836   -2.8707    2.3281 O   0  5  0  0  0  0  0  0  0  0  0  0
    1.5858   -2.4301    4.3101 O   0  0  0  0  0  0  0  0  0  0  0  0
    0.2039    0.2329   -1.1586 C   0  0  0  0  0  0  0  0  0  0  0  0
   -0.6136    0.7943   -1.8908 O   0  0  0  0  0  0  0  0  0  0  0  0
    1.4691    0.0173   -1.5418 N   0  0  0  0  0  0  0  0  0  0  0  0
    2.0658   -0.4959   -0.9102 H   0  0  0  0  0  0  0  0  0  0  0  0
    1.9999    0.3731   -2.8552 C   0  0  0  0  0  0  0  0  0  0  0  0
    1.7697    1.4170   -3.0750 H   0  0  0  0  0  0  0  0  0  0  0  0
    3.0807    0.2260   -2.8758 H   0  0  0  0  0  0  0  0  0  0  0  0
    1.5345   -0.2558   -3.6166 H   0  0  0  0  0  0  0  0  0  0  0  0
  5  6  2  0  0  0  0
  5  7  1  0  0  0  0
  2  3  1  0  0  0  0
  2  4  1  0  0  0  0
  2  5  1  0  0  0  0
  1  2  1  0  0  0  0
 20 21  2  0  0  0  0
 20 22  1  0  0  0  0
 17 18  1  0  0  0  0
 17 19  2  0  0  0  0
 14 15  1  0  0  0  0
 14 16  1  0  0  0  0
 14 17  1  0  0  0  0
 11 12  1  0  0  0  0
 11 13  1  0  0  0  0
 11 14  1  0  0  0  0
  9 10  1  0  0  0  0
  9 11  1  0  0  0  0
  9 20  1  0  0  0  0
  7  8  1  0  0  0  0
  7  9  1  0  0  0  0
 24 25  1  0  0  0  0
 24 26  1  0  0  0  0
 24 27  1  0  0  0  0
 22 23  1  0  0  0  0
 22 24  1  0  0  0  0
M  CHG  1  18  -1
M  END
$$$$
default_name
  -OEChem-01062215323D

 27 26  0     1  0  0  0  0  0999 V2000
   -3.2406   -3.5400    1.2326 H   0  0  0  0  0  0  0  0  0  0  0  0
   -3.1436   -2.6190    0.6606 C   0  0  0  0  0  0  0  0  0  0  0  0
   -3.8786   -1.8920    0.9996 H   0  0  0  0  0  0  0  0  0  0  0  0
   -3.2846   -2.8280   -0.3984 H   0  0  0  0  0  0  0  0  0  0  0  0
   -1.7586   -2.0580    0.8686 C   0  0  0  0  0  0  0  0  0  0  0  0
   -0.9666   -2.6340    1.6026 O   0  0  0  0  0  0  0  0  0  0  0  0
   -1.4866   -0.9220    0.2366 N   0  0  0  0  0  0  0  0  0  0  0  0
   -2.2166   -0.4790   -0.2994 H   0  0  0  0  0  0  0  0  0  0  0  0
   -0.1956   -0.2250    0.2596 C   0  0  1  0  0  0  0  0  0  0  0  0
   -0.2898    0.6689    0.8768 H   0  0  0  0  0  0  0  0  0  0  0  0
    0.8590   -1.1363    0.9193 C   0  0  0  0  0  0  0  0  0  0  0  0
    0.8449   -2.0965    0.4013 H   0  0  0  0  0  0  0  0  0  0  0  0
    1.8476   -0.6919    0.7946 H   0  0  0  0  0  0  0  0  0  0  0  0
    0.6030   -1.3855    2.4152 C   0  0  0  0  0  0  0  0  0  0  0  0
    0.6085   -0.4287    2.9429 H   0  0  0  0  0  0  0  0  0  0  0  0
   -0.3920   -1.8250    2.5244 H   0  0  0  0  0  0  0  0  0  0  0  0
    1.6403   -2.3129    3.0657 C   0  0  0  0  0  0  0  0  0  0  0  0
    2.4836   -2.8707    2.3281 O   0  5  0  0  0  0  0  0  0  0  0  0
    1.5858   -2.4301    4.3101 O   0  0  0  0  0  0  0  0  0  0  0  0
    0.2039    0.2329   -1.1586 C   0  0  0  0  0  0  0  0  0  0  0  0
   -0.5029    1.0251   -1.7851 O   0  0  0  0  0  0  0  0  0  0  0  0
    1.3506   -0.2444   -1.6597 N   0  0  0  0  0  0  0  0  0  0  0  0
    1.8484   -0.9303   -1.1117 H   0  0  0  0  0  0  0  0  0  0  0  0
    1.8600    0.0757   -2.9907 C   0  0  0  0  0  0  0  0  0  0  0  0
    1.8731    1.1580   -3.1295 H   0  0  0  0  0  0  0  0  0  0  0  0
    2.8696   -0.3197   -3.1114 H   0  0  0  0  0  0  0  0  0  0  0  0
    1.2058   -0.3661   -3.7448 H   0  0  0  0  0  0  0  0  0  0  0  0
  5  6  2  0  0  0  0
  5  7  1  0  0  0  0
  2  3  1  0  0  0  0
  2  4  1  0  0  0  0
  2  5  1  0  0  0  0
  1  2  1  0  0  0  0
 20 21  2  0  0  0  0
 20 22  1  0  0  0  0
 17 18  1  0  0  0  0
 17 19  2  0  0  0  0
 14 15  1  0  0  0  0
 14 16  1  0  0  0  0
 14 17  1  0  0  0  0
 11 12  1  0  0  0  0
 11 13  1  0  0  0  0
 11 14  1  0  0  0  0
  9 10  1  0  0  0  0
  9 11  1  0  0  0  0
  9 20  1  0  0  0  0
  7  8  1  0  0  0  0
  7  9  1  0  0  0  0
 24 25  1  0  0  0  0
 24 26  1  0  0  0  0
 24 27  1  0  0  0  0
 22 23  1  0  0  0  0
 22 24  1  0  0  0  0
M  CHG  1  18  -1
M  END
$$$$
default_name
  -OEChem-01062215323D

 27 26  0     1  0  0  0  0  0999 V2000
   -3.2406   -3.5400    1.2326 H   0  0  0  0  0  0  0  0  0  0  0  0
   -3.1436   -2.6190    0.6606 C   0  0  0  0  0  0  0  0  0  0  0  0
   -3.8786   -1.8920    0.9996 H   0  0  0  0  0  0  0  0  0  0  0  0
   -3.2846   -2.8280   -0.3984 H   0  0  0  0  0  0  0  0  0  0  0  0
   -1.7586   -2.0580    0.8686 C   0  0  0  0  0  0  0  0  0  0  0  0
   -0.9666   -2.6340    1.6026 O   0  0  0  0  0  0  0  0  0  0  0  0
   -1.4866   -0.9220    0.2366 N   0  0  0  0  0  0  0  0  0  0  0  0
   -2.2166   -0.4790   -0.2994 H   0  0  0  0  0  0  0  0  0  0  0  0
   -0.1956   -0.2250    0.2596 C   0  0  1  0  0  0  0  0  0  0  0  0
   -0.2898    0.6689    0.8768 H   0  0  0  0  0  0  0  0  0  0  0  0
    0.8590   -1.1363    0.9193 C   0  0  0  0  0  0  0  0  0  0  0  0
    0.8449   -2.0965    0.4013 H   0  0  0  0  0  0  0  0  0  0  0  0
    1.8476   -0.6919    0.7946 H   0  0  0  0  0  0  0  0  0  0  0  0
    0.6030   -1.3855    2.4152 C   0  0  0  0  0  0  0  0  0  0  0  0
    0.6085   -0.4287    2.9429 H   0  0  0  0  0  0  0  0  0  0  0  0
   -0.3920   -1.8250    2.5244 H   0  0  0  0  0  0  0  0  0  0  0  0
    1.6403   -2.3129    3.0657 C   0  0  0  0  0  0  0  0  0  0  0  0
    2.4836   -2.8707    2.3281 O   0  5  0  0  0  0  0  0  0  0  0  0
    1.5858   -2.4301    4.3101 O   0  0  0  0  0  0  0  0  0  0  0  0
    0.2039    0.2329   -1.1586 C   0  0  0  0  0  0  0  0  0  0  0  0
   -0.3329    1.2146   -1.6761 O   0  0  0  0  0  0  0  0  0  0  0  0
    1.1649   -0.4612   -1.7820 N   0  0  0  0  0  0  0  0  0  0  0  0
    1.5196   -1.2847   -1.3188 H   0  0  0  0  0  0  0  0  0  0  0  0
    1.6437   -0.1693   -3.1307 C   0  0  0  0  0  0  0  0  0  0  0  0
    1.9071    0.8869   -3.2074 H   0  0  0  0  0  0  0  0  0  0  0  0
    2.5178   -0.7807   -3.3594 H   0  0  0  0  0  0  0  0  0  0  0  0
    0.8522   -0.3859   -3.8508 H   0  0  0  0  0  0  0  0  0  0  0  0
  5  6  2  0  0  0  0
  5  7  1  0  0  0  0
  2  3  1  0  0  0  0
  2  4  1  0  0  0  0
  2  5  1  0  0  0  0
  1  2  1  0  0  0  0
 20 21  2  0  0  0  0
 20 22  1  0  0  0  0
 17 18  1  0  0  0  0
 17 19  2  0  0  0  0
 14 15  1  0  0  0  0
 14 16  1  0  0  0  0
 14 17  1  0  0  0  0
 11 12  1  0  0  0  0
 11 13  1  0  0  0  0
 11 14  1  0  0  0  0
  9 10  1  0  0  0  0
  9 11  1  0  0  0  0
  9 20  1  0  0  0  0
  7  8  1  0  0  0  0
  7  9  1  0  0  0  0
 24 25  1  0  0  0  0
 24 26  1  0  0  0  0
 24 27  1  0  0  0  0
 22 23  1  0  0  0  0
 22 24  1  0  0  0  0
M  CHG  1  18  -1
M  END
$$$$
default_name
  -OEChem-01062215323D

 27 26  0     1  0  0  0  0  0999 V2000
   -3.2406   -3.5400    1.2326 H   0  0  0  0  0  0  0  0  0  0  0  0
   -3.1436   -2.6190    0.6606 C   0  0  0  0  0  0  0  0  0  0  0  0
   -3.8786   -1.8920    0.9996 H   0  0  0  0  0  0  0  0  0  0  0  0
   -3.2846   -2.8280   -0.3984 H   0  0  0  0  0  0  0  0  0  0  0  0
   -1.7586   -2.0580    0.8686 C   0  0  0  0  0  0  0  0  0  0  0  0
   -0.9666   -2.6340    1.6026 O   0  0  0  0  0  0  0  0  0  0  0  0
   -1.4866   -0.9220    0.2366 N   0  0  0  0  0  0  0  0  0  0  0  0
   -2.2166   -0.4790   -0.2994 H   0  0  0  0  0  0  0  0  0  0  0  0
   -0.1956   -0.2250    0.2596 C   0  0  1  0  0  0  0  0  0  0  0  0
   -0.2898    0.6689    0.8768 H   0  0  0  0  0  0  0  0  0  0  0  0
    0.8590   -1.1363    0.9193 C   0  0  0  0  0  0  0  0  0  0  0  0
    0.8449   -2.0965    0.4013 H   0  0  0  0  0  0  0  0  0  0  0  0
    1.8476   -0.6919    0.7946 H   0  0  0  0  0  0  0  0  0  0  0  0
    0.6030   -1.3855    2.4152 C   0  0  0  0  0  0  0  0  0  0  0  0
    0.6085   -0.4287    2.9429 H   0  0  0  0  0  0  0  0  0  0  0  0
   -0.3920   -1.8250    2.5244 H   0  0  0  0  0  0  0  0  0  0  0  0
    1.6403   -2.3129    3.0657 C   0  0  0  0  0  0  0  0  0  0  0  0
    2.4836   -2.8707    2.3281 O   0  5  0  0  0  0  0  0  0  0  0  0
    1.5858   -2.4301    4.3101 O   0  0  0  0  0  0  0  0  0  0  0  0
    0.2039    0.2329   -1.1586 C   0  0  0  0  0  0  0  0  0  0  0  0
   -0.1153    1.3499   -1.5711 O   0  0  0  0  0  0  0  0  0  0  0  0
    0.9246   -0.6182   -1.9004 N   0  0  0  0  0  0  0  0  0  0  0  0
    1.1017   -1.5349   -1.5172 H   0  0  0  0  0  0  0  0  0  0  0  0
    1.3657   -0.3451   -3.2658 C   0  0  0  0  0  0  0  0  0  0  0  0
    1.8695    0.6222   -3.3035 H   0  0  0  0  0  0  0  0  0  0  0  0
    2.0492   -1.1257   -3.6027 H   0  0  0  0  0  0  0  0  0  0  0  0
    0.4978   -0.3138   -3.9274 H   0  0  0  0  0  0  0  0  0  0  0  0
  5  6  2  0  0  0  0
  5  7  1  0  0  0  0
  2  3  1  0  0  0  0
  2  4  1  0  0  0  0
  2  5  1  0  0  0  0
  1  2  1  0  0  0  0
 20 21  2  0  0  0  0
 20 22  1  0  0  0  0
 17 18  1  0  0  0  0
 17 19  2  0  0  0  0
 14 15  1  0  0  0  0
 14 16  1  0  0  0  0
 14 17  1  0  0  0  0
 11 12  1  0  0  0  0
 11 13  1  0  0  0  0
 11 14  1  0  0  0  0
  9 10  1  0  0  0  0
  9 11  1  0  0  0  0
  9 20  1  0  0  0  0
  7  8  1  0  0  0  0
  7  9  1  0  0  0  0
 24 25  1  0  0  0  0
 24 26  1  0  0  0  0
 24 27  1  0  0  0  0
 22 23  1  0  0  0  0
 22 24  1  0  0  0  0
M  CHG  1  18  -1
M  END
$$$$
default_name
  -OEChem-01062215323D

 27 26  0     1  0  0  0  0  0999 V2000
   -3.2406   -3.5400    1.2326 H   0  0  0  0  0  0  0  0  0  0  0  0
   -3.1436   -2.6190    0.6606 C   0  0  0  0  0  0  0  0  0  0  0  0
   -3.8786   -1.8920    0.9996 H   0  0  0  0  0  0  0  0  0  0  0  0
   -3.2846   -2.8280   -0.3984 H   0  0  0  0  0  0  0  0  0  0  0  0
   -1.7586   -2.0580    0.8686 C   0  0  0  0  0  0  0  0  0  0  0  0
   -0.9666   -2.6340    1.6026 O   0  0  0  0  0  0  0  0  0  0  0  0
   -1.4866   -0.9220    0.2366 N   0  0  0  0  0  0  0  0  0  0  0  0
   -2.2166   -0.4790   -0.2994 H   0  0  0  0  0  0  0  0  0  0  0  0
   -0.1956   -0.2250    0.2596 C   0  0  1  0  0  0  0  0  0  0  0  0
   -0.2898    0.6689    0.8768 H   0  0  0  0  0  0  0  0  0  0  0  0
    0.8590   -1.1363    0.9193 C   0  0  0  0  0  0  0  0  0  0  0  0
    0.8449   -2.0965    0.4013 H   0  0  0  0  0  0  0  0  0  0  0  0
    1.8476   -0.6919    0.7946 H   0  0  0  0  0  0  0  0  0  0  0  0
    0.6030   -1.3855    2.4152 C   0  0  0  0  0  0  0  0  0  0  0  0
    0.6085   -0.4287    2.9429 H   0  0  0  0  0  0  0  0  0  0  0  0
   -0.3920   -1.8250    2.5244 H   0  0  0  0  0  0  0  0  0  0  0  0
    1.6403   -2.3129    3.0657 C   0  0  0  0  0  0  0  0  0  0  0  0
    2.4836   -2.8707    2.3281 O   0  5  0  0  0  0  0  0  0  0  0  0
    1.5858   -2.4301    4.3101 O   0  0  0  0  0  0  0  0  0  0  0  0
    0.2039    0.2329   -1.1586 C   0  0  0  0  0  0  0  0  0  0  0  0
    0.1352    1.4217   -1.4773 O   0  0  0  0  0  0  0  0  0  0  0  0
    0.6461   -0.7047   -2.0068 N   0  0  0  0  0  0  0  0  0  0  0  0
    0.6234   -1.6638   -1.6936 H   0  0  0  0  0  0  0  0  0  0  0  0
    1.0449   -0.4397   -3.3867 C   0  0  0  0  0  0  0  0  0  0  0  0
    1.7628    0.3819   -3.4111 H   0  0  0  0  0  0  0  0  0  0  0  0
    1.4959   -1.3311   -3.8249 H   0  0  0  0  0  0  0  0  0  0  0  0
    0.1667   -0.1547   -3.9692 H   0  0  0  0  0  0  0  0  0  0  0  0
  5  6  2  0  0  0  0
  5  7  1  0  0  0  0
  2  3  1  0  0  0  0
  2  4  1  0  0  0  0
  2  5  1  0  0  0  0
  1  2  1  0  0  0  0
 20 21  2  0  0  0  0
 20 22  1  0  0  0  0
 17 18  1  0  0  0  0
 17 19  2  0  0  0  0
 14 15  1  0  0  0  0
 14 16  1  0  0  0  0
 14 17  1  0  0  0  0
 11 12  1  0  0  0  0
 11 13  1  0  0  0  0
 11 14  1  0  0  0  0
  9 10  1  0  0  0  0
  9 11  1  0  0  0  0
  9 20  1  0  0  0  0
  7  8  1  0  0  0  0
  7  9  1  0  0  0  0
 24 25  1  0  0  0  0
 24 26  1  0  0  0  0
 24 27  1  0  0  0  0
 22 23  1  0  0  0  0
 22 24  1  0  0  0  0
M  CHG  1  18  -1
M  END
$$$$
default_name
  -OEChem-01062215323D

 27 26  0     1  0  0  0  0  0999 V2000
   -3.2406   -3.5400    1.2326 H   0  0  0  0  0  0  0  0  0  0  0  0
   -3.1436   -2.6190    0.6606 C   0  0  0  0  0  0  0  0  0  0  0  0
   -3.8786   -1.8920    0.9996 H   0  0  0  0  0  0  0  0  0  0  0  0
   -3.2846   -2.8280   -0.3984 H   0  0  0  0  0  0  0  0  0  0  0  0
   -1.7586   -2.0580    0.8686 C   0  0  0  0  0  0  0  0  0  0  0  0
   -0.9666   -2.6340    1.6026 O   0  0  0  0  0  0  0  0  0  0  0  0
   -1.4866   -0.9220    0.2366 N   0  0  0  0  0  0  0  0  0  0  0  0
   -2.2166   -0.4790   -0.2994 H   0  0  0  0  0  0  0  0  0  0  0  0
   -0.1956   -0.2250    0.2596 C   0  0  1  0  0  0  0  0  0  0  0  0
   -0.2898    0.6689    0.8768 H   0  0  0  0  0  0  0  0  0  0  0  0
    0.8590   -1.1363    0.9193 C   0  0  0  0  0  0  0  0  0  0  0  0
    0.8449   -2.0965    0.4013 H   0  0  0  0  0  0  0  0  0  0  0  0
    1.8476   -0.6919    0.7946 H   0  0  0  0  0  0  0  0  0  0  0  0
    0.6030   -1.3855    2.4152 C   0  0  0  0  0  0  0  0  0  0  0  0
    0.6085   -0.4287    2.9429 H   0  0  0  0  0  0  0  0  0  0  0  0
   -0.3920   -1.8250    2.5244 H   0  0  0  0  0  0  0  0  0  0  0  0
    1.6403   -2.3129    3.0657 C   0  0  0  0  0  0  0  0  0  0  0  0
    2.4836   -2.8707    2.3281 O   0  5  0  0  0  0  0  0  0  0  0  0
    1.5858   -2.4301    4.3101 O   0  0  0  0  0  0  0  0  0  0  0  0
    0.2039    0.2329   -1.1586 C   0  0  0  0  0  0  0  0  0  0  0  0
    0.4014    1.4253   -1.4012 O   0  0  0  0  0  0  0  0  0  0  0  0
    0.3482   -0.7149   -2.0939 N   0  0  0  0  0  0  0  0  0  0  0  0
    0.1171   -1.6627   -1.8359 H   0  0  0  0  0  0  0  0  0  0  0  0
    0.7033   -0.4467   -3.4851 C   0  0  0  0  0  0  0  0  0  0  0  0
    1.5943    0.1824   -3.5230 H   0  0  0  0  0  0  0  0  0  0  0  0
    0.8954   -1.3831   -4.0108 H   0  0  0  0  0  0  0  0  0  0  0  0
   -0.1184    0.0806   -3.9736 H   0  0  0  0  0  0  0  0  0  0  0  0
  5  6  2  0  0  0  0
  5  7  1  0  0  0  0
  2  3  1  0  0  0  0
  2  4  1  0  0  0  0
  2  5  1  0  0  0  0
  1  2  1  0  0  0  0
 20 21  2  0  0  0  0
 20 22  1  0  0  0  0
 17 18  1  0  0  0  0
 17 19  2  0  0  0  0
 14 15  1  0  0  0  0
 14 16  1  0  0  0  0
 14 17  1  0  0  0  0
 11 12  1  0  0  0  0
 11 13  1  0  0  0  0
 11 14  1  0  0  0  0
  9 10  1  0  0  0  0
  9 11  1  0  0  0  0
  9 20  1  0  0  0  0
  7  8  1  0  0  0  0
  7  9  1  0  0  0  0
 24 25  1  0  0  0  0
 24 26  1  0  0  0  0
 24 27  1  0  0  0  0
 22 23  1  0  0  0  0
 22 24  1  0  0  0  0
M  CHG  1  18  -1
M  END
$$$$
default_name
  -OEChem-01062215323D

 27 26  0     1  0  0  0  0  0999 V2000
   -3.2406   -3.5400    1.2326 H   0  0  0  0  0  0  0  0  0  0  0  0
   -3.1436   -2.6190    0.6606 C   0  0  0  0  0  0  0  0  0  0  0  0
   -3.8786   -1.8920    0.9996 H   0  0  0  0  0  0  0  0  0  0  0  0
   -3.2846   -2.8280   -0.3984 H   0  0  0  0  0  0  0  0  0  0  0  0
   -1.7586   -2.0580    0.8686 C   0  0  0  0  0  0  0  0  0  0  0  0
   -0.9666   -2.6340    1.6026 O   0  0  0  0  0  0  0  0  0  0  0  0
   -1.4866   -0.9220    0.2366 N   0  0  0  0  0  0  0  0  0  0  0  0
   -2.2166   -0.4790   -0.2994 H   0  0  0  0  0  0  0  0  0  0  0  0
   -0.1956   -0.2250    0.2596 C   0  0  1  0  0  0  0  0  0  0  0  0
   -0.2898    0.6689    0.8768 H   0  0  0  0  0  0  0  0  0  0  0  0
    0.8590   -1.1363    0.9193 C   0  0  0  0  0  0  0  0  0  0  0  0
    0.8449   -2.0965    0.4013 H   0  0  0  0  0  0  0  0  0  0  0  0
    1.8476   -0.6919    0.7946 H   0  0  0  0  0  0  0  0  0  0  0  0
    0.6030   -1.3855    2.4152 C   0  0  0  0  0  0  0  0  0  0  0  0
    0.6085   -0.4287    2.9429 H   0  0  0  0  0  0  0  0  0  0  0  0
   -0.3920   -1.8250    2.5244 H   0  0  0  0  0  0  0  0  0  0  0  0
    1.6403   -2.3129    3.0657 C   0  0  0  0  0  0  0  0  0  0  0  0
    2.4836   -2.8707    2.3281 O   0  5  0  0  0  0  0  0  0  0  0  0
    1.5858   -2.4301    4.3101 O   0  0  0  0  0  0  0  0  0  0  0  0
    0.2039    0.2329   -1.1586 C   0  0  0  0  0  0  0  0  0  0  0  0
    0.6652    1.3603   -1.3479 O   0  0  0  0  0  0  0  0  0  0  0  0
    0.0514   -0.6480   -2.1560 N   0  0  0  0  0  0  0  0  0  0  0  0
   -0.3826   -1.5317   -1.9343 H   0  0  0  0  0  0  0  0  0  0  0  0
    0.3642   -0.3655   -3.5545 C   0  0  0  0  0  0  0  0  0  0  0  0
    1.3755    0.0372   -3.6315 H   0  0  0  0  0  0  0  0  0  0  0  0
    0.2888   -1.2779   -4.1477 H   0  0  0  0  0  0  0  0  0  0  0  0
   -0.3382    0.3759   -3.9401 H   0  0  0  0  0  0  0  0  0  0  0  0
  5  6  2  0  0  0  0
  5  7  1  0  0  0  0
  2  3  1  0  0  0  0
  2  4  1  0  0  0  0
  2  5  1  0  0  0  0
  1  2  1  0  0  0  0
 20 21  2  0  0  0  0
 20 22  1  0  0  0  0
 17 18  1  0  0  0  0
 17 19  2  0  0  0  0
 14 15  1  0  0  0  0
 14 16  1  0  0  0  0
 14 17  1  0  0  0  0
 11 12  1  0  0  0  0
 11 13  1  0  0  0  0
 11 14  1  0  0  0  0
  9 10  1  0  0  0  0
  9 11  1  0  0  0  0
  9 20  1  0  0  0  0
  7  8  1  0  0  0  0
  7  9  1  0  0  0  0
 24 25  1  0  0  0  0
 24 26  1  0  0  0  0
 24 27  1  0  0  0  0
 22 23  1  0  0  0  0
 22 24  1  0  0  0  0
M  CHG  1  18  -1
M  END
$$$$
default_name
  -OEChem-01062215323D

 27 26  0     1  0  0  0  0  0999 V2000
   -3.2406   -3.5400    1.2326 H   0  0  0  0  0  0  0  0  0  0  0  0
   -3.1436   -2.6190    0.6606 C   0  0  0  0  0  0  0  0  0  0  0  0
   -3.8786   -1.8920    0.9996 H   0  0  0  0  0  0  0  0  0  0  0  0
   -3.2846   -2.8280   -0.3984 H   0  0  0  0  0  0  0  0  0  0  0  0
   -1.7586   -2.0580    0.8686 C   0  0  0  0  0  0  0  0  0  0  0  0
   -0.9666   -2.6340    1.6026 O   0  0  0  0  0  0  0  0  0  0  0  0
   -1.4866   -0.9220    0.2366 N   0  0  0  0  0  0  0  0  0  0  0  0
   -2.2166   -0.4790   -0.2994 H   0  0  0  0  0  0  0  0  0  0  0  0
   -0.1956   -0.2250    0.2596 C   0  0  1  0  0  0  0  0  0  0  0  0
   -0.2898    0.6689    0.8768 H   0  0  0  0  0  0  0  0  0  0  0  0
    0.8590   -1.1363    0.9193 C   0  0  0  0  0  0  0  0  0  0  0  0
    0.8449   -2.0965    0.4013 H   0  0  0  0  0  0  0  0  0  0  0  0
    1.8476   -0.6919    0.7946 H   0  0  0  0  0  0  0  0  0  0  0  0
    0.6030   -1.3855    2.4152 C   0  0  0  0  0  0  0  0  0  0  0  0
    0.6085   -0.4287    2.9429 H   0  0  0  0  0  0  0  0  0  0  0  0
   -0.3920   -1.8250    2.5244 H   0  0  0  0  0  0  0  0  0  0  0  0
    1.6403   -2.3129    3.0657 C   0  0  0  0  0  0  0  0  0  0  0  0
    2.4836   -2.8707    2.3281 O   0  5  0  0  0  0  0  0  0  0  0  0
    1.5858   -2.4301    4.3101 O   0  0  0  0  0  0  0  0  0  0  0  0
    0.2039    0.2329   -1.1586 C   0  0  0  0  0  0  0  0  0  0  0  0
    0.9087    1.2311   -1.3210 O   0  0  0  0  0  0  0  0  0  0  0  0
   -0.2241   -0.5087   -2.1886 N   0  0  0  0  0  0  0  0  0  0  0  0
   -0.8417   -1.2797   -1.9822 H   0  0  0  0  0  0  0  0  0  0  0  0
    0.0505   -0.2018   -3.5899 C   0  0  0  0  0  0  0  0  0  0  0  0
    1.1213   -0.0437   -3.7292 H   0  0  0  0  0  0  0  0  0  0  0  0
   -0.2827   -1.0229   -4.2263 H   0  0  0  0  0  0  0  0  0  0  0  0
   -0.4777    0.7113   -3.8711 H   0  0  0  0  0  0  0  0  0  0  0  0
  5  6  2  0  0  0  0
  5  7  1  0  0  0  0
  2  3  1  0  0  0  0
  2  4  1  0  0  0  0
  2  5  1  0  0  0  0
  1  2  1  0  0  0  0
 20 21  2  0  0  0  0
 20 22  1  0  0  0  0
 17 18  1  0  0  0  0
 17 19  2  0  0  0  0
 14 15  1  0  0  0  0
 14 16  1  0  0  0  0
 14 17  1  0  0  0  0
 11 12  1  0  0  0  0
 11 13  1  0  0  0  0
 11 14  1  0  0  0  0
  9 10  1  0  0  0  0
  9 11  1  0  0  0  0
  9 20  1  0  0  0  0
  7  8  1  0  0  0  0
  7  9  1  0  0  0  0
 24 25  1  0  0  0  0
 24 26  1  0  0  0  0
 24 27  1  0  0  0  0
 22 23  1  0  0  0  0
 22 24  1  0  0  0  0
M  CHG  1  18  -1
M  END
$$$$
default_name
  -OEChem-01062215323D

 27 26  0     1  0  0  0  0  0999 V2000
   -3.2406   -3.5400    1.2326 H   0  0  0  0  0  0  0  0  0  0  0  0
   -3.1436   -2.6190    0.6606 C   0  0  0  0  0  0  0  0  0  0  0  0
   -3.8786   -1.8920    0.9996 H   0  0  0  0  0  0  0  0  0  0  0  0
   -3.2846   -2.8280   -0.3984 H   0  0  0  0  0  0  0  0  0  0  0  0
   -1.7586   -2.0580    0.8686 C   0  0  0  0  0  0  0  0  0  0  0  0
   -0.9666   -2.6340    1.6026 O   0  0  0  0  0  0  0  0  0  0  0  0
   -1.4866   -0.9220    0.2366 N   0  0  0  0  0  0  0  0  0  0  0  0
   -2.2166   -0.4790   -0.2994 H   0  0  0  0  0  0  0  0  0  0  0  0
   -0.1956   -0.2250    0.2596 C   0  0  1  0  0  0  0  0  0  0  0  0
   -0.2898    0.6689    0.8768 H   0  0  0  0  0  0  0  0  0  0  0  0
    0.8590   -1.1363    0.9193 C   0  0  0  0  0  0  0  0  0  0  0  0
    0.8449   -2.0965    0.4013 H   0  0  0  0  0  0  0  0  0  0  0  0
    1.8476   -0.6919    0.7946 H   0  0  0  0  0  0  0  0  0  0  0  0
    0.6030   -1.3855    2.4152 C   0  0  0  0  0  0  0  0  0  0  0  0
    0.6085   -0.4287    2.9429 H   0  0  0  0  0  0  0  0  0  0  0  0
   -0.3920   -1.8250    2.5244 H   0  0  0  0  0  0  0  0  0  0  0  0
    1.6403   -2.3129    3.0657 C   0  0  0  0  0  0  0  0  0  0  0  0
    2.4836   -2.8707    2.3281 O   0  5  0  0  0  0  0  0  0  0  0  0
    1.5858   -2.4301    4.3101 O   0  0  0  0  0  0  0  0  0  0  0  0
    0.2039    0.2329   -1.1586 C   0  0  0  0  0  0  0  0  0  0  0  0
    1.1153    1.0467   -1.3224 O   0  0  0  0  0  0  0  0  0  0  0  0
   -0.4597   -0.3063   -2.1896 N   0  0  0  0  0  0  0  0  0  0  0  0
   -1.2289   -0.9239   -1.9764 H   0  0  0  0  0  0  0  0  0  0  0  0
   -0.2162    0.0333   -3.5892 C   0  0  0  0  0  0  0  0  0  0  0  0
    0.8490   -0.0548   -3.8095 H   0  0  0  0  0  0  0  0  0  0  0  0
   -0.7800   -0.6353   -4.2413 H   0  0  0  0  0  0  0  0  0  0  0  0
   -0.5274    1.0638   -3.7713 H   0  0  0  0  0  0  0  0  0  0  0  0
  5  6  2  0  0  0  0
  5  7  1  0  0  0  0
  2  3  1  0  0  0  0
  2  4  1  0  0  0  0
  2  5  1  0  0  0  0
  1  2  1  0  0  0  0
 20 21  2  0  0  0  0
 20 22  1  0  0  0  0
 17 18  1  0  0  0  0
 17 19  2  0  0  0  0
 14 15  1  0  0  0  0
 14 16  1  0  0  0  0
 14 17  1  0  0  0  0
 11 12  1  0  0  0  0
 11 13  1  0  0  0  0
 11 14  1  0  0  0  0
  9 10  1  0  0  0  0
  9 11  1  0  0  0  0
  9 20  1  0  0  0  0
  7  8  1  0  0  0  0
  7  9  1  0  0  0  0
 24 25  1  0  0  0  0
 24 26  1  0  0  0  0
 24 27  1  0  0  0  0
 22 23  1  0  0  0  0
 22 24  1  0  0  0  0
M  CHG  1  18  -1
M  END
$$$$
default_name
  -OEChem-01062215323D

 27 26  0     1  0  0  0  0  0999 V2000
   -3.2406   -3.5400    1.2326 H   0  0  0  0  0  0  0  0  0  0  0  0
   -3.1436   -2.6190    0.6606 C   0  0  0  0  0  0  0  0  0  0  0  0
   -3.8786   -1.8920    0.9996 H   0  0  0  0  0  0  0  0  0  0  0  0
   -3.2846   -2.8280   -0.3984 H   0  0  0  0  0  0  0  0  0  0  0  0
   -1.7586   -2.0580    0.8686 C   0  0  0  0  0  0  0  0  0  0  0  0
   -0.9666   -2.6340    1.6026 O   0  0  0  0  0  0  0  0  0  0  0  0
   -1.4866   -0.9220    0.2366 N   0  0  0  0  0  0  0  0  0  0  0  0
   -2.2166   -0.4790   -0.2994 H   0  0  0  0  0  0  0  0  0  0  0  0
   -0.1956   -0.2250    0.2596 C   0  0  1  0  0  0  0  0  0  0  0  0
   -0.2898    0.6689    0.8768 H   0  0  0  0  0  0  0  0  0  0  0  0
    0.8590   -1.1363    0.9193 C   0  0  0  0  0  0  0  0  0  0  0  0
    0.8449   -2.0965    0.4013 H   0  0  0  0  0  0  0  0  0  0  0  0
    1.8476   -0.6919    0.7946 H   0  0  0  0  0  0  0  0  0  0  0  0
    0.6030   -1.3855    2.4152 C   0  0  0  0  0  0  0  0  0  0  0  0
    0.6085   -0.4287    2.9429 H   0  0  0  0  0  0  0  0  0  0  0  0
   -0.3920   -1.8250    2.5244 H   0  0  0  0  0  0  0  0  0  0  0  0
    1.6403   -2.3129    3.0657 C   0  0  0  0  0  0  0  0  0  0  0  0
    2.4836   -2.8707    2.3281 O   0  5  0  0  0  0  0  0  0  0  0  0
    1.5858   -2.4301    4.3101 O   0  0  0  0  0  0  0  0  0  0  0  0
    0.2039    0.2329   -1.1586 C   0  0  0  0  0  0  0  0  0  0  0  0
    1.2708    0.8195   -1.3520 O   0  0  0  0  0  0  0  0  0  0  0  0
   -0.6391   -0.0548   -2.1589 N   0  0  0  0  0  0  0  0  0  0  0  0
   -1.5177   -0.4884   -1.9171 H   0  0  0  0  0  0  0  0  0  0  0  0
   -0.4179    0.3238   -3.5522 C   0  0  0  0  0  0  0  0  0  0  0  0
    0.5771    0.0047   -3.8669 H   0  0  0  0  0  0  0  0  0  0  0  0
   -1.1693   -0.1416   -4.1915 H   0  0  0  0  0  0  0  0  0  0  0  0
   -0.4838    1.4094   -3.6474 H   0  0  0  0  0  0  0  0  0  0  0  0
  5  6  2  0  0  0  0
  5  7  1  0  0  0  0
  2  3  1  0  0  0  0
  2  4  1  0  0  0  0
  2  5  1  0  0  0  0
  1  2  1  0  0  0  0
 20 21  2  0  0  0  0
 20 22  1  0  0  0  0
 17 18  1  0  0  0  0
 17 19  2  0  0  0  0
 14 15  1  0  0  0  0
 14 16  1  0  0  0  0
 14 17  1  0  0  0  0
 11 12  1  0  0  0  0
 11 13  1  0  0  0  0
 11 14  1  0  0  0  0
  9 10  1  0  0  0  0
  9 11  1  0  0  0  0
  9 20  1  0  0  0  0
  7  8  1  0  0  0  0
  7  9  1  0  0  0  0
 24 25  1  0  0  0  0
 24 26  1  0  0  0  0
 24 27  1  0  0  0  0
 22 23  1  0  0  0  0
 22 24  1  0  0  0  0
M  CHG  1  18  -1
M  END
$$$$
default_name
  -OEChem-01062215323D

 27 26  0     1  0  0  0  0  0999 V2000
   -3.2406   -3.5400    1.2326 H   0  0  0  0  0  0  0  0  0  0  0  0
   -3.1436   -2.6190    0.6606 C   0  0  0  0  0  0  0  0  0  0  0  0
   -3.8786   -1.8920    0.9996 H   0  0  0  0  0  0  0  0  0  0  0  0
   -3.2846   -2.8280   -0.3984 H   0  0  0  0  0  0  0  0  0  0  0  0
   -1.7586   -2.0580    0.8686 C   0  0  0  0  0  0  0  0  0  0  0  0
   -0.9666   -2.6340    1.6026 O   0  0  0  0  0  0  0  0  0  0  0  0
   -1.4866   -0.9220    0.2366 N   0  0  0  0  0  0  0  0  0  0  0  0
   -2.2166   -0.4790   -0.2994 H   0  0  0  0  0  0  0  0  0  0  0  0
   -0.1956   -0.2250    0.2596 C   0  0  1  0  0  0  0  0  0  0  0  0
   -0.2898    0.6689    0.8768 H   0  0  0  0  0  0  0  0  0  0  0  0
    0.8590   -1.1363    0.9193 C   0  0  0  0  0  0  0  0  0  0  0  0
    0.8449   -2.0965    0.4013 H   0  0  0  0  0  0  0  0  0  0  0  0
    1.8476   -0.6919    0.7946 H   0  0  0  0  0  0  0  0  0  0  0  0
    0.6030   -1.3855    2.4152 C   0  0  0  0  0  0  0  0  0  0  0  0
    0.6085   -0.4287    2.9429 H   0  0  0  0  0  0  0  0  0  0  0  0
   -0.3920   -1.8250    2.5244 H   0  0  0  0  0  0  0  0  0  0  0  0
    1.6403   -2.3129    3.0657 C   0  0  0  0  0  0  0  0  0  0  0  0
    2.4836   -2.8707    2.3281 O   0  5  0  0  0  0  0  0  0  0  0  0
    1.5858   -2.4301    4.3101 O   0  0  0  0  0  0  0  0  0  0  0  0
    0.2039    0.2329   -1.1586 C   0  0  0  0  0  0  0  0  0  0  0  0
    1.3646    0.5650   -1.4077 O   0  0  0  0  0  0  0  0  0  0  0  0
   -0.7502    0.2288   -2.0986 N   0  0  0  0  0  0  0  0  0  0  0  0
   -1.6886   -0.0031   -1.8086 H   0  0  0  0  0  0  0  0  0  0  0  0
   -0.5407    0.6499   -3.4815 C   0  0  0  0  0  0  0  0  0  0  0  0
    0.3243    0.1306   -3.8975 H   0  0  0  0  0  0  0  0  0  0  0  0
   -1.4241    0.4246   -4.0805 H   0  0  0  0  0  0  0  0  0  0  0  0
   -0.3500    1.7245   -3.5080 H   0  0  0  0  0  0  0  0  0  0  0  0
  5  6  2  0  0  0  0
  5  7  1  0  0  0  0
  2  3  1  0  0  0  0
  2  4  1  0  0  0  0
  2  5  1  0  0  0  0
  1  2  1  0  0  0  0
 20 21  2  0  0  0  0
 20 22  1  0  0  0  0
 17 18  1  0  0  0  0
 17 19  2  0  0  0  0
 14 15  1  0  0  0  0
 14 16  1  0  0  0  0
 14 17  1  0  0  0  0
 11 12  1  0  0  0  0
 11 13  1  0  0  0  0
 11 14  1  0  0  0  0
  9 10  1  0  0  0  0
  9 11  1  0  0  0  0
  9 20  1  0  0  0  0
  7  8  1  0  0  0  0
  7  9  1  0  0  0  0
 24 25  1  0  0  0  0
 24 26  1  0  0  0  0
 24 27  1  0  0  0  0
 22 23  1  0  0  0  0
 22 24  1  0  0  0  0
M  CHG  1  18  -1
M  END
$$$$
default_name
  -OEChem-01062215323D

 27 26  0     1  0  0  0  0  0999 V2000
   -3.2406   -3.5400    1.2326 H   0  0  0  0  0  0  0  0  0  0  0  0
   -3.1436   -2.6190    0.6606 C   0  0  0  0  0  0  0  0  0  0  0  0
   -3.8786   -1.8920    0.9996 H   0  0  0  0  0  0  0  0  0  0  0  0
   -3.2846   -2.8280   -0.3984 H   0  0  0  0  0  0  0  0  0  0  0  0
   -1.7586   -2.0580    0.8686 C   0  0  0  0  0  0  0  0  0  0  0  0
   -0.9666   -2.6340    1.6026 O   0  0  0  0  0  0  0  0  0  0  0  0
   -1.4866   -0.9220    0.2366 N   0  0  0  0  0  0  0  0  0  0  0  0
   -2.2166   -0.4790   -0.2994 H   0  0  0  0  0  0  0  0  0  0  0  0
   -0.1956   -0.2250    0.2596 C   0  0  1  0  0  0  0  0  0  0  0  0
   -0.2898    0.6689    0.8768 H   0  0  0  0  0  0  0  0  0  0  0  0
    0.8590   -1.1363    0.9193 C   0  0  0  0  0  0  0  0  0  0  0  0
    0.8449   -2.0965    0.4013 H   0  0  0  0  0  0  0  0  0  0  0  0
    1.8476   -0.6919    0.7946 H   0  0  0  0  0  0  0  0  0  0  0  0
    0.6030   -1.3855    2.4152 C   0  0  0  0  0  0  0  0  0  0  0  0
    0.6085   -0.4287    2.9429 H   0  0  0  0  0  0  0  0  0  0  0  0
   -0.3920   -1.8250    2.5244 H   0  0  0  0  0  0  0  0  0  0  0  0
    1.6403   -2.3129    3.0657 C   0  0  0  0  0  0  0  0  0  0  0  0
    2.4836   -2.8707    2.3281 O   0  5  0  0  0  0  0  0  0  0  0  0
    1.5858   -2.4301    4.3101 O   0  0  0  0  0  0  0  0  0  0  0  0
    0.2039    0.2329   -1.1586 C   0  0  0  0  0  0  0  0  0  0  0  0
    1.3905    0.3006   -1.4858 O   0  0  0  0  0  0  0  0  0  0  0  0
   -0.7854    0.5252   -2.0128 N   0  0  0  0  0  0  0  0  0  0  0  0
   -1.7298    0.4991   -1.6580 H   0  0  0  0  0  0  0  0  0  0  0  0
   -0.5763    0.9894   -3.3819 C   0  0  0  0  0  0  0  0  0  0  0  0
    0.1077    0.3144   -3.8991 H   0  0  0  0  0  0  0  0  0  0  0  0
   -1.5270    1.0246   -3.9157 H   0  0  0  0  0  0  0  0  0  0  0  0
   -0.1350    1.9877   -3.3625 H   0  0  0  0  0  0  0  0  0  0  0  0
  5  6  2  0  0  0  0
  5  7  1  0  0  0  0
  2  3  1  0  0  0  0
  2  4  1  0  0  0  0
  2  5  1  0  0  0  0
  1  2  1  0  0  0  0
 20 21  2  0  0  0  0
 20 22  1  0  0  0  0
 17 18  1  0  0  0  0
 17 19  2  0  0  0  0
 14 15  1  0  0  0  0
 14 16  1  0  0  0  0
 14 17  1  0  0  0  0
 11 12  1  0  0  0  0
 11 13  1  0  0  0  0
 11 14  1  0  0  0  0
  9 10  1  0  0  0  0
  9 11  1  0  0  0  0
  9 20  1  0  0  0  0
  7  8  1  0  0  0  0
  7  9  1  0  0  0  0
 24 25  1  0  0  0  0
 24 26  1  0  0  0  0
 24 27  1  0  0  0  0
 22 23  1  0  0  0  0
 22 24  1  0  0  0  0
M  CHG  1  18  -1
M  END
$$$$
default_name
  -OEChem-01062215323D

 27 26  0     1  0  0  0  0  0999 V2000
   -3.2406   -3.5400    1.2326 H   0  0  0  0  0  0  0  0  0  0  0  0
   -3.1436   -2.6190    0.6606 C   0  0  0  0  0  0  0  0  0  0  0  0
   -3.8786   -1.8920    0.9996 H   0  0  0  0  0  0  0  0  0  0  0  0
   -3.2846   -2.8280   -0.3984 H   0  0  0  0  0  0  0  0  0  0  0  0
   -1.7586   -2.0580    0.8686 C   0  0  0  0  0  0  0  0  0  0  0  0
   -0.9666   -2.6340    1.6026 O   0  0  0  0  0  0  0  0  0  0  0  0
   -1.4866   -0.9220    0.2366 N   0  0  0  0  0  0  0  0  0  0  0  0
   -2.2166   -0.4790   -0.2994 H   0  0  0  0  0  0  0  0  0  0  0  0
   -0.1956   -0.2250    0.2596 C   0  0  1  0  0  0  0  0  0  0  0  0
   -0.2898    0.6689    0.8768 H   0  0  0  0  0  0  0  0  0  0  0  0
    0.8590   -1.1363    0.9193 C   0  0  0  0  0  0  0  0  0  0  0  0
    0.8449   -2.0965    0.4013 H   0  0  0  0  0  0  0  0  0  0  0  0
    1.8476   -0.6919    0.7946 H   0  0  0  0  0  0  0  0  0  0  0  0
    0.6030   -1.3855    2.4152 C   0  0  0  0  0  0  0  0  0  0  0  0
    0.6085   -0.4287    2.9429 H   0  0  0  0  0  0  0  0  0  0  0  0
   -0.3920   -1.8250    2.5244 H   0  0  0  0  0  0  0  0  0  0  0  0
    1.6403   -2.3129    3.0657 C   0  0  0  0  0  0  0  0  0  0  0  0
    2.4836   -2.8707    2.3281 O   0  5  0  0  0  0  0  0  0  0  0  0
    1.5858   -2.4301    4.3101 O   0  0  0  0  0  0  0  0  0  0  0  0
    0.2039    0.2329   -1.1586 C   0  0  0  0  0  0  0  0  0  0  0  0
    1.3466    0.0442   -1.5809 O   0  0  0  0  0  0  0  0  0  0  0  0
   -0.7424    0.8141   -1.9074 N   0  0  0  0  0  0  0  0  0  0  0  0
   -1.6386    0.9839   -1.4758 H   0  0  0  0  0  0  0  0  0  0  0  0
   -0.5223    1.3191   -3.2602 C   0  0  0  0  0  0  0  0  0  0  0  0
   -0.0579    0.5436   -3.8718 H   0  0  0  0  0  0  0  0  0  0  0  0
   -1.4710    1.6176   -3.7085 H   0  0  0  0  0  0  0  0  0  0  0  0
    0.1464    2.1811   -3.2207 H   0  0  0  0  0  0  0  0  0  0  0  0
  5  6  2  0  0  0  0
  5  7  1  0  0  0  0
  2  3  1  0  0  0  0
  2  4  1  0  0  0  0
  2  5  1  0  0  0  0
  1  2  1  0  0  0  0
 20 21  2  0  0  0  0
 20 22  1  0  0  0  0
 17 18  1  0  0  0  0
 17 19  2  0  0  0  0
 14 15  1  0  0  0  0
 14 16  1  0  0  0  0
 14 17  1  0  0  0  0
 11 12  1  0  0  0  0
 11 13  1  0  0  0  0
 11 14  1  0  0  0  0
  9 10  1  0  0  0  0
  9 11  1  0  0  0  0
  9 20  1  0  0  0  0
  7  8  1  0  0  0  0
  7  9  1  0  0  0  0
 24 25  1  0  0  0  0
 24 26  1  0  0  0  0
 24 27  1  0  0  0  0
 22 23  1  0  0  0  0
 22 24  1  0  0  0  0
M  CHG  1  18  -1
M  END
$$$$
default_name
  -OEChem-01062215323D

 27 26  0     1  0  0  0  0  0999 V2000
   -3.2406   -3.5400    1.2326 H   0  0  0  0  0  0  0  0  0  0  0  0
   -3.1436   -2.6190    0.6606 C   0  0  0  0  0  0  0  0  0  0  0  0
   -3.8786   -1.8920    0.9996 H   0  0  0  0  0  0  0  0  0  0  0  0
   -3.2846   -2.8280   -0.3984 H   0  0  0  0  0  0  0  0  0  0  0  0
   -1.7586   -2.0580    0.8686 C   0  0  0  0  0  0  0  0  0  0  0  0
   -0.9666   -2.6340    1.6026 O   0  0  0  0  0  0  0  0  0  0  0  0
   -1.4866   -0.9220    0.2366 N   0  0  0  0  0  0  0  0  0  0  0  0
   -2.2166   -0.4790   -0.2994 H   0  0  0  0  0  0  0  0  0  0  0  0
   -0.1956   -0.2250    0.2596 C   0  0  1  0  0  0  0  0  0  0  0  0
   -0.2898    0.6689    0.8768 H   0  0  0  0  0  0  0  0  0  0  0  0
    0.8590   -1.1363    0.9193 C   0  0  0  0  0  0  0  0  0  0  0  0
    0.8449   -2.0965    0.4013 H   0  0  0  0  0  0  0  0  0  0  0  0
    1.8476   -0.6919    0.7946 H   0  0  0  0  0  0  0  0  0  0  0  0
    0.6030   -1.3855    2.4152 C   0  0  0  0  0  0  0  0  0  0  0  0
    0.6085   -0.4287    2.9429 H   0  0  0  0  0  0  0  0  0  0  0  0
   -0.3920   -1.8250    2.5244 H   0  0  0  0  0  0  0  0  0  0  0  0
    1.6403   -2.3129    3.0657 C   0  0  0  0  0  0  0  0  0  0  0  0
    2.4836   -2.8707    2.3281 O   0  5  0  0  0  0  0  0  0  0  0  0
    1.5858   -2.4301    4.3101 O   0  0  0  0  0  0  0  0  0  0  0  0
    0.2039    0.2329   -1.1586 C   0  0  0  0  0  0  0  0  0  0  0  0
    1.2359   -0.1865   -1.6866 O   0  0  0  0  0  0  0  0  0  0  0  0
   -0.6240    1.0758   -1.7896 N   0  0  0  0  0  0  0  0  0  0  0  0
   -1.4212    1.4183   -1.2743 H   0  0  0  0  0  0  0  0  0  0  0  0
   -0.3824    1.6165   -3.1247 C   0  0  0  0  0  0  0  0  0  0  0  0
   -0.1613    0.8026   -3.8172 H   0  0  0  0  0  0  0  0  0  0  0  0
   -1.2599    2.1632   -3.4728 H   0  0  0  0  0  0  0  0  0  0  0  0
    0.4751    2.2914   -3.0925 H   0  0  0  0  0  0  0  0  0  0  0  0
  5  6  2  0  0  0  0
  5  7  1  0  0  0  0
  2  3  1  0  0  0  0
  2  4  1  0  0  0  0
  2  5  1  0  0  0  0
  1  2  1  0  0  0  0
 20 21  2  0  0  0  0
 20 22  1  0  0  0  0
 17 18  1  0  0  0  0
 17 19  2  0  0  0  0
 14 15  1  0  0  0  0
 14 16  1  0  0  0  0
 14 17  1  0  0  0  0
 11 12  1  0  0  0  0
 11 13  1  0  0  0  0
 11 14  1  0  0  0  0
  9 10  1  0  0  0  0
  9 11  1  0  0  0  0
  9 20  1  0  0  0  0
  7  8  1  0  0  0  0
  7  9  1  0  0  0  0
 24 25  1  0  0  0  0
 24 26  1  0  0  0  0
 24 27  1  0  0  0  0
 22 23  1  0  0  0  0
 22 24  1  0  0  0  0
M  CHG  1  18  -1
M  END
$$$$
default_name
  -OEChem-01062215323D

 27 26  0     1  0  0  0  0  0999 V2000
   -3.2406   -3.5400    1.2326 H   0  0  0  0  0  0  0  0  0  0  0  0
   -3.1436   -2.6190    0.6606 C   0  0  0  0  0  0  0  0  0  0  0  0
   -3.8786   -1.8920    0.9996 H   0  0  0  0  0  0  0  0  0  0  0  0
   -3.2846   -2.8280   -0.3984 H   0  0  0  0  0  0  0  0  0  0  0  0
   -1.7586   -2.0580    0.8686 C   0  0  0  0  0  0  0  0  0  0  0  0
   -0.9666   -2.6340    1.6026 O   0  0  0  0  0  0  0  0  0  0  0  0
   -1.4866   -0.9220    0.2366 N   0  0  0  0  0  0  0  0  0  0  0  0
   -2.2166   -0.4790   -0.2994 H   0  0  0  0  0  0  0  0  0  0  0  0
   -0.1956   -0.2250    0.2596 C   0  0  1  0  0  0  0  0  0  0  0  0
   -0.2898    0.6689    0.8768 H   0  0  0  0  0  0  0  0  0  0  0  0
    0.8590   -1.1363    0.9193 C   0  0  0  0  0  0  0  0  0  0  0  0
    0.8449   -2.0965    0.4013 H   0  0  0  0  0  0  0  0  0  0  0  0
    1.8476   -0.6919    0.7946 H   0  0  0  0  0  0  0  0  0  0  0  0
    0.6030   -1.3855    2.4152 C   0  0  0  0  0  0  0  0  0  0  0  0
    0.6085   -0.4287    2.9429 H   0  0  0  0  0  0  0  0  0  0  0  0
   -0.3920   -1.8250    2.5244 H   0  0  0  0  0  0  0  0  0  0  0  0
    1.6403   -2.3129    3.0657 C   0  0  0  0  0  0  0  0  0  0  0  0
    2.4836   -2.8707    2.3281 O   0  5  0  0  0  0  0  0  0  0  0  0
    1.5858   -2.4301    4.3101 O   0  0  0  0  0  0  0  0  0  0  0  0
    0.2039    0.2329   -1.1586 C   0  0  0  0  0  0  0  0  0  0  0  0
    1.0659   -0.3760   -1.7957 O   0  0  0  0  0  0  0  0  0  0  0  0
   -0.4383    1.2925   -1.6673 N   0  0  0  0  0  0  0  0  0  0  0  0
   -1.0924    1.7727   -1.0673 H   0  0  0  0  0  0  0  0  0  0  0  0
   -0.1660    1.8615   -2.9847 C   0  0  0  0  0  0  0  0  0  0  0  0
   -0.1953    1.0737   -3.7393 H   0  0  0  0  0  0  0  0  0  0  0  0
   -0.9081    2.6243   -3.2249 H   0  0  0  0  0  0  0  0  0  0  0  0
    0.8288    2.3112   -2.9865 H   0  0  0  0  0  0  0  0  0  0  0  0
  5  6  2  0  0  0  0
  5  7  1  0  0  0  0
  2  3  1  0  0  0  0
  2  4  1  0  0  0  0
  2  5  1  0  0  0  0
  1  2  1  0  0  0  0
 20 21  2  0  0  0  0
 20 22  1  0  0  0  0
 17 18  1  0  0  0  0
 17 19  2  0  0  0  0
 14 15  1  0  0  0  0
 14 16  1  0  0  0  0
 14 17  1  0  0  0  0
 11 12  1  0  0  0  0
 11 13  1  0  0  0  0
 11 14  1  0  0  0  0
  9 10  1  0  0  0  0
  9 11  1  0  0  0  0
  9 20  1  0  0  0  0
  7  8  1  0  0  0  0
  7  9  1  0  0  0  0
 24 25  1  0  0  0  0
 24 26  1  0  0  0  0
 24 27  1  0  0  0  0
 22 23  1  0  0  0  0
 22 24  1  0  0  0  0
M  CHG  1  18  -1
M  END
$$$$
default_name
  -OEChem-01062215323D

 27 26  0     1  0  0  0  0  0999 V2000
   -3.2406   -3.5400    1.2326 H   0  0  0  0  0  0  0  0  0  0  0  0
   -3.1436   -2.6190    0.6606 C   0  0  0  0  0  0  0  0  0  0  0  0
   -3.8786   -1.8920    0.9996 H   0  0  0  0  0  0  0  0  0  0  0  0
   -3.2846   -2.8280   -0.3984 H   0  0  0  0  0  0  0  0  0  0  0  0
   -1.7586   -2.0580    0.8686 C   0  0  0  0  0  0  0  0  0  0  0  0
   -0.9666   -2.6340    1.6026 O   0  0  0  0  0  0  0  0  0  0  0  0
   -1.4866   -0.9220    0.2366 N   0  0  0  0  0  0  0  0  0  0  0  0
   -2.2166   -0.4790   -0.2994 H   0  0  0  0  0  0  0  0  0  0  0  0
   -0.1956   -0.2250    0.2596 C   0  0  1  0  0  0  0  0  0  0  0  0
   -0.2898    0.6689    0.8768 H   0  0  0  0  0  0  0  0  0  0  0  0
    0.8590   -1.1363    0.9193 C   0  0  0  0  0  0  0  0  0  0  0  0
    0.8449   -2.0965    0.4013 H   0  0  0  0  0  0  0  0  0  0  0  0
    1.8476   -0.6919    0.7946 H   0  0  0  0  0  0  0  0  0  0  0  0
    0.6030   -1.3855    2.4152 C   0  0  0  0  0  0  0  0  0  0  0  0
    0.6085   -0.4287    2.9429 H   0  0  0  0  0  0  0  0  0  0  0  0
   -0.3920   -1.8250    2.5244 H   0  0  0  0  0  0  0  0  0  0  0  0
    1.6403   -2.3129    3.0657 C   0  0  0  0  0  0  0  0  0  0  0  0
    2.4836   -2.8707    2.3281 O   0  5  0  0  0  0  0  0  0  0  0  0
    1.5858   -2.4301    4.3101 O   0  0  0  0  0  0  0  0  0  0  0  0
    0.2039    0.2329   -1.1586 C   0  0  0  0  0  0  0  0  0  0  0  0
    0.8483   -0.5113   -1.9006 O   0  0  0  0  0  0  0  0  0  0  0  0
   -0.1980    1.4495   -1.5489 N   0  0  0  0  0  0  0  0  0  0  0  0
   -0.6746    2.0229   -0.8688 H   0  0  0  0  0  0  0  0  0  0  0  0
    0.1120    2.0373   -2.8496 C   0  0  0  0  0  0  0  0  0  0  0  0
   -0.1577    1.3384   -3.6432 H   0  0  0  0  0  0  0  0  0  0  0  0
   -0.4395    2.9692   -2.9815 H   0  0  0  0  0  0  0  0  0  0  0  0
    1.1832    2.2391   -2.9100 H   0  0  0  0  0  0  0  0  0  0  0  0
  5  6  2  0  0  0  0
  5  7  1  0  0  0  0
  2  3  1  0  0  0  0
  2  4  1  0  0  0  0
  2  5  1  0  0  0  0
  1  2  1  0  0  0  0
 20 21  2  0  0  0  0
 20 22  1  0  0  0  0
 17 18  1  0  0  0  0
 17 19  2  0  0  0  0
 14 15  1  0  0  0  0
 14 16  1  0  0  0  0
 14 17  1  0  0  0  0
 11 12  1  0  0  0  0
 11 13  1  0  0  0  0
 11 14  1  0  0  0  0
  9 10  1  0  0  0  0
  9 11  1  0  0  0  0
  9 20  1  0  0  0  0
  7  8  1  0  0  0  0
  7  9  1  0  0  0  0
 24 25  1  0  0  0  0
 24 26  1  0  0  0  0
 24 27  1  0  0  0  0
 22 23  1  0  0  0  0
 22 24  1  0  0  0  0
M  CHG  1  18  -1
M  END
$$$$
default_name
  -OEChem-01062215323D

 27 26  0     1  0  0  0  0  0999 V2000
   -3.2406   -3.5400    1.2326 H   0  0  0  0  0  0  0  0  0  0  0  0
   -3.1436   -2.6190    0.6606 C   0  0  0  0  0  0  0  0  0  0  0  0
   -3.8786   -1.8920    0.9996 H   0  0  0  0  0  0  0  0  0  0  0  0
   -3.2846   -2.8280   -0.3984 H   0  0  0  0  0  0  0  0  0  0  0  0
   -1.7586   -2.0580    0.8686 C   0  0  0  0  0  0  0  0  0  0  0  0
   -0.9666   -2.6340    1.6026 O   0  0  0  0  0  0  0  0  0  0  0  0
   -1.4866   -0.9220    0.2366 N   0  0  0  0  0  0  0  0  0  0  0  0
   -2.2166   -0.4790   -0.2994 H   0  0  0  0  0  0  0  0  0  0  0  0
   -0.1956   -0.2250    0.2596 C   0  0  1  0  0  0  0  0  0  0  0  0
   -0.2898    0.6689    0.8768 H   0  0  0  0  0  0  0  0  0  0  0  0
    0.8590   -1.1363    0.9193 C   0  0  0  0  0  0  0  0  0  0  0  0
    0.8449   -2.0965    0.4013 H   0  0  0  0  0  0  0  0  0  0  0  0
    1.8476   -0.6919    0.7946 H   0  0  0  0  0  0  0  0  0  0  0  0
    0.6030   -1.3855    2.4152 C   0  0  0  0  0  0  0  0  0  0  0  0
    0.6085   -0.4287    2.9429 H   0  0  0  0  0  0  0  0  0  0  0  0
   -0.3920   -1.8250    2.5244 H   0  0  0  0  0  0  0  0  0  0  0  0
    1.6403   -2.3129    3.0657 C   0  0  0  0  0  0  0  0  0  0  0  0
    2.4836   -2.8707    2.3281 O   0  5  0  0  0  0  0  0  0  0  0  0
    1.5858   -2.4301    4.3101 O   0  0  0  0  0  0  0  0  0  0  0  0
    0.2039    0.2329   -1.1586 C   0  0  0  0  0  0  0  0  0  0  0  0
    0.5978   -0.5831   -1.9944 O   0  0  0  0  0  0  0  0  0  0  0  0
    0.0806    1.5360   -1.4425 N   0  0  0  0  0  0  0  0  0  0  0  0
   -0.1962    2.1518   -0.6924 H   0  0  0  0  0  0  0  0  0  0  0  0
    0.4327    2.1319   -2.7288 C   0  0  0  0  0  0  0  0  0  0  0  0
   -0.0510    1.5787   -3.5356 H   0  0  0  0  0  0  0  0  0  0  0  0
    0.1138    3.1747   -2.7593 H   0  0  0  0  0  0  0  0  0  0  0  0
    1.5143    2.0800   -2.8681 H   0  0  0  0  0  0  0  0  0  0  0  0
  5  6  2  0  0  0  0
  5  7  1  0  0  0  0
  2  3  1  0  0  0  0
  2  4  1  0  0  0  0
  2  5  1  0  0  0  0
  1  2  1  0  0  0  0
 20 21  2  0  0  0  0
 20 22  1  0  0  0  0
 17 18  1  0  0  0  0
 17 19  2  0  0  0  0
 14 15  1  0  0  0  0
 14 16  1  0  0  0  0
 14 17  1  0  0  0  0
 11 12  1  0  0  0  0
 11 13  1  0  0  0  0
 11 14  1  0  0  0  0
  9 10  1  0  0  0  0
  9 11  1  0  0  0  0
  9 20  1  0  0  0  0
  7  8  1  0  0  0  0
  7  9  1  0  0  0  0
 24 25  1  0  0  0  0
 24 26  1  0  0  0  0
 24 27  1  0  0  0  0
 22 23  1  0  0  0  0
 22 24  1  0  0  0  0
M  CHG  1  18  -1
M  END
$$$$
default_name
  -OEChem-01062215323D

 27 26  0     1  0  0  0  0  0999 V2000
   -3.2406   -3.5400    1.2326 H   0  0  0  0  0  0  0  0  0  0  0  0
   -3.1436   -2.6190    0.6606 C   0  0  0  0  0  0  0  0  0  0  0  0
   -3.8786   -1.8920    0.9996 H   0  0  0  0  0  0  0  0  0  0  0  0
   -3.2846   -2.8280   -0.3984 H   0  0  0  0  0  0  0  0  0  0  0  0
   -1.7586   -2.0580    0.8686 C   0  0  0  0  0  0  0  0  0  0  0  0
   -0.9666   -2.6340    1.6026 O   0  0  0  0  0  0  0  0  0  0  0  0
   -1.4866   -0.9220    0.2366 N   0  0  0  0  0  0  0  0  0  0  0  0
   -2.2166   -0.4790   -0.2994 H   0  0  0  0  0  0  0  0  0  0  0  0
   -0.1956   -0.2250    0.2596 C   0  0  1  0  0  0  0  0  0  0  0  0
   -0.2898    0.6689    0.8768 H   0  0  0  0  0  0  0  0  0  0  0  0
    0.8590   -1.1363    0.9193 C   0  0  0  0  0  0  0  0  0  0  0  0
    0.8449   -2.0965    0.4013 H   0  0  0  0  0  0  0  0  0  0  0  0
    1.8476   -0.6919    0.7946 H   0  0  0  0  0  0  0  0  0  0  0  0
    0.6030   -1.3855    2.4152 C   0  0  0  0  0  0  0  0  0  0  0  0
    0.6085   -0.4287    2.9429 H   0  0  0  0  0  0  0  0  0  0  0  0
   -0.3920   -1.8250    2.5244 H   0  0  0  0  0  0  0  0  0  0  0  0
    1.6403   -2.3129    3.0657 C   0  0  0  0  0  0  0  0  0  0  0  0
    2.4836   -2.8707    2.3281 O   0  5  0  0  0  0  0  0  0  0  0  0
    1.5858   -2.4301    4.3101 O   0  0  0  0  0  0  0  0  0  0  0  0
    0.2039    0.2329   -1.1586 C   0  0  0  0  0  0  0  0  0  0  0  0
    0.3316   -0.5867   -2.0705 O   0  0  0  0  0  0  0  0  0  0  0  0
    0.3785    1.5462   -1.3553 N   0  0  0  0  0  0  0  0  0  0  0  0
    0.3101    2.1508   -0.5502 H   0  0  0  0  0  0  0  0  0  0  0  0
    0.7743    2.1389   -2.6303 C   0  0  0  0  0  0  0  0  0  0  0  0
    0.1174    1.7783   -3.4237 H   0  0  0  0  0  0  0  0  0  0  0  0
    0.7142    3.2266   -2.5734 H   0  0  0  0  0  0  0  0  0  0  0  0
    1.7994    1.8447   -2.8638 H   0  0  0  0  0  0  0  0  0  0  0  0
  5  6  2  0  0  0  0
  5  7  1  0  0  0  0
  2  3  1  0  0  0  0
  2  4  1  0  0  0  0
  2  5  1  0  0  0  0
  1  2  1  0  0  0  0
 20 21  2  0  0  0  0
 20 22  1  0  0  0  0
 17 18  1  0  0  0  0
 17 19  2  0  0  0  0
 14 15  1  0  0  0  0
 14 16  1  0  0  0  0
 14 17  1  0  0  0  0
 11 12  1  0  0  0  0
 11 13  1  0  0  0  0
 11 14  1  0  0  0  0
  9 10  1  0  0  0  0
  9 11  1  0  0  0  0
  9 20  1  0  0  0  0
  7  8  1  0  0  0  0
  7  9  1  0  0  0  0
 24 25  1  0  0  0  0
 24 26  1  0  0  0  0
 24 27  1  0  0  0  0
 22 23  1  0  0  0  0
 22 24  1  0  0  0  0
M  CHG  1  18  -1
M  END
$$$$
default_name
  -OEChem-01062215323D

 27 26  0     1  0  0  0  0  0999 V2000
   -3.2406   -3.5400    1.2326 H   0  0  0  0  0  0  0  0  0  0  0  0
   -3.1436   -2.6190    0.6606 C   0  0  0  0  0  0  0  0  0  0  0  0
   -3.8786   -1.8920    0.9996 H   0  0  0  0  0  0  0  0  0  0  0  0
   -3.2846   -2.8280   -0.3984 H   0  0  0  0  0  0  0  0  0  0  0  0
   -1.7586   -2.0580    0.8686 C   0  0  0  0  0  0  0  0  0  0  0  0
   -0.9666   -2.6340    1.6026 O   0  0  0  0  0  0  0  0  0  0  0  0
   -1.4866   -0.9220    0.2366 N   0  0  0  0  0  0  0  0  0  0  0  0
   -2.2166   -0.4790   -0.2994 H   0  0  0  0  0  0  0  0  0  0  0  0
   -0.1956   -0.2250    0.2596 C   0  0  1  0  0  0  0  0  0  0  0  0
   -0.2898    0.6689    0.8768 H   0  0  0  0  0  0  0  0  0  0  0  0
    0.8590   -1.1363    0.9193 C   0  0  0  0  0  0  0  0  0  0  0  0
    0.8449   -2.0965    0.4013 H   0  0  0  0  0  0  0  0  0  0  0  0
    1.8476   -0.6919    0.7946 H   0  0  0  0  0  0  0  0  0  0  0  0
    0.6030   -1.3855    2.4152 C   0  0  0  0  0  0  0  0  0  0  0  0
    0.6085   -0.4287    2.9429 H   0  0  0  0  0  0  0  0  0  0  0  0
   -0.3920   -1.8250    2.5244 H   0  0  0  0  0  0  0  0  0  0  0  0
    1.6403   -2.3129    3.0657 C   0  0  0  0  0  0  0  0  0  0  0  0
    2.4836   -2.8707    2.3281 O   0  5  0  0  0  0  0  0  0  0  0  0
    1.5858   -2.4301    4.3101 O   0  0  0  0  0  0  0  0  0  0  0  0
    0.2039    0.2329   -1.1586 C   0  0  0  0  0  0  0  0  0  0  0  0
    0.0677   -0.5217   -2.1238 O   0  0  0  0  0  0  0  0  0  0  0  0
    0.6753    1.4793   -1.2933 N   0  0  0  0  0  0  0  0  0  0  0  0
    0.8098    2.0198   -0.4517 H   0  0  0  0  0  0  0  0  0  0  0  0
    1.1135    2.0577   -2.5610 C   0  0  0  0  0  0  0  0  0  0  0  0
    0.3363    1.9234   -3.3152 H   0  0  0  0  0  0  0  0  0  0  0  0
    1.3209    3.1215   -2.4365 H   0  0  0  0  0  0  0  0  0  0  0  0
    2.0192    1.5494   -2.8972 H   0  0  0  0  0  0  0  0  0  0  0  0
  5  6  2  0  0  0  0
  5  7  1  0  0  0  0
  2  3  1  0  0  0  0
  2  4  1  0  0  0  0
  2  5  1  0  0  0  0
  1  2  1  0  0  0  0
 20 21  2  0  0  0  0
 20 22  1  0  0  0  0
 17 18  1  0  0  0  0
 17 19  2  0  0  0  0
 14 15  1  0  0  0  0
 14 16  1  0  0  0  0
 14 17  1  0  0  0  0
 11 12  1  0  0  0  0
 11 13  1  0  0  0  0
 11 14  1  0  0  0  0
  9 10  1  0  0  0  0
  9 11  1  0  0  0  0
  9 20  1  0  0  0  0
  7  8  1  0  0  0  0
  7  9  1  0  0  0  0
 24 25  1  0  0  0  0
 24 26  1  0  0  0  0
 24 27  1  0  0  0  0
 22 23  1  0  0  0  0
 22 24  1  0  0  0  0
M  CHG  1  18  -1
M  END
$$$$
default_name
  -OEChem-01062215323D

 27 26  0     1  0  0  0  0  0999 V2000
   -3.2406   -3.5400    1.2326 H   0  0  0  0  0  0  0  0  0  0  0  0
   -3.1436   -2.6190    0.6606 C   0  0  0  0  0  0  0  0  0  0  0  0
   -3.8786   -1.8920    0.9996 H   0  0  0  0  0  0  0  0  0  0  0  0
   -3.2846   -2.8280   -0.3984 H   0  0  0  0  0  0  0  0  0  0  0  0
   -1.7586   -2.0580    0.8686 C   0  0  0  0  0  0  0  0  0  0  0  0
   -0.9666   -2.6340    1.6026 O   0  0  0  0  0  0  0  0  0  0  0  0
   -1.4866   -0.9220    0.2366 N   0  0  0  0  0  0  0  0  0  0  0  0
   -2.2166   -0.4790   -0.2994 H   0  0  0  0  0  0  0  0  0  0  0  0
   -0.1956   -0.2250    0.2596 C   0  0  1  0  0  0  0  0  0  0  0  0
   -0.2898    0.6689    0.8768 H   0  0  0  0  0  0  0  0  0  0  0  0
    0.8590   -1.1363    0.9193 C   0  0  0  0  0  0  0  0  0  0  0  0
    0.8449   -2.0965    0.4013 H   0  0  0  0  0  0  0  0  0  0  0  0
    1.8476   -0.6919    0.7946 H   0  0  0  0  0  0  0  0  0  0  0  0
    0.6030   -1.3855    2.4152 C   0  0  0  0  0  0  0  0  0  0  0  0
    0.6085   -0.4287    2.9429 H   0  0  0  0  0  0  0  0  0  0  0  0
   -0.3920   -1.8250    2.5244 H   0  0  0  0  0  0  0  0  0  0  0  0
    1.6403   -2.3129    3.0657 C   0  0  0  0  0  0  0  0  0  0  0  0
    2.4836   -2.8707    2.3281 O   0  5  0  0  0  0  0  0  0  0  0  0
    1.5858   -2.4301    4.3101 O   0  0  0  0  0  0  0  0  0  0  0  0
    0.2039    0.2329   -1.1586 C   0  0  0  0  0  0  0  0  0  0  0  0
   -0.1757   -0.3926   -2.1507 O   0  0  0  0  0  0  0  0  0  0  0  0
    0.9508    1.3400   -1.2607 N   0  0  0  0  0  0  0  0  0  0  0  0
    1.2689    1.7677   -0.4038 H   0  0  0  0  0  0  0  0  0  0  0  0
    1.4271    1.8940   -2.5255 C   0  0  0  0  0  0  0  0  0  0  0  0
    0.5905    2.0043   -3.2175 H   0  0  0  0  0  0  0  0  0  0  0  0
    1.8923    2.8664   -2.3579 H   0  0  0  0  0  0  0  0  0  0  0  0
    2.1587    1.2140   -2.9662 H   0  0  0  0  0  0  0  0  0  0  0  0
  5  6  2  0  0  0  0
  5  7  1  0  0  0  0
  2  3  1  0  0  0  0
  2  4  1  0  0  0  0
  2  5  1  0  0  0  0
  1  2  1  0  0  0  0
 20 21  2  0  0  0  0
 20 22  1  0  0  0  0
 17 18  1  0  0  0  0
 17 19  2  0  0  0  0
 14 15  1  0  0  0  0
 14 16  1  0  0  0  0
 14 17  1  0  0  0  0
 11 12  1  0  0  0  0
 11 13  1  0  0  0  0
 11 14  1  0  0  0  0
  9 10  1  0  0  0  0
  9 11  1  0  0  0  0
  9 20  1  0  0  0  0
  7  8  1  0  0  0  0
  7  9  1  0  0  0  0
 24 25  1  0  0  0  0
 24 26  1  0  0  0  0
 24 27  1  0  0  0  0
 22 23  1  0  0  0  0
 22 24  1  0  0  0  0
M  CHG  1  18  -1
M  END
$$$$
default_name
  -OEChem-01062215323D

 27 26  0     1  0  0  0  0  0999 V2000
   -3.2406   -3.5400    1.2326 H   0  0  0  0  0  0  0  0  0  0  0  0
   -3.1436   -2.6190    0.6606 C   0  0  0  0  0  0  0  0  0  0  0  0
   -3.8786   -1.8920    0.9996 H   0  0  0  0  0  0  0  0  0  0  0  0
   -3.2846   -2.8280   -0.3984 H   0  0  0  0  0  0  0  0  0  0  0  0
   -1.7586   -2.0580    0.8686 C   0  0  0  0  0  0  0  0  0  0  0  0
   -0.9666   -2.6340    1.6026 O   0  0  0  0  0  0  0  0  0  0  0  0
   -1.4866   -0.9220    0.2366 N   0  0  0  0  0  0  0  0  0  0  0  0
   -2.2166   -0.4790   -0.2994 H   0  0  0  0  0  0  0  0  0  0  0  0
   -0.1956   -0.2250    0.2596 C   0  0  1  0  0  0  0  0  0  0  0  0
   -0.2898    0.6689    0.8768 H   0  0  0  0  0  0  0  0  0  0  0  0
    0.8590   -1.1363    0.9193 C   0  0  0  0  0  0  0  0  0  0  0  0
    0.8449   -2.0965    0.4013 H   0  0  0  0  0  0  0  0  0  0  0  0
    1.8476   -0.6919    0.7946 H   0  0  0  0  0  0  0  0  0  0  0  0
    0.6030   -1.3855    2.4152 C   0  0  0  0  0  0  0  0  0  0  0  0
    0.6085   -0.4287    2.9429 H   0  0  0  0  0  0  0  0  0  0  0  0
   -0.3920   -1.8250    2.5244 H   0  0  0  0  0  0  0  0  0  0  0  0
    1.6403   -2.3129    3.0657 C   0  0  0  0  0  0  0  0  0  0  0  0
    2.4836   -2.8707    2.3281 O   0  5  0  0  0  0  0  0  0  0  0  0
    1.5858   -2.4301    4.3101 O   0  0  0  0  0  0  0  0  0  0  0  0
    0.2039    0.2329   -1.1586 C   0  0  0  0  0  0  0  0  0  0  0  0
   -0.3823   -0.2081   -2.1493 O   0  0  0  0  0  0  0  0  0  0  0  0
    1.1863    1.1376   -1.2597 N   0  0  0  0  0  0  0  0  0  0  0  0
    1.6560    1.4119   -0.4096 H   0  0  0  0  0  0  0  0  0  0  0  0
    1.6938    1.6589   -2.5263 C   0  0  0  0  0  0  0  0  0  0  0  0
    0.8628    2.0154   -3.1372 H   0  0  0  0  0  0  0  0  0  0  0  0
    2.3897    2.4789   -2.3430 H   0  0  0  0  0  0  0  0  0  0  0  0
    2.2083    0.8615   -3.0661 H   0  0  0  0  0  0  0  0  0  0  0  0
  5  6  2  0  0  0  0
  5  7  1  0  0  0  0
  2  3  1  0  0  0  0
  2  4  1  0  0  0  0
  2  5  1  0  0  0  0
  1  2  1  0  0  0  0
 20 21  2  0  0  0  0
 20 22  1  0  0  0  0
 17 18  1  0  0  0  0
 17 19  2  0  0  0  0
 14 15  1  0  0  0  0
 14 16  1  0  0  0  0
 14 17  1  0  0  0  0
 11 12  1  0  0  0  0
 11 13  1  0  0  0  0
 11 14  1  0  0  0  0
  9 10  1  0  0  0  0
  9 11  1  0  0  0  0
  9 20  1  0  0  0  0
  7  8  1  0  0  0  0
  7  9  1  0  0  0  0
 24 25  1  0  0  0  0
 24 26  1  0  0  0  0
 24 27  1  0  0  0  0
 22 23  1  0  0  0  0
 22 24  1  0  0  0  0
M  CHG  1  18  -1
M  END
$$$$
default_name
  -OEChem-01062215323D

 27 26  0     1  0  0  0  0  0999 V2000
   -3.2406   -3.5400    1.2326 H   0  0  0  0  0  0  0  0  0  0  0  0
   -3.1436   -2.6190    0.6606 C   0  0  0  0  0  0  0  0  0  0  0  0
   -3.8786   -1.8920    0.9996 H   0  0  0  0  0  0  0  0  0  0  0  0
   -3.2846   -2.8280   -0.3984 H   0  0  0  0  0  0  0  0  0  0  0  0
   -1.7586   -2.0580    0.8686 C   0  0  0  0  0  0  0  0  0  0  0  0
   -0.9666   -2.6340    1.6026 O   0  0  0  0  0  0  0  0  0  0  0  0
   -1.4866   -0.9220    0.2366 N   0  0  0  0  0  0  0  0  0  0  0  0
   -2.2166   -0.4790   -0.2994 H   0  0  0  0  0  0  0  0  0  0  0  0
   -0.1956   -0.2250    0.2596 C   0  0  1  0  0  0  0  0  0  0  0  0
   -0.2039    0.5032    1.0711 H   0  0  0  0  0  0  0  0  0  0  0  0
    0.9231   -1.2430    0.5599 C   0  0  0  0  0  0  0  0  0  0  0  0
    0.8354   -2.0603   -0.1576 H   0  0  0  0  0  0  0  0  0  0  0  0
    1.8931   -0.7639    0.4197 H   0  0  0  0  0  0  0  0  0  0  0  0
    0.8511   -1.8306    1.9794 C   0  0  0  0  0  0  0  0  0  0  0  0
    0.9314   -1.0190    2.7066 H   0  0  0  0  0  0  0  0  0  0  0  0
   -0.1273   -2.3015    2.1065 H   0  0  0  0  0  0  0  0  0  0  0  0
    1.9512   -2.8625    2.2693 C   0  0  0  0  0  0  0  0  0  0  0  0
    2.6913   -3.2224    1.3263 O   0  5  0  0  0  0  0  0  0  0  0  0
    2.0495   -3.2606    3.4512 O   0  0  0  0  0  0  0  0  0  0  0  0
    0.0305    0.5507   -1.0548 C   0  0  0  0  0  0  0  0  0  0  0  0
   -0.8263    0.5477   -1.9411 O   0  0  0  0  0  0  0  0  0  0  0  0
    1.1738    1.2379   -1.1755 N   0  0  0  0  0  0  0  0  0  0  0  0
    1.8508    1.1496   -0.4323 H   0  0  0  0  0  0  0  0  0  0  0  0
    1.5472    2.0067   -2.3599 C   0  0  0  0  0  0  0  0  0  0  0  0
    0.7345    2.6824   -2.6318 H   0  0  0  0  0  0  0  0  0  0  0  0
    2.4513    2.5846   -2.1628 H   0  0  0  0  0  0  0  0  0  0  0  0
    1.7284    1.3242   -3.1926 H   0  0  0  0  0  0  0  0  0  0  0  0
  5  6  2  0  0  0  0
  5  7  1  0  0  0  0
  2  3  1  0  0  0  0
  2  4  1  0  0  0  0
  2  5  1  0  0  0  0
  1  2  1  0  0  0  0
 20 21  2  0  0  0  0
 20 22  1  0  0  0  0
 17 18  1  0  0  0  0
 17 19  2  0  0  0  0
 14 15  1  0  0  0  0
 14 16  1  0  0  0  0
 14 17  1  0  0  0  0
 11 12  1  0  0  0  0
 11 13  1  0  0  0  0
 11 14  1  0  0  0  0
  9 10  1  0  0  0  0
  9 11  1  0  0  0  0
  9 20  1  0  0  0  0
  7  8  1  0  0  0  0
  7  9  1  0  0  0  0
 24 25  1  0  0  0  0
 24 26  1  0  0  0  0
 24 27  1  0  0  0  0
 22 23  1  0  0  0  0
 22 24  1  0  0  0  0
M  CHG  1  18  -1
M  END
$$$$
default_name
  -OEChem-01062215323D

 27 26  0     1  0  0  0  0  0999 V2000
   -3.2406   -3.5400    1.2326 H   0  0  0  0  0  0  0  0  0  0  0  0
   -3.1436   -2.6190    0.6606 C   0  0  0  0  0  0  0  0  0  0  0  0
   -3.8786   -1.8920    0.9996 H   0  0  0  0  0  0  0  0  0  0  0  0
   -3.2846   -2.8280   -0.3984 H   0  0  0  0  0  0  0  0  0  0  0  0
   -1.7586   -2.0580    0.8686 C   0  0  0  0  0  0  0  0  0  0  0  0
   -0.9666   -2.6340    1.6026 O   0  0  0  0  0  0  0  0  0  0  0  0
   -1.4866   -0.9220    0.2366 N   0  0  0  0  0  0  0  0  0  0  0  0
   -2.2166   -0.4790   -0.2994 H   0  0  0  0  0  0  0  0  0  0  0  0
   -0.1956   -0.2250    0.2596 C   0  0  1  0  0  0  0  0  0  0  0  0
   -0.2039    0.5032    1.0711 H   0  0  0  0  0  0  0  0  0  0  0  0
    0.9231   -1.2430    0.5599 C   0  0  0  0  0  0  0  0  0  0  0  0
    0.8354   -2.0603   -0.1576 H   0  0  0  0  0  0  0  0  0  0  0  0
    1.8931   -0.7639    0.4197 H   0  0  0  0  0  0  0  0  0  0  0  0
    0.8511   -1.8306    1.9794 C   0  0  0  0  0  0  0  0  0  0  0  0
    0.9314   -1.0190    2.7066 H   0  0  0  0  0  0  0  0  0  0  0  0
   -0.1273   -2.3015    2.1065 H   0  0  0  0  0  0  0  0  0  0  0  0
    1.9512   -2.8625    2.2693 C   0  0  0  0  0  0  0  0  0  0  0  0
    2.6913   -3.2224    1.3263 O   0  5  0  0  0  0  0  0  0  0  0  0
    2.0495   -3.2606    3.4512 O   0  0  0  0  0  0  0  0  0  0  0  0
    0.0305    0.5507   -1.0548 C   0  0  0  0  0  0  0  0  0  0  0  0
   -0.9100    0.7810   -1.8178 O   0  0  0  0  0  0  0  0  0  0  0  0
    1.2737    0.9775   -1.3120 N   0  0  0  0  0  0  0  0  0  0  0  0
    2.0020    0.7049   -0.6688 H   0  0  0  0  0  0  0  0  0  0  0  0
    1.6571    1.7076   -2.5176 C   0  0  0  0  0  0  0  0  0  0  0  0
    0.9878    2.5574   -2.6619 H   0  0  0  0  0  0  0  0  0  0  0  0
    2.6846    2.0633   -2.4303 H   0  0  0  0  0  0  0  0  0  0  0  0
    1.5752    1.0467   -3.3827 H   0  0  0  0  0  0  0  0  0  0  0  0
  5  6  2  0  0  0  0
  5  7  1  0  0  0  0
  2  3  1  0  0  0  0
  2  4  1  0  0  0  0
  2  5  1  0  0  0  0
  1  2  1  0  0  0  0
 20 21  2  0  0  0  0
 20 22  1  0  0  0  0
 17 18  1  0  0  0  0
 17 19  2  0  0  0  0
 14 15  1  0  0  0  0
 14 16  1  0  0  0  0
 14 17  1  0  0  0  0
 11 12  1  0  0  0  0
 11 13  1  0  0  0  0
 11 14  1  0  0  0  0
  9 10  1  0  0  0  0
  9 11  1  0  0  0  0
  9 20  1  0  0  0  0
  7  8  1  0  0  0  0
  7  9  1  0  0  0  0
 24 25  1  0  0  0  0
 24 26  1  0  0  0  0
 24 27  1  0  0  0  0
 22 23  1  0  0  0  0
 22 24  1  0  0  0  0
M  CHG  1  18  -1
M  END
$$$$
default_name
  -OEChem-01062215323D

 27 26  0     1  0  0  0  0  0999 V2000
   -3.2406   -3.5400    1.2326 H   0  0  0  0  0  0  0  0  0  0  0  0
   -3.1436   -2.6190    0.6606 C   0  0  0  0  0  0  0  0  0  0  0  0
   -3.8786   -1.8920    0.9996 H   0  0  0  0  0  0  0  0  0  0  0  0
   -3.2846   -2.8280   -0.3984 H   0  0  0  0  0  0  0  0  0  0  0  0
   -1.7586   -2.0580    0.8686 C   0  0  0  0  0  0  0  0  0  0  0  0
   -0.9666   -2.6340    1.6026 O   0  0  0  0  0  0  0  0  0  0  0  0
   -1.4866   -0.9220    0.2366 N   0  0  0  0  0  0  0  0  0  0  0  0
   -2.2166   -0.4790   -0.2994 H   0  0  0  0  0  0  0  0  0  0  0  0
   -0.1956   -0.2250    0.2596 C   0  0  1  0  0  0  0  0  0  0  0  0
   -0.2039    0.5032    1.0711 H   0  0  0  0  0  0  0  0  0  0  0  0
    0.9231   -1.2430    0.5599 C   0  0  0  0  0  0  0  0  0  0  0  0
    0.8354   -2.0603   -0.1576 H   0  0  0  0  0  0  0  0  0  0  0  0
    1.8931   -0.7639    0.4197 H   0  0  0  0  0  0  0  0  0  0  0  0
    0.8511   -1.8306    1.9794 C   0  0  0  0  0  0  0  0  0  0  0  0
    0.9314   -1.0190    2.7066 H   0  0  0  0  0  0  0  0  0  0  0  0
   -0.1273   -2.3015    2.1065 H   0  0  0  0  0  0  0  0  0  0  0  0
    1.9512   -2.8625    2.2693 C   0  0  0  0  0  0  0  0  0  0  0  0
    2.6913   -3.2224    1.3263 O   0  5  0  0  0  0  0  0  0  0  0  0
    2.0495   -3.2606    3.4512 O   0  0  0  0  0  0  0  0  0  0  0  0
    0.0305    0.5507   -1.0548 C   0  0  0  0  0  0  0  0  0  0  0  0
   -0.9233    1.0202   -1.6789 O   0  0  0  0  0  0  0  0  0  0  0  0
    1.2951    0.7092   -1.4667 N   0  0  0  0  0  0  0  0  0  0  0  0
    2.0192    0.2509   -0.9337 H   0  0  0  0  0  0  0  0  0  0  0  0
    1.6767    1.4004   -2.6956 C   0  0  0  0  0  0  0  0  0  0  0  0
    1.2011    2.3820   -2.7288 H   0  0  0  0  0  0  0  0  0  0  0  0
    2.7603    1.5185   -2.7389 H   0  0  0  0  0  0  0  0  0  0  0  0
    1.3412    0.8196   -3.5570 H   0  0  0  0  0  0  0  0  0  0  0  0
  5  6  2  0  0  0  0
  5  7  1  0  0  0  0
  2  3  1  0  0  0  0
  2  4  1  0  0  0  0
  2  5  1  0  0  0  0
  1  2  1  0  0  0  0
 20 21  2  0  0  0  0
 20 22  1  0  0  0  0
 17 18  1  0  0  0  0
 17 19  2  0  0  0  0
 14 15  1  0  0  0  0
 14 16  1  0  0  0  0
 14 17  1  0  0  0  0
 11 12  1  0  0  0  0
 11 13  1  0  0  0  0
 11 14  1  0  0  0  0
  9 10  1  0  0  0  0
  9 11  1  0  0  0  0
  9 20  1  0  0  0  0
  7  8  1  0  0  0  0
  7  9  1  0  0  0  0
 24 25  1  0  0  0  0
 24 26  1  0  0  0  0
 24 27  1  0  0  0  0
 22 23  1  0  0  0  0
 22 24  1  0  0  0  0
M  CHG  1  18  -1
M  END
$$$$
default_name
  -OEChem-01062215323D

 27 26  0     1  0  0  0  0  0999 V2000
   -3.2406   -3.5400    1.2326 H   0  0  0  0  0  0  0  0  0  0  0  0
   -3.1436   -2.6190    0.6606 C   0  0  0  0  0  0  0  0  0  0  0  0
   -3.8786   -1.8920    0.9996 H   0  0  0  0  0  0  0  0  0  0  0  0
   -3.2846   -2.8280   -0.3984 H   0  0  0  0  0  0  0  0  0  0  0  0
   -1.7586   -2.0580    0.8686 C   0  0  0  0  0  0  0  0  0  0  0  0
   -0.9666   -2.6340    1.6026 O   0  0  0  0  0  0  0  0  0  0  0  0
   -1.4866   -0.9220    0.2366 N   0  0  0  0  0  0  0  0  0  0  0  0
   -2.2166   -0.4790   -0.2994 H   0  0  0  0  0  0  0  0  0  0  0  0
   -0.1956   -0.2250    0.2596 C   0  0  1  0  0  0  0  0  0  0  0  0
   -0.2039    0.5032    1.0711 H   0  0  0  0  0  0  0  0  0  0  0  0
    0.9231   -1.2430    0.5599 C   0  0  0  0  0  0  0  0  0  0  0  0
    0.8354   -2.0603   -0.1576 H   0  0  0  0  0  0  0  0  0  0  0  0
    1.8931   -0.7639    0.4197 H   0  0  0  0  0  0  0  0  0  0  0  0
    0.8511   -1.8306    1.9794 C   0  0  0  0  0  0  0  0  0  0  0  0
    0.9314   -1.0190    2.7066 H   0  0  0  0  0  0  0  0  0  0  0  0
   -0.1273   -2.3015    2.1065 H   0  0  0  0  0  0  0  0  0  0  0  0
    1.9512   -2.8625    2.2693 C   0  0  0  0  0  0  0  0  0  0  0  0
    2.6913   -3.2224    1.3263 O   0  5  0  0  0  0  0  0  0  0  0  0
    2.0495   -3.2606    3.4512 O   0  0  0  0  0  0  0  0  0  0  0  0
    0.0305    0.5507   -1.0548 C   0  0  0  0  0  0  0  0  0  0  0  0
   -0.8654    1.2489   -1.5340 O   0  0  0  0  0  0  0  0  0  0  0  0
    1.2364    0.4511   -1.6291 N   0  0  0  0  0  0  0  0  0  0  0  0
    1.9013   -0.1813   -1.2091 H   0  0  0  0  0  0  0  0  0  0  0  0
    1.6047    1.1060   -2.8816 C   0  0  0  0  0  0  0  0  0  0  0  0
    1.3598    2.1681   -2.8277 H   0  0  0  0  0  0  0  0  0  0  0  0
    2.6731    0.9872   -3.0674 H   0  0  0  0  0  0  0  0  0  0  0  0
    1.0425    0.6584   -3.7035 H   0  0  0  0  0  0  0  0  0  0  0  0
  5  6  2  0  0  0  0
  5  7  1  0  0  0  0
  2  3  1  0  0  0  0
  2  4  1  0  0  0  0
  2  5  1  0  0  0  0
  1  2  1  0  0  0  0
 20 21  2  0  0  0  0
 20 22  1  0  0  0  0
 17 18  1  0  0  0  0
 17 19  2  0  0  0  0
 14 15  1  0  0  0  0
 14 16  1  0  0  0  0
 14 17  1  0  0  0  0
 11 12  1  0  0  0  0
 11 13  1  0  0  0  0
 11 14  1  0  0  0  0
  9 10  1  0  0  0  0
  9 11  1  0  0  0  0
  9 20  1  0  0  0  0
  7  8  1  0  0  0  0
  7  9  1  0  0  0  0
 24 25  1  0  0  0  0
 24 26  1  0  0  0  0
 24 27  1  0  0  0  0
 22 23  1  0  0  0  0
 22 24  1  0  0  0  0
M  CHG  1  18  -1
M  END
$$$$
default_name
  -OEChem-01062215323D

 27 26  0     1  0  0  0  0  0999 V2000
   -3.2406   -3.5400    1.2326 H   0  0  0  0  0  0  0  0  0  0  0  0
   -3.1436   -2.6190    0.6606 C   0  0  0  0  0  0  0  0  0  0  0  0
   -3.8786   -1.8920    0.9996 H   0  0  0  0  0  0  0  0  0  0  0  0
   -3.2846   -2.8280   -0.3984 H   0  0  0  0  0  0  0  0  0  0  0  0
   -1.7586   -2.0580    0.8686 C   0  0  0  0  0  0  0  0  0  0  0  0
   -0.9666   -2.6340    1.6026 O   0  0  0  0  0  0  0  0  0  0  0  0
   -1.4866   -0.9220    0.2366 N   0  0  0  0  0  0  0  0  0  0  0  0
   -2.2166   -0.4790   -0.2994 H   0  0  0  0  0  0  0  0  0  0  0  0
   -0.1956   -0.2250    0.2596 C   0  0  1  0  0  0  0  0  0  0  0  0
   -0.2039    0.5032    1.0711 H   0  0  0  0  0  0  0  0  0  0  0  0
    0.9231   -1.2430    0.5599 C   0  0  0  0  0  0  0  0  0  0  0  0
    0.8354   -2.0603   -0.1576 H   0  0  0  0  0  0  0  0  0  0  0  0
    1.8931   -0.7639    0.4197 H   0  0  0  0  0  0  0  0  0  0  0  0
    0.8511   -1.8306    1.9794 C   0  0  0  0  0  0  0  0  0  0  0  0
    0.9314   -1.0190    2.7066 H   0  0  0  0  0  0  0  0  0  0  0  0
   -0.1273   -2.3015    2.1065 H   0  0  0  0  0  0  0  0  0  0  0  0
    1.9512   -2.8625    2.2693 C   0  0  0  0  0  0  0  0  0  0  0  0
    2.6913   -3.2224    1.3263 O   0  5  0  0  0  0  0  0  0  0  0  0
    2.0495   -3.2606    3.4512 O   0  0  0  0  0  0  0  0  0  0  0  0
    0.0305    0.5507   -1.0548 C   0  0  0  0  0  0  0  0  0  0  0  0
   -0.7401    1.4516   -1.3928 O   0  0  0  0  0  0  0  0  0  0  0  0
    1.1017    0.2209   -1.7881 N   0  0  0  0  0  0  0  0  0  0  0  0
    1.6563   -0.5624   -1.4761 H   0  0  0  0  0  0  0  0  0  0  0  0
    1.4461    0.8447   -3.0632 C   0  0  0  0  0  0  0  0  0  0  0  0
    1.4530    1.9303   -2.9521 H   0  0  0  0  0  0  0  0  0  0  0  0
    2.4290    0.5057   -3.3936 H   0  0  0  0  0  0  0  0  0  0  0  0
    0.6994    0.5741   -3.8122 H   0  0  0  0  0  0  0  0  0  0  0  0
  5  6  2  0  0  0  0
  5  7  1  0  0  0  0
  2  3  1  0  0  0  0
  2  4  1  0  0  0  0
  2  5  1  0  0  0  0
  1  2  1  0  0  0  0
 20 21  2  0  0  0  0
 20 22  1  0  0  0  0
 17 18  1  0  0  0  0
 17 19  2  0  0  0  0
 14 15  1  0  0  0  0
 14 16  1  0  0  0  0
 14 17  1  0  0  0  0
 11 12  1  0  0  0  0
 11 13  1  0  0  0  0
 11 14  1  0  0  0  0
  9 10  1  0  0  0  0
  9 11  1  0  0  0  0
  9 20  1  0  0  0  0
  7  8  1  0  0  0  0
  7  9  1  0  0  0  0
 24 25  1  0  0  0  0
 24 26  1  0  0  0  0
 24 27  1  0  0  0  0
 22 23  1  0  0  0  0
 22 24  1  0  0  0  0
M  CHG  1  18  -1
M  END
$$$$
default_name
  -OEChem-01062215323D

 27 26  0     1  0  0  0  0  0999 V2000
   -3.2406   -3.5400    1.2326 H   0  0  0  0  0  0  0  0  0  0  0  0
   -3.1436   -2.6190    0.6606 C   0  0  0  0  0  0  0  0  0  0  0  0
   -3.8786   -1.8920    0.9996 H   0  0  0  0  0  0  0  0  0  0  0  0
   -3.2846   -2.8280   -0.3984 H   0  0  0  0  0  0  0  0  0  0  0  0
   -1.7586   -2.0580    0.8686 C   0  0  0  0  0  0  0  0  0  0  0  0
   -0.9666   -2.6340    1.6026 O   0  0  0  0  0  0  0  0  0  0  0  0
   -1.4866   -0.9220    0.2366 N   0  0  0  0  0  0  0  0  0  0  0  0
   -2.2166   -0.4790   -0.2994 H   0  0  0  0  0  0  0  0  0  0  0  0
   -0.1956   -0.2250    0.2596 C   0  0  1  0  0  0  0  0  0  0  0  0
   -0.2039    0.5032    1.0711 H   0  0  0  0  0  0  0  0  0  0  0  0
    0.9231   -1.2430    0.5599 C   0  0  0  0  0  0  0  0  0  0  0  0
    0.8354   -2.0603   -0.1576 H   0  0  0  0  0  0  0  0  0  0  0  0
    1.8931   -0.7639    0.4197 H   0  0  0  0  0  0  0  0  0  0  0  0
    0.8511   -1.8306    1.9794 C   0  0  0  0  0  0  0  0  0  0  0  0
    0.9314   -1.0190    2.7066 H   0  0  0  0  0  0  0  0  0  0  0  0
   -0.1273   -2.3015    2.1065 H   0  0  0  0  0  0  0  0  0  0  0  0
    1.9512   -2.8625    2.2693 C   0  0  0  0  0  0  0  0  0  0  0  0
    2.6913   -3.2224    1.3263 O   0  5  0  0  0  0  0  0  0  0  0  0
    2.0495   -3.2606    3.4512 O   0  0  0  0  0  0  0  0  0  0  0  0
    0.0305    0.5507   -1.0548 C   0  0  0  0  0  0  0  0  0  0  0  0
   -0.5561    1.6144   -1.2651 O   0  0  0  0  0  0  0  0  0  0  0  0
    0.9001    0.0343   -1.9329 N   0  0  0  0  0  0  0  0  0  0  0  0
    1.3008   -0.8663   -1.7166 H   0  0  0  0  0  0  0  0  0  0  0  0
    1.2117    0.6341   -3.2278 C   0  0  0  0  0  0  0  0  0  0  0  0
    1.4743    1.6847   -3.0933 H   0  0  0  0  0  0  0  0  0  0  0  0
    2.0446    0.1068   -3.6951 H   0  0  0  0  0  0  0  0  0  0  0  0
    0.3352    0.5725   -3.8758 H   0  0  0  0  0  0  0  0  0  0  0  0
  5  6  2  0  0  0  0
  5  7  1  0  0  0  0
  2  3  1  0  0  0  0
  2  4  1  0  0  0  0
  2  5  1  0  0  0  0
  1  2  1  0  0  0  0
 20 21  2  0  0  0  0
 20 22  1  0  0  0  0
 17 18  1  0  0  0  0
 17 19  2  0  0  0  0
 14 15  1  0  0  0  0
 14 16  1  0  0  0  0
 14 17  1  0  0  0  0
 11 12  1  0  0  0  0
 11 13  1  0  0  0  0
 11 14  1  0  0  0  0
  9 10  1  0  0  0  0
  9 11  1  0  0  0  0
  9 20  1  0  0  0  0
  7  8  1  0  0  0  0
  7  9  1  0  0  0  0
 24 25  1  0  0  0  0
 24 26  1  0  0  0  0
 24 27  1  0  0  0  0
 22 23  1  0  0  0  0
 22 24  1  0  0  0  0
M  CHG  1  18  -1
M  END
$$$$
default_name
  -OEChem-01062215323D

 27 26  0     1  0  0  0  0  0999 V2000
   -3.2406   -3.5400    1.2326 H   0  0  0  0  0  0  0  0  0  0  0  0
   -3.1436   -2.6190    0.6606 C   0  0  0  0  0  0  0  0  0  0  0  0
   -3.8786   -1.8920    0.9996 H   0  0  0  0  0  0  0  0  0  0  0  0
   -3.2846   -2.8280   -0.3984 H   0  0  0  0  0  0  0  0  0  0  0  0
   -1.7586   -2.0580    0.8686 C   0  0  0  0  0  0  0  0  0  0  0  0
   -0.9666   -2.6340    1.6026 O   0  0  0  0  0  0  0  0  0  0  0  0
   -1.4866   -0.9220    0.2366 N   0  0  0  0  0  0  0  0  0  0  0  0
   -2.2166   -0.4790   -0.2994 H   0  0  0  0  0  0  0  0  0  0  0  0
   -0.1956   -0.2250    0.2596 C   0  0  1  0  0  0  0  0  0  0  0  0
   -0.2039    0.5032    1.0711 H   0  0  0  0  0  0  0  0  0  0  0  0
    0.9231   -1.2430    0.5599 C   0  0  0  0  0  0  0  0  0  0  0  0
    0.8354   -2.0603   -0.1576 H   0  0  0  0  0  0  0  0  0  0  0  0
    1.8931   -0.7639    0.4197 H   0  0  0  0  0  0  0  0  0  0  0  0
    0.8511   -1.8306    1.9794 C   0  0  0  0  0  0  0  0  0  0  0  0
    0.9314   -1.0190    2.7066 H   0  0  0  0  0  0  0  0  0  0  0  0
   -0.1273   -2.3015    2.1065 H   0  0  0  0  0  0  0  0  0  0  0  0
    1.9512   -2.8625    2.2693 C   0  0  0  0  0  0  0  0  0  0  0  0
    2.6913   -3.2224    1.3263 O   0  5  0  0  0  0  0  0  0  0  0  0
    2.0495   -3.2606    3.4512 O   0  0  0  0  0  0  0  0  0  0  0  0
    0.0305    0.5507   -1.0548 C   0  0  0  0  0  0  0  0  0  0  0  0
   -0.3258    1.7262   -1.1595 O   0  0  0  0  0  0  0  0  0  0  0  0
    0.6454   -0.0960   -2.0536 N   0  0  0  0  0  0  0  0  0  0  0  0
    0.8591   -1.0724   -1.9142 H   0  0  0  0  0  0  0  0  0  0  0  0
    0.9173    0.4886   -3.3643 C   0  0  0  0  0  0  0  0  0  0  0  0
    1.4225    1.4481   -3.2419 H   0  0  0  0  0  0  0  0  0  0  0  0
    1.5461   -0.1823   -3.9514 H   0  0  0  0  0  0  0  0  0  0  0  0
   -0.0252    0.6536   -3.8899 H   0  0  0  0  0  0  0  0  0  0  0  0
  5  6  2  0  0  0  0
  5  7  1  0  0  0  0
  2  3  1  0  0  0  0
  2  4  1  0  0  0  0
  2  5  1  0  0  0  0
  1  2  1  0  0  0  0
 20 21  2  0  0  0  0
 20 22  1  0  0  0  0
 17 18  1  0  0  0  0
 17 19  2  0  0  0  0
 14 15  1  0  0  0  0
 14 16  1  0  0  0  0
 14 17  1  0  0  0  0
 11 12  1  0  0  0  0
 11 13  1  0  0  0  0
 11 14  1  0  0  0  0
  9 10  1  0  0  0  0
  9 11  1  0  0  0  0
  9 20  1  0  0  0  0
  7  8  1  0  0  0  0
  7  9  1  0  0  0  0
 24 25  1  0  0  0  0
 24 26  1  0  0  0  0
 24 27  1  0  0  0  0
 22 23  1  0  0  0  0
 22 24  1  0  0  0  0
M  CHG  1  18  -1
M  END
$$$$
default_name
  -OEChem-01062215323D

 27 26  0     1  0  0  0  0  0999 V2000
   -3.2406   -3.5400    1.2326 H   0  0  0  0  0  0  0  0  0  0  0  0
   -3.1436   -2.6190    0.6606 C   0  0  0  0  0  0  0  0  0  0  0  0
   -3.8786   -1.8920    0.9996 H   0  0  0  0  0  0  0  0  0  0  0  0
   -3.2846   -2.8280   -0.3984 H   0  0  0  0  0  0  0  0  0  0  0  0
   -1.7586   -2.0580    0.8686 C   0  0  0  0  0  0  0  0  0  0  0  0
   -0.9666   -2.6340    1.6026 O   0  0  0  0  0  0  0  0  0  0  0  0
   -1.4866   -0.9220    0.2366 N   0  0  0  0  0  0  0  0  0  0  0  0
   -2.2166   -0.4790   -0.2994 H   0  0  0  0  0  0  0  0  0  0  0  0
   -0.1956   -0.2250    0.2596 C   0  0  1  0  0  0  0  0  0  0  0  0
   -0.2039    0.5032    1.0711 H   0  0  0  0  0  0  0  0  0  0  0  0
    0.9231   -1.2430    0.5599 C   0  0  0  0  0  0  0  0  0  0  0  0
    0.8354   -2.0603   -0.1576 H   0  0  0  0  0  0  0  0  0  0  0  0
    1.8931   -0.7639    0.4197 H   0  0  0  0  0  0  0  0  0  0  0  0
    0.8511   -1.8306    1.9794 C   0  0  0  0  0  0  0  0  0  0  0  0
    0.9314   -1.0190    2.7066 H   0  0  0  0  0  0  0  0  0  0  0  0
   -0.1273   -2.3015    2.1065 H   0  0  0  0  0  0  0  0  0  0  0  0
    1.9512   -2.8625    2.2693 C   0  0  0  0  0  0  0  0  0  0  0  0
    2.6913   -3.2224    1.3263 O   0  5  0  0  0  0  0  0  0  0  0  0
    2.0495   -3.2606    3.4512 O   0  0  0  0  0  0  0  0  0  0  0  0
    0.0305    0.5507   -1.0548 C   0  0  0  0  0  0  0  0  0  0  0  0
   -0.0650    1.7794   -1.0833 O   0  0  0  0  0  0  0  0  0  0  0  0
    0.3550   -0.1611   -2.1420 N   0  0  0  0  0  0  0  0  0  0  0  0
    0.3614   -1.1666   -2.0554 H   0  0  0  0  0  0  0  0  0  0  0  0
    0.5832    0.4181   -3.4633 C   0  0  0  0  0  0  0  0  0  0  0  0
    1.3009    1.2367   -3.3876 H   0  0  0  0  0  0  0  0  0  0  0  0
    0.9675   -0.3419   -4.1451 H   0  0  0  0  0  0  0  0  0  0  0  0
   -0.3573    0.8120   -3.8535 H   0  0  0  0  0  0  0  0  0  0  0  0
  5  6  2  0  0  0  0
  5  7  1  0  0  0  0
  2  3  1  0  0  0  0
  2  4  1  0  0  0  0
  2  5  1  0  0  0  0
  1  2  1  0  0  0  0
 20 21  2  0  0  0  0
 20 22  1  0  0  0  0
 17 18  1  0  0  0  0
 17 19  2  0  0  0  0
 14 15  1  0  0  0  0
 14 16  1  0  0  0  0
 14 17  1  0  0  0  0
 11 12  1  0  0  0  0
 11 13  1  0  0  0  0
 11 14  1  0  0  0  0
  9 10  1  0  0  0  0
  9 11  1  0  0  0  0
  9 20  1  0  0  0  0
  7  8  1  0  0  0  0
  7  9  1  0  0  0  0
 24 25  1  0  0  0  0
 24 26  1  0  0  0  0
 24 27  1  0  0  0  0
 22 23  1  0  0  0  0
 22 24  1  0  0  0  0
M  CHG  1  18  -1
M  END
$$$$
default_name
  -OEChem-01062215323D

 27 26  0     1  0  0  0  0  0999 V2000
   -3.2406   -3.5400    1.2326 H   0  0  0  0  0  0  0  0  0  0  0  0
   -3.1436   -2.6190    0.6606 C   0  0  0  0  0  0  0  0  0  0  0  0
   -3.8786   -1.8920    0.9996 H   0  0  0  0  0  0  0  0  0  0  0  0
   -3.2846   -2.8280   -0.3984 H   0  0  0  0  0  0  0  0  0  0  0  0
   -1.7586   -2.0580    0.8686 C   0  0  0  0  0  0  0  0  0  0  0  0
   -0.9666   -2.6340    1.6026 O   0  0  0  0  0  0  0  0  0  0  0  0
   -1.4866   -0.9220    0.2366 N   0  0  0  0  0  0  0  0  0  0  0  0
   -2.2166   -0.4790   -0.2994 H   0  0  0  0  0  0  0  0  0  0  0  0
   -0.1956   -0.2250    0.2596 C   0  0  1  0  0  0  0  0  0  0  0  0
   -0.2039    0.5032    1.0711 H   0  0  0  0  0  0  0  0  0  0  0  0
    0.9231   -1.2430    0.5599 C   0  0  0  0  0  0  0  0  0  0  0  0
    0.8354   -2.0603   -0.1576 H   0  0  0  0  0  0  0  0  0  0  0  0
    1.8931   -0.7639    0.4197 H   0  0  0  0  0  0  0  0  0  0  0  0
    0.8511   -1.8306    1.9794 C   0  0  0  0  0  0  0  0  0  0  0  0
    0.9314   -1.0190    2.7066 H   0  0  0  0  0  0  0  0  0  0  0  0
   -0.1273   -2.3015    2.1065 H   0  0  0  0  0  0  0  0  0  0  0  0
    1.9512   -2.8625    2.2693 C   0  0  0  0  0  0  0  0  0  0  0  0
    2.6913   -3.2224    1.3263 O   0  5  0  0  0  0  0  0  0  0  0  0
    2.0495   -3.2606    3.4512 O   0  0  0  0  0  0  0  0  0  0  0  0
    0.0305    0.5507   -1.0548 C   0  0  0  0  0  0  0  0  0  0  0  0
    0.2086    1.7704   -1.0415 O   0  0  0  0  0  0  0  0  0  0  0  0
    0.0486   -0.1566   -2.1920 N   0  0  0  0  0  0  0  0  0  0  0  0
   -0.1586   -1.1424   -2.1305 H   0  0  0  0  0  0  0  0  0  0  0  0
    0.2320    0.4274   -3.5182 C   0  0  0  0  0  0  0  0  0  0  0  0
    1.1179    1.0648   -3.5205 H   0  0  0  0  0  0  0  0  0  0  0  0
    0.3482   -0.3612   -4.2630 H   0  0  0  0  0  0  0  0  0  0  0  0
   -0.6384    1.0368   -3.7692 H   0  0  0  0  0  0  0  0  0  0  0  0
  5  6  2  0  0  0  0
  5  7  1  0  0  0  0
  2  3  1  0  0  0  0
  2  4  1  0  0  0  0
  2  5  1  0  0  0  0
  1  2  1  0  0  0  0
 20 21  2  0  0  0  0
 20 22  1  0  0  0  0
 17 18  1  0  0  0  0
 17 19  2  0  0  0  0
 14 15  1  0  0  0  0
 14 16  1  0  0  0  0
 14 17  1  0  0  0  0
 11 12  1  0  0  0  0
 11 13  1  0  0  0  0
 11 14  1  0  0  0  0
  9 10  1  0  0  0  0
  9 11  1  0  0  0  0
  9 20  1  0  0  0  0
  7  8  1  0  0  0  0
  7  9  1  0  0  0  0
 24 25  1  0  0  0  0
 24 26  1  0  0  0  0
 24 27  1  0  0  0  0
 22 23  1  0  0  0  0
 22 24  1  0  0  0  0
M  CHG  1  18  -1
M  END
$$$$
default_name
  -OEChem-01062215323D

 27 26  0     1  0  0  0  0  0999 V2000
   -3.2406   -3.5400    1.2326 H   0  0  0  0  0  0  0  0  0  0  0  0
   -3.1436   -2.6190    0.6606 C   0  0  0  0  0  0  0  0  0  0  0  0
   -3.8786   -1.8920    0.9996 H   0  0  0  0  0  0  0  0  0  0  0  0
   -3.2846   -2.8280   -0.3984 H   0  0  0  0  0  0  0  0  0  0  0  0
   -1.7586   -2.0580    0.8686 C   0  0  0  0  0  0  0  0  0  0  0  0
   -0.9666   -2.6340    1.6026 O   0  0  0  0  0  0  0  0  0  0  0  0
   -1.4866   -0.9220    0.2366 N   0  0  0  0  0  0  0  0  0  0  0  0
   -2.2166   -0.4790   -0.2994 H   0  0  0  0  0  0  0  0  0  0  0  0
   -0.1956   -0.2250    0.2596 C   0  0  1  0  0  0  0  0  0  0  0  0
   -0.2039    0.5032    1.0711 H   0  0  0  0  0  0  0  0  0  0  0  0
    0.9231   -1.2430    0.5599 C   0  0  0  0  0  0  0  0  0  0  0  0
    0.8354   -2.0603   -0.1576 H   0  0  0  0  0  0  0  0  0  0  0  0
    1.8931   -0.7639    0.4197 H   0  0  0  0  0  0  0  0  0  0  0  0
    0.8511   -1.8306    1.9794 C   0  0  0  0  0  0  0  0  0  0  0  0
    0.9314   -1.0190    2.7066 H   0  0  0  0  0  0  0  0  0  0  0  0
   -0.1273   -2.3015    2.1065 H   0  0  0  0  0  0  0  0  0  0  0  0
    1.9512   -2.8625    2.2693 C   0  0  0  0  0  0  0  0  0  0  0  0
    2.6913   -3.2224    1.3263 O   0  5  0  0  0  0  0  0  0  0  0  0
    2.0495   -3.2606    3.4512 O   0  0  0  0  0  0  0  0  0  0  0  0
    0.0305    0.5507   -1.0548 C   0  0  0  0  0  0  0  0  0  0  0  0
    0.4764    1.6998   -1.0372 O   0  0  0  0  0  0  0  0  0  0  0  0
   -0.2529   -0.0829   -2.2003 N   0  0  0  0  0  0  0  0  0  0  0  0
   -0.6652   -1.0016   -2.1346 H   0  0  0  0  0  0  0  0  0  0  0  0
   -0.1123    0.5160   -3.5251 C   0  0  0  0  0  0  0  0  0  0  0  0
    0.8859    0.9441   -3.6316 H   0  0  0  0  0  0  0  0  0  0  0  0
   -0.2696   -0.2387   -4.2969 H   0  0  0  0  0  0  0  0  0  0  0  0
   -0.8493    1.3128   -3.6426 H   0  0  0  0  0  0  0  0  0  0  0  0
  5  6  2  0  0  0  0
  5  7  1  0  0  0  0
  2  3  1  0  0  0  0
  2  4  1  0  0  0  0
  2  5  1  0  0  0  0
  1  2  1  0  0  0  0
 20 21  2  0  0  0  0
 20 22  1  0  0  0  0
 17 18  1  0  0  0  0
 17 19  2  0  0  0  0
 14 15  1  0  0  0  0
 14 16  1  0  0  0  0
 14 17  1  0  0  0  0
 11 12  1  0  0  0  0
 11 13  1  0  0  0  0
 11 14  1  0  0  0  0
  9 10  1  0  0  0  0
  9 11  1  0  0  0  0
  9 20  1  0  0  0  0
  7  8  1  0  0  0  0
  7  9  1  0  0  0  0
 24 25  1  0  0  0  0
 24 26  1  0  0  0  0
 24 27  1  0  0  0  0
 22 23  1  0  0  0  0
 22 24  1  0  0  0  0
M  CHG  1  18  -1
M  END
$$$$
default_name
  -OEChem-01062215323D

 27 26  0     1  0  0  0  0  0999 V2000
   -3.2406   -3.5400    1.2326 H   0  0  0  0  0  0  0  0  0  0  0  0
   -3.1436   -2.6190    0.6606 C   0  0  0  0  0  0  0  0  0  0  0  0
   -3.8786   -1.8920    0.9996 H   0  0  0  0  0  0  0  0  0  0  0  0
   -3.2846   -2.8280   -0.3984 H   0  0  0  0  0  0  0  0  0  0  0  0
   -1.7586   -2.0580    0.8686 C   0  0  0  0  0  0  0  0  0  0  0  0
   -0.9666   -2.6340    1.6026 O   0  0  0  0  0  0  0  0  0  0  0  0
   -1.4866   -0.9220    0.2366 N   0  0  0  0  0  0  0  0  0  0  0  0
   -2.2166   -0.4790   -0.2994 H   0  0  0  0  0  0  0  0  0  0  0  0
   -0.1956   -0.2250    0.2596 C   0  0  1  0  0  0  0  0  0  0  0  0
   -0.2039    0.5032    1.0711 H   0  0  0  0  0  0  0  0  0  0  0  0
    0.9231   -1.2430    0.5599 C   0  0  0  0  0  0  0  0  0  0  0  0
    0.8354   -2.0603   -0.1576 H   0  0  0  0  0  0  0  0  0  0  0  0
    1.8931   -0.7639    0.4197 H   0  0  0  0  0  0  0  0  0  0  0  0
    0.8511   -1.8306    1.9794 C   0  0  0  0  0  0  0  0  0  0  0  0
    0.9314   -1.0190    2.7066 H   0  0  0  0  0  0  0  0  0  0  0  0
   -0.1273   -2.3015    2.1065 H   0  0  0  0  0  0  0  0  0  0  0  0
    1.9512   -2.8625    2.2693 C   0  0  0  0  0  0  0  0  0  0  0  0
    2.6913   -3.2224    1.3263 O   0  5  0  0  0  0  0  0  0  0  0  0
    2.0495   -3.2606    3.4512 O   0  0  0  0  0  0  0  0  0  0  0  0
    0.0305    0.5507   -1.0548 C   0  0  0  0  0  0  0  0  0  0  0  0
    0.7200    1.5725   -1.0704 O   0  0  0  0  0  0  0  0  0  0  0  0
   -0.5290    0.0552   -2.1663 N   0  0  0  0  0  0  0  0  0  0  0  0
   -1.1241   -0.7538   -2.0672 H   0  0  0  0  0  0  0  0  0  0  0  0
   -0.4262    0.6777   -3.4837 C   0  0  0  0  0  0  0  0  0  0  0  0
    0.6207    0.8830   -3.7133 H   0  0  0  0  0  0  0  0  0  0  0  0
   -0.8437    0.0170   -4.2447 H   0  0  0  0  0  0  0  0  0  0  0  0
   -0.9758    1.6210   -3.4824 H   0  0  0  0  0  0  0  0  0  0  0  0
  5  6  2  0  0  0  0
  5  7  1  0  0  0  0
  2  3  1  0  0  0  0
  2  4  1  0  0  0  0
  2  5  1  0  0  0  0
  1  2  1  0  0  0  0
 20 21  2  0  0  0  0
 20 22  1  0  0  0  0
 17 18  1  0  0  0  0
 17 19  2  0  0  0  0
 14 15  1  0  0  0  0
 14 16  1  0  0  0  0
 14 17  1  0  0  0  0
 11 12  1  0  0  0  0
 11 13  1  0  0  0  0
 11 14  1  0  0  0  0
  9 10  1  0  0  0  0
  9 11  1  0  0  0  0
  9 20  1  0  0  0  0
  7  8  1  0  0  0  0
  7  9  1  0  0  0  0
 24 25  1  0  0  0  0
 24 26  1  0  0  0  0
 24 27  1  0  0  0  0
 22 23  1  0  0  0  0
 22 24  1  0  0  0  0
M  CHG  1  18  -1
M  END
$$$$
default_name
  -OEChem-01062215323D

 27 26  0     1  0  0  0  0  0999 V2000
   -3.2406   -3.5400    1.2326 H   0  0  0  0  0  0  0  0  0  0  0  0
   -3.1436   -2.6190    0.6606 C   0  0  0  0  0  0  0  0  0  0  0  0
   -3.8786   -1.8920    0.9996 H   0  0  0  0  0  0  0  0  0  0  0  0
   -3.2846   -2.8280   -0.3984 H   0  0  0  0  0  0  0  0  0  0  0  0
   -1.7586   -2.0580    0.8686 C   0  0  0  0  0  0  0  0  0  0  0  0
   -0.9666   -2.6340    1.6026 O   0  0  0  0  0  0  0  0  0  0  0  0
   -1.4866   -0.9220    0.2366 N   0  0  0  0  0  0  0  0  0  0  0  0
   -2.2166   -0.4790   -0.2994 H   0  0  0  0  0  0  0  0  0  0  0  0
   -0.1956   -0.2250    0.2596 C   0  0  1  0  0  0  0  0  0  0  0  0
   -0.2039    0.5032    1.0711 H   0  0  0  0  0  0  0  0  0  0  0  0
    0.9231   -1.2430    0.5599 C   0  0  0  0  0  0  0  0  0  0  0  0
    0.8354   -2.0603   -0.1576 H   0  0  0  0  0  0  0  0  0  0  0  0
    1.8931   -0.7639    0.4197 H   0  0  0  0  0  0  0  0  0  0  0  0
    0.8511   -1.8306    1.9794 C   0  0  0  0  0  0  0  0  0  0  0  0
    0.9314   -1.0190    2.7066 H   0  0  0  0  0  0  0  0  0  0  0  0
   -0.1273   -2.3015    2.1065 H   0  0  0  0  0  0  0  0  0  0  0  0
    1.9512   -2.8625    2.2693 C   0  0  0  0  0  0  0  0  0  0  0  0
    2.6913   -3.2224    1.3263 O   0  5  0  0  0  0  0  0  0  0  0  0
    2.0495   -3.2606    3.4512 O   0  0  0  0  0  0  0  0  0  0  0  0
    0.0305    0.5507   -1.0548 C   0  0  0  0  0  0  0  0  0  0  0  0
    0.9229    1.3970   -1.1391 O   0  0  0  0  0  0  0  0  0  0  0  0
   -0.7607    0.2481   -2.0923 N   0  0  0  0  0  0  0  0  0  0  0  0
   -1.5040   -0.4157   -1.9330 H   0  0  0  0  0  0  0  0  0  0  0  0
   -0.6884    0.9016   -3.3966 C   0  0  0  0  0  0  0  0  0  0  0  0
    0.3405    0.8854   -3.7600 H   0  0  0  0  0  0  0  0  0  0  0  0
   -1.3351    0.3886   -4.1099 H   0  0  0  0  0  0  0  0  0  0  0  0
   -1.0091    1.9406   -3.2995 H   0  0  0  0  0  0  0  0  0  0  0  0
  5  6  2  0  0  0  0
  5  7  1  0  0  0  0
  2  3  1  0  0  0  0
  2  4  1  0  0  0  0
  2  5  1  0  0  0  0
  1  2  1  0  0  0  0
 20 21  2  0  0  0  0
 20 22  1  0  0  0  0
 17 18  1  0  0  0  0
 17 19  2  0  0  0  0
 14 15  1  0  0  0  0
 14 16  1  0  0  0  0
 14 17  1  0  0  0  0
 11 12  1  0  0  0  0
 11 13  1  0  0  0  0
 11 14  1  0  0  0  0
  9 10  1  0  0  0  0
  9 11  1  0  0  0  0
  9 20  1  0  0  0  0
  7  8  1  0  0  0  0
  7  9  1  0  0  0  0
 24 25  1  0  0  0  0
 24 26  1  0  0  0  0
 24 27  1  0  0  0  0
 22 23  1  0  0  0  0
 22 24  1  0  0  0  0
M  CHG  1  18  -1
M  END
$$$$
default_name
  -OEChem-01062215323D

 27 26  0     1  0  0  0  0  0999 V2000
   -3.2406   -3.5400    1.2326 H   0  0  0  0  0  0  0  0  0  0  0  0
   -3.1436   -2.6190    0.6606 C   0  0  0  0  0  0  0  0  0  0  0  0
   -3.8786   -1.8920    0.9996 H   0  0  0  0  0  0  0  0  0  0  0  0
   -3.2846   -2.8280   -0.3984 H   0  0  0  0  0  0  0  0  0  0  0  0
   -1.7586   -2.0580    0.8686 C   0  0  0  0  0  0  0  0  0  0  0  0
   -0.9666   -2.6340    1.6026 O   0  0  0  0  0  0  0  0  0  0  0  0
   -1.4866   -0.9220    0.2366 N   0  0  0  0  0  0  0  0  0  0  0  0
   -2.2166   -0.4790   -0.2994 H   0  0  0  0  0  0  0  0  0  0  0  0
   -0.1956   -0.2250    0.2596 C   0  0  1  0  0  0  0  0  0  0  0  0
   -0.2039    0.5032    1.0711 H   0  0  0  0  0  0  0  0  0  0  0  0
    0.9231   -1.2430    0.5599 C   0  0  0  0  0  0  0  0  0  0  0  0
    0.8354   -2.0603   -0.1576 H   0  0  0  0  0  0  0  0  0  0  0  0
    1.8931   -0.7639    0.4197 H   0  0  0  0  0  0  0  0  0  0  0  0
    0.8511   -1.8306    1.9794 C   0  0  0  0  0  0  0  0  0  0  0  0
    0.9314   -1.0190    2.7066 H   0  0  0  0  0  0  0  0  0  0  0  0
   -0.1273   -2.3015    2.1065 H   0  0  0  0  0  0  0  0  0  0  0  0
    1.9512   -2.8625    2.2693 C   0  0  0  0  0  0  0  0  0  0  0  0
    2.6913   -3.2224    1.3263 O   0  5  0  0  0  0  0  0  0  0  0  0
    2.0495   -3.2606    3.4512 O   0  0  0  0  0  0  0  0  0  0  0  0
    0.0305    0.5507   -1.0548 C   0  0  0  0  0  0  0  0  0  0  0  0
    1.0712    1.1853   -1.2385 O   0  0  0  0  0  0  0  0  0  0  0  0
   -0.9324    0.4828   -1.9834 N   0  0  0  0  0  0  0  0  0  0  0  0
   -1.7789   -0.0105   -1.7411 H   0  0  0  0  0  0  0  0  0  0  0  0
   -0.8810    1.1723   -3.2700 C   0  0  0  0  0  0  0  0  0  0  0  0
    0.0643    0.9514   -3.7686 H   0  0  0  0  0  0  0  0  0  0  0  0
   -1.7103    0.8509   -3.9016 H   0  0  0  0  0  0  0  0  0  0  0  0
   -0.9471    2.2497   -3.1064 H   0  0  0  0  0  0  0  0  0  0  0  0
  5  6  2  0  0  0  0
  5  7  1  0  0  0  0
  2  3  1  0  0  0  0
  2  4  1  0  0  0  0
  2  5  1  0  0  0  0
  1  2  1  0  0  0  0
 20 21  2  0  0  0  0
 20 22  1  0  0  0  0
 17 18  1  0  0  0  0
 17 19  2  0  0  0  0
 14 15  1  0  0  0  0
 14 16  1  0  0  0  0
 14 17  1  0  0  0  0
 11 12  1  0  0  0  0
 11 13  1  0  0  0  0
 11 14  1  0  0  0  0
  9 10  1  0  0  0  0
  9 11  1  0  0  0  0
  9 20  1  0  0  0  0
  7  8  1  0  0  0  0
  7  9  1  0  0  0  0
 24 25  1  0  0  0  0
 24 26  1  0  0  0  0
 24 27  1  0  0  0  0
 22 23  1  0  0  0  0
 22 24  1  0  0  0  0
M  CHG  1  18  -1
M  END
$$$$
default_name
  -OEChem-01062215323D

 27 26  0     1  0  0  0  0  0999 V2000
   -3.2406   -3.5400    1.2326 H   0  0  0  0  0  0  0  0  0  0  0  0
   -3.1436   -2.6190    0.6606 C   0  0  0  0  0  0  0  0  0  0  0  0
   -3.8786   -1.8920    0.9996 H   0  0  0  0  0  0  0  0  0  0  0  0
   -3.2846   -2.8280   -0.3984 H   0  0  0  0  0  0  0  0  0  0  0  0
   -1.7586   -2.0580    0.8686 C   0  0  0  0  0  0  0  0  0  0  0  0
   -0.9666   -2.6340    1.6026 O   0  0  0  0  0  0  0  0  0  0  0  0
   -1.4866   -0.9220    0.2366 N   0  0  0  0  0  0  0  0  0  0  0  0
   -2.2166   -0.4790   -0.2994 H   0  0  0  0  0  0  0  0  0  0  0  0
   -0.1956   -0.2250    0.2596 C   0  0  1  0  0  0  0  0  0  0  0  0
   -0.2039    0.5032    1.0711 H   0  0  0  0  0  0  0  0  0  0  0  0
    0.9231   -1.2430    0.5599 C   0  0  0  0  0  0  0  0  0  0  0  0
    0.8354   -2.0603   -0.1576 H   0  0  0  0  0  0  0  0  0  0  0  0
    1.8931   -0.7639    0.4197 H   0  0  0  0  0  0  0  0  0  0  0  0
    0.8511   -1.8306    1.9794 C   0  0  0  0  0  0  0  0  0  0  0  0
    0.9314   -1.0190    2.7066 H   0  0  0  0  0  0  0  0  0  0  0  0
   -0.1273   -2.3015    2.1065 H   0  0  0  0  0  0  0  0  0  0  0  0
    1.9512   -2.8625    2.2693 C   0  0  0  0  0  0  0  0  0  0  0  0
    2.6913   -3.2224    1.3263 O   0  5  0  0  0  0  0  0  0  0  0  0
    2.0495   -3.2606    3.4512 O   0  0  0  0  0  0  0  0  0  0  0  0
    0.0305    0.5507   -1.0548 C   0  0  0  0  0  0  0  0  0  0  0  0
    1.1549    0.9519   -1.3619 O   0  0  0  0  0  0  0  0  0  0  0  0
   -1.0324    0.7431   -1.8469 N   0  0  0  0  0  0  0  0  0  0  0  0
   -1.9301    0.4342   -1.5046 H   0  0  0  0  0  0  0  0  0  0  0  0
   -0.9908    1.4715   -3.1123 C   0  0  0  0  0  0  0  0  0  0  0  0
   -0.1891    1.0763   -3.7384 H   0  0  0  0  0  0  0  0  0  0  0  0
   -1.9437    1.3722   -3.6341 H   0  0  0  0  0  0  0  0  0  0  0  0
   -0.7939    2.5272   -2.9163 H   0  0  0  0  0  0  0  0  0  0  0  0
  5  6  2  0  0  0  0
  5  7  1  0  0  0  0
  2  3  1  0  0  0  0
  2  4  1  0  0  0  0
  2  5  1  0  0  0  0
  1  2  1  0  0  0  0
 20 21  2  0  0  0  0
 20 22  1  0  0  0  0
 17 18  1  0  0  0  0
 17 19  2  0  0  0  0
 14 15  1  0  0  0  0
 14 16  1  0  0  0  0
 14 17  1  0  0  0  0
 11 12  1  0  0  0  0
 11 13  1  0  0  0  0
 11 14  1  0  0  0  0
  9 10  1  0  0  0  0
  9 11  1  0  0  0  0
  9 20  1  0  0  0  0
  7  8  1  0  0  0  0
  7  9  1  0  0  0  0
 24 25  1  0  0  0  0
 24 26  1  0  0  0  0
 24 27  1  0  0  0  0
 22 23  1  0  0  0  0
 22 24  1  0  0  0  0
M  CHG  1  18  -1
M  END
$$$$
default_name
  -OEChem-01062215323D

 27 26  0     1  0  0  0  0  0999 V2000
   -3.2406   -3.5400    1.2326 H   0  0  0  0  0  0  0  0  0  0  0  0
   -3.1436   -2.6190    0.6606 C   0  0  0  0  0  0  0  0  0  0  0  0
   -3.8786   -1.8920    0.9996 H   0  0  0  0  0  0  0  0  0  0  0  0
   -3.2846   -2.8280   -0.3984 H   0  0  0  0  0  0  0  0  0  0  0  0
   -1.7586   -2.0580    0.8686 C   0  0  0  0  0  0  0  0  0  0  0  0
   -0.9666   -2.6340    1.6026 O   0  0  0  0  0  0  0  0  0  0  0  0
   -1.4866   -0.9220    0.2366 N   0  0  0  0  0  0  0  0  0  0  0  0
   -2.2166   -0.4790   -0.2994 H   0  0  0  0  0  0  0  0  0  0  0  0
   -0.1956   -0.2250    0.2596 C   0  0  1  0  0  0  0  0  0  0  0  0
   -0.2039    0.5032    1.0711 H   0  0  0  0  0  0  0  0  0  0  0  0
    0.9231   -1.2430    0.5599 C   0  0  0  0  0  0  0  0  0  0  0  0
    0.8354   -2.0603   -0.1576 H   0  0  0  0  0  0  0  0  0  0  0  0
    1.8931   -0.7639    0.4197 H   0  0  0  0  0  0  0  0  0  0  0  0
    0.8511   -1.8306    1.9794 C   0  0  0  0  0  0  0  0  0  0  0  0
    0.9314   -1.0190    2.7066 H   0  0  0  0  0  0  0  0  0  0  0  0
   -0.1273   -2.3015    2.1065 H   0  0  0  0  0  0  0  0  0  0  0  0
    1.9512   -2.8625    2.2693 C   0  0  0  0  0  0  0  0  0  0  0  0
    2.6913   -3.2224    1.3263 O   0  5  0  0  0  0  0  0  0  0  0  0
    2.0495   -3.2606    3.4512 O   0  0  0  0  0  0  0  0  0  0  0  0
    0.0305    0.5507   -1.0548 C   0  0  0  0  0  0  0  0  0  0  0  0
    1.1682    0.7127   -1.5008 O   0  0  0  0  0  0  0  0  0  0  0  0
   -1.0537    1.0115   -1.6922 N   0  0  0  0  0  0  0  0  0  0  0  0
   -1.9473    0.8882   -1.2397 H   0  0  0  0  0  0  0  0  0  0  0  0
   -1.0104    1.7787   -2.9343 C   0  0  0  0  0  0  0  0  0  0  0  0
   -0.4024    1.2517   -3.6716 H   0  0  0  0  0  0  0  0  0  0  0  0
   -2.0194    1.9170   -3.3255 H   0  0  0  0  0  0  0  0  0  0  0  0
   -0.5600    2.7544   -2.7420 H   0  0  0  0  0  0  0  0  0  0  0  0
  5  6  2  0  0  0  0
  5  7  1  0  0  0  0
  2  3  1  0  0  0  0
  2  4  1  0  0  0  0
  2  5  1  0  0  0  0
  1  2  1  0  0  0  0
 20 21  2  0  0  0  0
 20 22  1  0  0  0  0
 17 18  1  0  0  0  0
 17 19  2  0  0  0  0
 14 15  1  0  0  0  0
 14 16  1  0  0  0  0
 14 17  1  0  0  0  0
 11 12  1  0  0  0  0
 11 13  1  0  0  0  0
 11 14  1  0  0  0  0
  9 10  1  0  0  0  0
  9 11  1  0  0  0  0
  9 20  1  0  0  0  0
  7  8  1  0  0  0  0
  7  9  1  0  0  0  0
 24 25  1  0  0  0  0
 24 26  1  0  0  0  0
 24 27  1  0  0  0  0
 22 23  1  0  0  0  0
 22 24  1  0  0  0  0
M  CHG  1  18  -1
M  END
$$$$
default_name
  -OEChem-01062215323D

 27 26  0     1  0  0  0  0  0999 V2000
   -3.2406   -3.5400    1.2326 H   0  0  0  0  0  0  0  0  0  0  0  0
   -3.1436   -2.6190    0.6606 C   0  0  0  0  0  0  0  0  0  0  0  0
   -3.8786   -1.8920    0.9996 H   0  0  0  0  0  0  0  0  0  0  0  0
   -3.2846   -2.8280   -0.3984 H   0  0  0  0  0  0  0  0  0  0  0  0
   -1.7586   -2.0580    0.8686 C   0  0  0  0  0  0  0  0  0  0  0  0
   -0.9666   -2.6340    1.6026 O   0  0  0  0  0  0  0  0  0  0  0  0
   -1.4866   -0.9220    0.2366 N   0  0  0  0  0  0  0  0  0  0  0  0
   -2.2166   -0.4790   -0.2994 H   0  0  0  0  0  0  0  0  0  0  0  0
   -0.1956   -0.2250    0.2596 C   0  0  1  0  0  0  0  0  0  0  0  0
   -0.2039    0.5032    1.0711 H   0  0  0  0  0  0  0  0  0  0  0  0
    0.9231   -1.2430    0.5599 C   0  0  0  0  0  0  0  0  0  0  0  0
    0.8354   -2.0603   -0.1576 H   0  0  0  0  0  0  0  0  0  0  0  0
    1.8931   -0.7639    0.4197 H   0  0  0  0  0  0  0  0  0  0  0  0
    0.8511   -1.8306    1.9794 C   0  0  0  0  0  0  0  0  0  0  0  0
    0.9314   -1.0190    2.7066 H   0  0  0  0  0  0  0  0  0  0  0  0
   -0.1273   -2.3015    2.1065 H   0  0  0  0  0  0  0  0  0  0  0  0
    1.9512   -2.8625    2.2693 C   0  0  0  0  0  0  0  0  0  0  0  0
    2.6913   -3.2224    1.3263 O   0  5  0  0  0  0  0  0  0  0  0  0
    2.0495   -3.2606    3.4512 O   0  0  0  0  0  0  0  0  0  0  0  0
    0.0305    0.5507   -1.0548 C   0  0  0  0  0  0  0  0  0  0  0  0
    1.1103    0.4840   -1.6457 O   0  0  0  0  0  0  0  0  0  0  0  0
   -0.9950    1.2696   -1.5298 N   0  0  0  0  0  0  0  0  0  0  0  0
   -1.8294    1.3204   -0.9643 H   0  0  0  0  0  0  0  0  0  0  0  0
   -0.9385    2.0730   -2.7483 C   0  0  0  0  0  0  0  0  0  0  0  0
   -0.5610    1.4656   -3.5726 H   0  0  0  0  0  0  0  0  0  0  0  0
   -1.9322    2.4483   -2.9970 H   0  0  0  0  0  0  0  0  0  0  0  0
   -0.2612    2.9155   -2.5955 H   0  0  0  0  0  0  0  0  0  0  0  0
  5  6  2  0  0  0  0
  5  7  1  0  0  0  0
  2  3  1  0  0  0  0
  2  4  1  0  0  0  0
  2  5  1  0  0  0  0
  1  2  1  0  0  0  0
 20 21  2  0  0  0  0
 20 22  1  0  0  0  0
 17 18  1  0  0  0  0
 17 19  2  0  0  0  0
 14 15  1  0  0  0  0
 14 16  1  0  0  0  0
 14 17  1  0  0  0  0
 11 12  1  0  0  0  0
 11 13  1  0  0  0  0
 11 14  1  0  0  0  0
  9 10  1  0  0  0  0
  9 11  1  0  0  0  0
  9 20  1  0  0  0  0
  7  8  1  0  0  0  0
  7  9  1  0  0  0  0
 24 25  1  0  0  0  0
 24 26  1  0  0  0  0
 24 27  1  0  0  0  0
 22 23  1  0  0  0  0
 22 24  1  0  0  0  0
M  CHG  1  18  -1
M  END
$$$$
default_name
  -OEChem-01062215323D

 27 26  0     1  0  0  0  0  0999 V2000
   -3.2406   -3.5400    1.2326 H   0  0  0  0  0  0  0  0  0  0  0  0
   -3.1436   -2.6190    0.6606 C   0  0  0  0  0  0  0  0  0  0  0  0
   -3.8786   -1.8920    0.9996 H   0  0  0  0  0  0  0  0  0  0  0  0
   -3.2846   -2.8280   -0.3984 H   0  0  0  0  0  0  0  0  0  0  0  0
   -1.7586   -2.0580    0.8686 C   0  0  0  0  0  0  0  0  0  0  0  0
   -0.9666   -2.6340    1.6026 O   0  0  0  0  0  0  0  0  0  0  0  0
   -1.4866   -0.9220    0.2366 N   0  0  0  0  0  0  0  0  0  0  0  0
   -2.2166   -0.4790   -0.2994 H   0  0  0  0  0  0  0  0  0  0  0  0
   -0.1956   -0.2250    0.2596 C   0  0  1  0  0  0  0  0  0  0  0  0
   -0.2039    0.5032    1.0711 H   0  0  0  0  0  0  0  0  0  0  0  0
    0.9231   -1.2430    0.5599 C   0  0  0  0  0  0  0  0  0  0  0  0
    0.8354   -2.0603   -0.1576 H   0  0  0  0  0  0  0  0  0  0  0  0
    1.8931   -0.7639    0.4197 H   0  0  0  0  0  0  0  0  0  0  0  0
    0.8511   -1.8306    1.9794 C   0  0  0  0  0  0  0  0  0  0  0  0
    0.9314   -1.0190    2.7066 H   0  0  0  0  0  0  0  0  0  0  0  0
   -0.1273   -2.3015    2.1065 H   0  0  0  0  0  0  0  0  0  0  0  0
    1.9512   -2.8625    2.2693 C   0  0  0  0  0  0  0  0  0  0  0  0
    2.6913   -3.2224    1.3263 O   0  5  0  0  0  0  0  0  0  0  0  0
    2.0495   -3.2606    3.4512 O   0  0  0  0  0  0  0  0  0  0  0  0
    0.0305    0.5507   -1.0548 C   0  0  0  0  0  0  0  0  0  0  0  0
    0.9850    0.2814   -1.7868 O   0  0  0  0  0  0  0  0  0  0  0  0
   -0.8603    1.4997   -1.3708 N   0  0  0  0  0  0  0  0  0  0  0  0
   -1.5844    1.7015   -0.6973 H   0  0  0  0  0  0  0  0  0  0  0  0
   -0.7799    2.3344   -2.5667 C   0  0  0  0  0  0  0  0  0  0  0  0
   -0.6542    1.7035   -3.4483 H   0  0  0  0  0  0  0  0  0  0  0  0
   -1.6880    2.9298   -2.6709 H   0  0  0  0  0  0  0  0  0  0  0  0
    0.0819    2.9998   -2.4868 H   0  0  0  0  0  0  0  0  0  0  0  0
  5  6  2  0  0  0  0
  5  7  1  0  0  0  0
  2  3  1  0  0  0  0
  2  4  1  0  0  0  0
  2  5  1  0  0  0  0
  1  2  1  0  0  0  0
 20 21  2  0  0  0  0
 20 22  1  0  0  0  0
 17 18  1  0  0  0  0
 17 19  2  0  0  0  0
 14 15  1  0  0  0  0
 14 16  1  0  0  0  0
 14 17  1  0  0  0  0
 11 12  1  0  0  0  0
 11 13  1  0  0  0  0
 11 14  1  0  0  0  0
  9 10  1  0  0  0  0
  9 11  1  0  0  0  0
  9 20  1  0  0  0  0
  7  8  1  0  0  0  0
  7  9  1  0  0  0  0
 24 25  1  0  0  0  0
 24 26  1  0  0  0  0
 24 27  1  0  0  0  0
 22 23  1  0  0  0  0
 22 24  1  0  0  0  0
M  CHG  1  18  -1
M  END
$$$$
default_name
  -OEChem-01062215323D

 27 26  0     1  0  0  0  0  0999 V2000
   -3.2406   -3.5400    1.2326 H   0  0  0  0  0  0  0  0  0  0  0  0
   -3.1436   -2.6190    0.6606 C   0  0  0  0  0  0  0  0  0  0  0  0
   -3.8786   -1.8920    0.9996 H   0  0  0  0  0  0  0  0  0  0  0  0
   -3.2846   -2.8280   -0.3984 H   0  0  0  0  0  0  0  0  0  0  0  0
   -1.7586   -2.0580    0.8686 C   0  0  0  0  0  0  0  0  0  0  0  0
   -0.9666   -2.6340    1.6026 O   0  0  0  0  0  0  0  0  0  0  0  0
   -1.4866   -0.9220    0.2366 N   0  0  0  0  0  0  0  0  0  0  0  0
   -2.2166   -0.4790   -0.2994 H   0  0  0  0  0  0  0  0  0  0  0  0
   -0.1956   -0.2250    0.2596 C   0  0  1  0  0  0  0  0  0  0  0  0
   -0.2039    0.5032    1.0711 H   0  0  0  0  0  0  0  0  0  0  0  0
    0.9231   -1.2430    0.5599 C   0  0  0  0  0  0  0  0  0  0  0  0
    0.8354   -2.0603   -0.1576 H   0  0  0  0  0  0  0  0  0  0  0  0
    1.8931   -0.7639    0.4197 H   0  0  0  0  0  0  0  0  0  0  0  0
    0.8511   -1.8306    1.9794 C   0  0  0  0  0  0  0  0  0  0  0  0
    0.9314   -1.0190    2.7066 H   0  0  0  0  0  0  0  0  0  0  0  0
   -0.1273   -2.3015    2.1065 H   0  0  0  0  0  0  0  0  0  0  0  0
    1.9512   -2.8625    2.2693 C   0  0  0  0  0  0  0  0  0  0  0  0
    2.6913   -3.2224    1.3263 O   0  5  0  0  0  0  0  0  0  0  0  0
    2.0495   -3.2606    3.4512 O   0  0  0  0  0  0  0  0  0  0  0  0
    0.0305    0.5507   -1.0548 C   0  0  0  0  0  0  0  0  0  0  0  0
    0.8010    0.1186   -1.9146 O   0  0  0  0  0  0  0  0  0  0  0  0
   -0.6588    1.6863   -1.2260 N   0  0  0  0  0  0  0  0  0  0  0  0
   -1.2289    2.0054   -0.4568 H   0  0  0  0  0  0  0  0  0  0  0  0
   -0.5454    2.5450   -2.4021 C   0  0  0  0  0  0  0  0  0  0  0  0
   -0.6756    1.9490   -3.3070 H   0  0  0  0  0  0  0  0  0  0  0  0
   -1.3036    3.3286   -2.3693 H   0  0  0  0  0  0  0  0  0  0  0  0
    0.4461    3.0014   -2.4232 H   0  0  0  0  0  0  0  0  0  0  0  0
  5  6  2  0  0  0  0
  5  7  1  0  0  0  0
  2  3  1  0  0  0  0
  2  4  1  0  0  0  0
  2  5  1  0  0  0  0
  1  2  1  0  0  0  0
 20 21  2  0  0  0  0
 20 22  1  0  0  0  0
 17 18  1  0  0  0  0
 17 19  2  0  0  0  0
 14 15  1  0  0  0  0
 14 16  1  0  0  0  0
 14 17  1  0  0  0  0
 11 12  1  0  0  0  0
 11 13  1  0  0  0  0
 11 14  1  0  0  0  0
  9 10  1  0  0  0  0
  9 11  1  0  0  0  0
  9 20  1  0  0  0  0
  7  8  1  0  0  0  0
  7  9  1  0  0  0  0
 24 25  1  0  0  0  0
 24 26  1  0  0  0  0
 24 27  1  0  0  0  0
 22 23  1  0  0  0  0
 22 24  1  0  0  0  0
M  CHG  1  18  -1
M  END
$$$$
default_name
  -OEChem-01062215323D

 27 26  0     1  0  0  0  0  0999 V2000
   -3.2406   -3.5400    1.2326 H   0  0  0  0  0  0  0  0  0  0  0  0
   -3.1436   -2.6190    0.6606 C   0  0  0  0  0  0  0  0  0  0  0  0
   -3.8786   -1.8920    0.9996 H   0  0  0  0  0  0  0  0  0  0  0  0
   -3.2846   -2.8280   -0.3984 H   0  0  0  0  0  0  0  0  0  0  0  0
   -1.7586   -2.0580    0.8686 C   0  0  0  0  0  0  0  0  0  0  0  0
   -0.9666   -2.6340    1.6026 O   0  0  0  0  0  0  0  0  0  0  0  0
   -1.4866   -0.9220    0.2366 N   0  0  0  0  0  0  0  0  0  0  0  0
   -2.2166   -0.4790   -0.2994 H   0  0  0  0  0  0  0  0  0  0  0  0
   -0.1956   -0.2250    0.2596 C   0  0  1  0  0  0  0  0  0  0  0  0
   -0.2039    0.5032    1.0711 H   0  0  0  0  0  0  0  0  0  0  0  0
    0.9231   -1.2430    0.5599 C   0  0  0  0  0  0  0  0  0  0  0  0
    0.8354   -2.0603   -0.1576 H   0  0  0  0  0  0  0  0  0  0  0  0
    1.8931   -0.7639    0.4197 H   0  0  0  0  0  0  0  0  0  0  0  0
    0.8511   -1.8306    1.9794 C   0  0  0  0  0  0  0  0  0  0  0  0
    0.9314   -1.0190    2.7066 H   0  0  0  0  0  0  0  0  0  0  0  0
   -0.1273   -2.3015    2.1065 H   0  0  0  0  0  0  0  0  0  0  0  0
    1.9512   -2.8625    2.2693 C   0  0  0  0  0  0  0  0  0  0  0  0
    2.6913   -3.2224    1.3263 O   0  5  0  0  0  0  0  0  0  0  0  0
    2.0495   -3.2606    3.4512 O   0  0  0  0  0  0  0  0  0  0  0  0
    0.0305    0.5507   -1.0548 C   0  0  0  0  0  0  0  0  0  0  0  0
    0.5707    0.0068   -2.0202 O   0  0  0  0  0  0  0  0  0  0  0  0
   -0.4041    1.8167   -1.1053 N   0  0  0  0  0  0  0  0  0  0  0  0
   -0.7872    2.2115   -0.2592 H   0  0  0  0  0  0  0  0  0  0  0  0
   -0.2511    2.6905   -2.2656 C   0  0  0  0  0  0  0  0  0  0  0  0
   -0.6238    2.1856   -3.1585 H   0  0  0  0  0  0  0  0  0  0  0  0
   -0.8051    3.6177   -2.1130 H   0  0  0  0  0  0  0  0  0  0  0  0
    0.8065    2.9203   -2.4091 H   0  0  0  0  0  0  0  0  0  0  0  0
  5  6  2  0  0  0  0
  5  7  1  0  0  0  0
  2  3  1  0  0  0  0
  2  4  1  0  0  0  0
  2  5  1  0  0  0  0
  1  2  1  0  0  0  0
 20 21  2  0  0  0  0
 20 22  1  0  0  0  0
 17 18  1  0  0  0  0
 17 19  2  0  0  0  0
 14 15  1  0  0  0  0
 14 16  1  0  0  0  0
 14 17  1  0  0  0  0
 11 12  1  0  0  0  0
 11 13  1  0  0  0  0
 11 14  1  0  0  0  0
  9 10  1  0  0  0  0
  9 11  1  0  0  0  0
  9 20  1  0  0  0  0
  7  8  1  0  0  0  0
  7  9  1  0  0  0  0
 24 25  1  0  0  0  0
 24 26  1  0  0  0  0
 24 27  1  0  0  0  0
 22 23  1  0  0  0  0
 22 24  1  0  0  0  0
M  CHG  1  18  -1
M  END
$$$$
default_name
  -OEChem-01062215323D

 27 26  0     1  0  0  0  0  0999 V2000
   -3.2406   -3.5400    1.2326 H   0  0  0  0  0  0  0  0  0  0  0  0
   -3.1436   -2.6190    0.6606 C   0  0  0  0  0  0  0  0  0  0  0  0
   -3.8786   -1.8920    0.9996 H   0  0  0  0  0  0  0  0  0  0  0  0
   -3.2846   -2.8280   -0.3984 H   0  0  0  0  0  0  0  0  0  0  0  0
   -1.7586   -2.0580    0.8686 C   0  0  0  0  0  0  0  0  0  0  0  0
   -0.9666   -2.6340    1.6026 O   0  0  0  0  0  0  0  0  0  0  0  0
   -1.4866   -0.9220    0.2366 N   0  0  0  0  0  0  0  0  0  0  0  0
   -2.2166   -0.4790   -0.2994 H   0  0  0  0  0  0  0  0  0  0  0  0
   -0.1956   -0.2250    0.2596 C   0  0  1  0  0  0  0  0  0  0  0  0
   -0.2039    0.5032    1.0711 H   0  0  0  0  0  0  0  0  0  0  0  0
    0.9231   -1.2430    0.5599 C   0  0  0  0  0  0  0  0  0  0  0  0
    0.8354   -2.0603   -0.1576 H   0  0  0  0  0  0  0  0  0  0  0  0
    1.8931   -0.7639    0.4197 H   0  0  0  0  0  0  0  0  0  0  0  0
    0.8511   -1.8306    1.9794 C   0  0  0  0  0  0  0  0  0  0  0  0
    0.9314   -1.0190    2.7066 H   0  0  0  0  0  0  0  0  0  0  0  0
   -0.1273   -2.3015    2.1065 H   0  0  0  0  0  0  0  0  0  0  0  0
    1.9512   -2.8625    2.2693 C   0  0  0  0  0  0  0  0  0  0  0  0
    2.6913   -3.2224    1.3263 O   0  5  0  0  0  0  0  0  0  0  0  0
    2.0495   -3.2606    3.4512 O   0  0  0  0  0  0  0  0  0  0  0  0
    0.0305    0.5507   -1.0548 C   0  0  0  0  0  0  0  0  0  0  0  0
    0.3099   -0.0465   -2.0964 O   0  0  0  0  0  0  0  0  0  0  0  0
   -0.1136    1.8818   -1.0169 N   0  0  0  0  0  0  0  0  0  0  0  0
   -0.2895    2.3057   -0.1180 H   0  0  0  0  0  0  0  0  0  0  0  0
    0.0831    2.7610   -2.1666 C   0  0  0  0  0  0  0  0  0  0  0  0
   -0.5022    2.3971   -3.0128 H   0  0  0  0  0  0  0  0  0  0  0  0
   -0.2265    3.7774   -1.9193 H   0  0  0  0  0  0  0  0  0  0  0  0
    1.1386    2.7619   -2.4455 H   0  0  0  0  0  0  0  0  0  0  0  0
  5  6  2  0  0  0  0
  5  7  1  0  0  0  0
  2  3  1  0  0  0  0
  2  4  1  0  0  0  0
  2  5  1  0  0  0  0
  1  2  1  0  0  0  0
 20 21  2  0  0  0  0
 20 22  1  0  0  0  0
 17 18  1  0  0  0  0
 17 19  2  0  0  0  0
 14 15  1  0  0  0  0
 14 16  1  0  0  0  0
 14 17  1  0  0  0  0
 11 12  1  0  0  0  0
 11 13  1  0  0  0  0
 11 14  1  0  0  0  0
  9 10  1  0  0  0  0
  9 11  1  0  0  0  0
  9 20  1  0  0  0  0
  7  8  1  0  0  0  0
  7  9  1  0  0  0  0
 24 25  1  0  0  0  0
 24 26  1  0  0  0  0
 24 27  1  0  0  0  0
 22 23  1  0  0  0  0
 22 24  1  0  0  0  0
M  CHG  1  18  -1
M  END
$$$$
default_name
  -OEChem-01062215323D

 27 26  0     1  0  0  0  0  0999 V2000
   -3.2406   -3.5400    1.2326 H   0  0  0  0  0  0  0  0  0  0  0  0
   -3.1436   -2.6190    0.6606 C   0  0  0  0  0  0  0  0  0  0  0  0
   -3.8786   -1.8920    0.9996 H   0  0  0  0  0  0  0  0  0  0  0  0
   -3.2846   -2.8280   -0.3984 H   0  0  0  0  0  0  0  0  0  0  0  0
   -1.7586   -2.0580    0.8686 C   0  0  0  0  0  0  0  0  0  0  0  0
   -0.9666   -2.6340    1.6026 O   0  0  0  0  0  0  0  0  0  0  0  0
   -1.4866   -0.9220    0.2366 N   0  0  0  0  0  0  0  0  0  0  0  0
   -2.2166   -0.4790   -0.2994 H   0  0  0  0  0  0  0  0  0  0  0  0
   -0.1956   -0.2250    0.2596 C   0  0  1  0  0  0  0  0  0  0  0  0
   -0.2039    0.5032    1.0711 H   0  0  0  0  0  0  0  0  0  0  0  0
    0.9231   -1.2430    0.5599 C   0  0  0  0  0  0  0  0  0  0  0  0
    0.8354   -2.0603   -0.1576 H   0  0  0  0  0  0  0  0  0  0  0  0
    1.8931   -0.7639    0.4197 H   0  0  0  0  0  0  0  0  0  0  0  0
    0.8511   -1.8306    1.9794 C   0  0  0  0  0  0  0  0  0  0  0  0
    0.9314   -1.0190    2.7066 H   0  0  0  0  0  0  0  0  0  0  0  0
   -0.1273   -2.3015    2.1065 H   0  0  0  0  0  0  0  0  0  0  0  0
    1.9512   -2.8625    2.2693 C   0  0  0  0  0  0  0  0  0  0  0  0
    2.6913   -3.2224    1.3263 O   0  5  0  0  0  0  0  0  0  0  0  0
    2.0495   -3.2606    3.4512 O   0  0  0  0  0  0  0  0  0  0  0  0
    0.0305    0.5507   -1.0548 C   0  0  0  0  0  0  0  0  0  0  0  0
    0.0363   -0.0375   -2.1382 O   0  0  0  0  0  0  0  0  0  0  0  0
    0.1928    1.8773   -0.9668 N   0  0  0  0  0  0  0  0  0  0  0  0
    0.2305    2.2815   -0.0429 H   0  0  0  0  0  0  0  0  0  0  0  0
    0.4342    2.7516   -2.1117 C   0  0  0  0  0  0  0  0  0  0  0  0
   -0.3191    2.5690   -2.8799 H   0  0  0  0  0  0  0  0  0  0  0  0
    0.3928    3.7966   -1.8015 H   0  0  0  0  0  0  0  0  0  0  0  0
    1.4197    2.5371   -2.5299 H   0  0  0  0  0  0  0  0  0  0  0  0
  5  6  2  0  0  0  0
  5  7  1  0  0  0  0
  2  3  1  0  0  0  0
  2  4  1  0  0  0  0
  2  5  1  0  0  0  0
  1  2  1  0  0  0  0
 20 21  2  0  0  0  0
 20 22  1  0  0  0  0
 17 18  1  0  0  0  0
 17 19  2  0  0  0  0
 14 15  1  0  0  0  0
 14 16  1  0  0  0  0
 14 17  1  0  0  0  0
 11 12  1  0  0  0  0
 11 13  1  0  0  0  0
 11 14  1  0  0  0  0
  9 10  1  0  0  0  0
  9 11  1  0  0  0  0
  9 20  1  0  0  0  0
  7  8  1  0  0  0  0
  7  9  1  0  0  0  0
 24 25  1  0  0  0  0
 24 26  1  0  0  0  0
 24 27  1  0  0  0  0
 22 23  1  0  0  0  0
 22 24  1  0  0  0  0
M  CHG  1  18  -1
M  END
$$$$
default_name
  -OEChem-01062215323D

 27 26  0     1  0  0  0  0  0999 V2000
   -3.2406   -3.5400    1.2326 H   0  0  0  0  0  0  0  0  0  0  0  0
   -3.1436   -2.6190    0.6606 C   0  0  0  0  0  0  0  0  0  0  0  0
   -3.8786   -1.8920    0.9996 H   0  0  0  0  0  0  0  0  0  0  0  0
   -3.2846   -2.8280   -0.3984 H   0  0  0  0  0  0  0  0  0  0  0  0
   -1.7586   -2.0580    0.8686 C   0  0  0  0  0  0  0  0  0  0  0  0
   -0.9666   -2.6340    1.6026 O   0  0  0  0  0  0  0  0  0  0  0  0
   -1.4866   -0.9220    0.2366 N   0  0  0  0  0  0  0  0  0  0  0  0
   -2.2166   -0.4790   -0.2994 H   0  0  0  0  0  0  0  0  0  0  0  0
   -0.1956   -0.2250    0.2596 C   0  0  1  0  0  0  0  0  0  0  0  0
   -0.2039    0.5032    1.0711 H   0  0  0  0  0  0  0  0  0  0  0  0
    0.9231   -1.2430    0.5599 C   0  0  0  0  0  0  0  0  0  0  0  0
    0.8354   -2.0603   -0.1576 H   0  0  0  0  0  0  0  0  0  0  0  0
    1.8931   -0.7639    0.4197 H   0  0  0  0  0  0  0  0  0  0  0  0
    0.8511   -1.8306    1.9794 C   0  0  0  0  0  0  0  0  0  0  0  0
    0.9314   -1.0190    2.7066 H   0  0  0  0  0  0  0  0  0  0  0  0
   -0.1273   -2.3015    2.1065 H   0  0  0  0  0  0  0  0  0  0  0  0
    1.9512   -2.8625    2.2693 C   0  0  0  0  0  0  0  0  0  0  0  0
    2.6913   -3.2224    1.3263 O   0  5  0  0  0  0  0  0  0  0  0  0
    2.0495   -3.2606    3.4512 O   0  0  0  0  0  0  0  0  0  0  0  0
    0.0305    0.5507   -1.0548 C   0  0  0  0  0  0  0  0  0  0  0  0
   -0.2315    0.0331   -2.1425 O   0  0  0  0  0  0  0  0  0  0  0  0
    0.4943    1.8035   -0.9585 N   0  0  0  0  0  0  0  0  0  0  0  0
    0.7371    2.1407   -0.0389 H   0  0  0  0  0  0  0  0  0  0  0  0
    0.7785    2.6630   -2.1048 C   0  0  0  0  0  0  0  0  0  0  0  0
   -0.0871    2.6896   -2.7688 H   0  0  0  0  0  0  0  0  0  0  0  0
    1.0105    3.6742   -1.7675 H   0  0  0  0  0  0  0  0  0  0  0  0
    1.6306    2.2612   -2.6564 H   0  0  0  0  0  0  0  0  0  0  0  0
  5  6  2  0  0  0  0
  5  7  1  0  0  0  0
  2  3  1  0  0  0  0
  2  4  1  0  0  0  0
  2  5  1  0  0  0  0
  1  2  1  0  0  0  0
 20 21  2  0  0  0  0
 20 22  1  0  0  0  0
 17 18  1  0  0  0  0
 17 19  2  0  0  0  0
 14 15  1  0  0  0  0
 14 16  1  0  0  0  0
 14 17  1  0  0  0  0
 11 12  1  0  0  0  0
 11 13  1  0  0  0  0
 11 14  1  0  0  0  0
  9 10  1  0  0  0  0
  9 11  1  0  0  0  0
  9 20  1  0  0  0  0
  7  8  1  0  0  0  0
  7  9  1  0  0  0  0
 24 25  1  0  0  0  0
 24 26  1  0  0  0  0
 24 27  1  0  0  0  0
 22 23  1  0  0  0  0
 22 24  1  0  0  0  0
M  CHG  1  18  -1
M  END
$$$$
default_name
  -OEChem-01062215323D

 27 26  0     1  0  0  0  0  0999 V2000
   -3.2406   -3.5400    1.2326 H   0  0  0  0  0  0  0  0  0  0  0  0
   -3.1436   -2.6190    0.6606 C   0  0  0  0  0  0  0  0  0  0  0  0
   -3.8786   -1.8920    0.9996 H   0  0  0  0  0  0  0  0  0  0  0  0
   -3.2846   -2.8280   -0.3984 H   0  0  0  0  0  0  0  0  0  0  0  0
   -1.7586   -2.0580    0.8686 C   0  0  0  0  0  0  0  0  0  0  0  0
   -0.9666   -2.6340    1.6026 O   0  0  0  0  0  0  0  0  0  0  0  0
   -1.4866   -0.9220    0.2366 N   0  0  0  0  0  0  0  0  0  0  0  0
   -2.2166   -0.4790   -0.2994 H   0  0  0  0  0  0  0  0  0  0  0  0
   -0.1956   -0.2250    0.2596 C   0  0  1  0  0  0  0  0  0  0  0  0
   -0.2039    0.5032    1.0711 H   0  0  0  0  0  0  0  0  0  0  0  0
    0.9231   -1.2430    0.5599 C   0  0  0  0  0  0  0  0  0  0  0  0
    0.8354   -2.0603   -0.1576 H   0  0  0  0  0  0  0  0  0  0  0  0
    1.8931   -0.7639    0.4197 H   0  0  0  0  0  0  0  0  0  0  0  0
    0.8511   -1.8306    1.9794 C   0  0  0  0  0  0  0  0  0  0  0  0
    0.9314   -1.0190    2.7066 H   0  0  0  0  0  0  0  0  0  0  0  0
   -0.1273   -2.3015    2.1065 H   0  0  0  0  0  0  0  0  0  0  0  0
    1.9512   -2.8625    2.2693 C   0  0  0  0  0  0  0  0  0  0  0  0
    2.6913   -3.2224    1.3263 O   0  5  0  0  0  0  0  0  0  0  0  0
    2.0495   -3.2606    3.4512 O   0  0  0  0  0  0  0  0  0  0  0  0
    0.0305    0.5507   -1.0548 C   0  0  0  0  0  0  0  0  0  0  0  0
   -0.4751    0.1605   -2.1092 O   0  0  0  0  0  0  0  0  0  0  0  0
    0.7703    1.6655   -0.9925 N   0  0  0  0  0  0  0  0  0  0  0  0
    1.1960    1.8929   -0.1062 H   0  0  0  0  0  0  0  0  0  0  0  0
    1.0925    2.5013   -2.1462 C   0  0  0  0  0  0  0  0  0  0  0  0
    0.1780    2.7508   -2.6871 H   0  0  0  0  0  0  0  0  0  0  0  0
    1.5847    3.4185   -1.8197 H   0  0  0  0  0  0  0  0  0  0  0  0
    1.7571    1.9529   -2.8166 H   0  0  0  0  0  0  0  0  0  0  0  0
  5  6  2  0  0  0  0
  5  7  1  0  0  0  0
  2  3  1  0  0  0  0
  2  4  1  0  0  0  0
  2  5  1  0  0  0  0
  1  2  1  0  0  0  0
 20 21  2  0  0  0  0
 20 22  1  0  0  0  0
 17 18  1  0  0  0  0
 17 19  2  0  0  0  0
 14 15  1  0  0  0  0
 14 16  1  0  0  0  0
 14 17  1  0  0  0  0
 11 12  1  0  0  0  0
 11 13  1  0  0  0  0
 11 14  1  0  0  0  0
  9 10  1  0  0  0  0
  9 11  1  0  0  0  0
  9 20  1  0  0  0  0
  7  8  1  0  0  0  0
  7  9  1  0  0  0  0
 24 25  1  0  0  0  0
 24 26  1  0  0  0  0
 24 27  1  0  0  0  0
 22 23  1  0  0  0  0
 22 24  1  0  0  0  0
M  CHG  1  18  -1
M  END
$$$$
default_name
  -OEChem-01062215323D

 27 26  0     1  0  0  0  0  0999 V2000
   -3.2406   -3.5400    1.2326 H   0  0  0  0  0  0  0  0  0  0  0  0
   -3.1436   -2.6190    0.6606 C   0  0  0  0  0  0  0  0  0  0  0  0
   -3.8786   -1.8920    0.9996 H   0  0  0  0  0  0  0  0  0  0  0  0
   -3.2846   -2.8280   -0.3984 H   0  0  0  0  0  0  0  0  0  0  0  0
   -1.7586   -2.0580    0.8686 C   0  0  0  0  0  0  0  0  0  0  0  0
   -0.9666   -2.6340    1.6026 O   0  0  0  0  0  0  0  0  0  0  0  0
   -1.4866   -0.9220    0.2366 N   0  0  0  0  0  0  0  0  0  0  0  0
   -2.2166   -0.4790   -0.2994 H   0  0  0  0  0  0  0  0  0  0  0  0
   -0.1956   -0.2250    0.2596 C   0  0  1  0  0  0  0  0  0  0  0  0
   -0.2039    0.5032    1.0711 H   0  0  0  0  0  0  0  0  0  0  0  0
    0.9231   -1.2430    0.5599 C   0  0  0  0  0  0  0  0  0  0  0  0
    0.8354   -2.0603   -0.1576 H   0  0  0  0  0  0  0  0  0  0  0  0
    1.8931   -0.7639    0.4197 H   0  0  0  0  0  0  0  0  0  0  0  0
    0.8511   -1.8306    1.9794 C   0  0  0  0  0  0  0  0  0  0  0  0
    0.9314   -1.0190    2.7066 H   0  0  0  0  0  0  0  0  0  0  0  0
   -0.1273   -2.3015    2.1065 H   0  0  0  0  0  0  0  0  0  0  0  0
    1.9512   -2.8625    2.2693 C   0  0  0  0  0  0  0  0  0  0  0  0
    2.6913   -3.2224    1.3263 O   0  5  0  0  0  0  0  0  0  0  0  0
    2.0495   -3.2606    3.4512 O   0  0  0  0  0  0  0  0  0  0  0  0
    0.0305    0.5507   -1.0548 C   0  0  0  0  0  0  0  0  0  0  0  0
   -0.6780    0.3360   -2.0405 O   0  0  0  0  0  0  0  0  0  0  0  0
    1.0021    1.4726   -1.0666 N   0  0  0  0  0  0  0  0  0  0  0  0
    1.5759    1.5548   -0.2404 H   0  0  0  0  0  0  0  0  0  0  0  0
    1.3547    2.2775   -2.2333 C   0  0  0  0  0  0  0  0  0  0  0  0
    0.4582    2.7483   -2.6403 H   0  0  0  0  0  0  0  0  0  0  0  0
    2.0761    3.0468   -1.9545 H   0  0  0  0  0  0  0  0  0  0  0  0
    1.7904    1.6333   -2.9995 H   0  0  0  0  0  0  0  0  0  0  0  0
  5  6  2  0  0  0  0
  5  7  1  0  0  0  0
  2  3  1  0  0  0  0
  2  4  1  0  0  0  0
  2  5  1  0  0  0  0
  1  2  1  0  0  0  0
 20 21  2  0  0  0  0
 20 22  1  0  0  0  0
 17 18  1  0  0  0  0
 17 19  2  0  0  0  0
 14 15  1  0  0  0  0
 14 16  1  0  0  0  0
 14 17  1  0  0  0  0
 11 12  1  0  0  0  0
 11 13  1  0  0  0  0
 11 14  1  0  0  0  0
  9 10  1  0  0  0  0
  9 11  1  0  0  0  0
  9 20  1  0  0  0  0
  7  8  1  0  0  0  0
  7  9  1  0  0  0  0
 24 25  1  0  0  0  0
 24 26  1  0  0  0  0
 24 27  1  0  0  0  0
 22 23  1  0  0  0  0
 22 24  1  0  0  0  0
M  CHG  1  18  -1
M  END
$$$$
default_name
  -OEChem-01062215323D

 27 26  0     1  0  0  0  0  0999 V2000
   -3.2406   -3.5400    1.2326 H   0  0  0  0  0  0  0  0  0  0  0  0
   -3.1436   -2.6190    0.6606 C   0  0  0  0  0  0  0  0  0  0  0  0
   -3.8786   -1.8920    0.9996 H   0  0  0  0  0  0  0  0  0  0  0  0
   -3.2846   -2.8280   -0.3984 H   0  0  0  0  0  0  0  0  0  0  0  0
   -1.7586   -2.0580    0.8686 C   0  0  0  0  0  0  0  0  0  0  0  0
   -0.9666   -2.6340    1.6026 O   0  0  0  0  0  0  0  0  0  0  0  0
   -1.4866   -0.9220    0.2366 N   0  0  0  0  0  0  0  0  0  0  0  0
   -2.2166   -0.4790   -0.2994 H   0  0  0  0  0  0  0  0  0  0  0  0
   -0.1956   -0.2250    0.2596 C   0  0  1  0  0  0  0  0  0  0  0  0
   -0.0962    0.2993    1.2105 H   0  0  0  0  0  0  0  0  0  0  0  0
    0.9411   -1.2640    0.1806 C   0  0  0  0  0  0  0  0  0  0  0  0
    0.7572   -1.8981   -0.6880 H   0  0  0  0  0  0  0  0  0  0  0  0
    1.8913   -0.7479    0.0356 H   0  0  0  0  0  0  0  0  0  0  0  0
    1.0389   -2.1603    1.4266 C   0  0  0  0  0  0  0  0  0  0  0  0
    1.2166   -1.5340    2.3042 H   0  0  0  0  0  0  0  0  0  0  0  0
    0.0789   -2.6656    1.5619 H   0  0  0  0  0  0  0  0  0  0  0  0
    2.1558   -3.2107    1.3366 C   0  0  0  0  0  0  0  0  0  0  0  0
    2.7702   -3.3331    0.2531 O   0  5  0  0  0  0  0  0  0  0  0  0
    2.3952   -3.8654    2.3755 O   0  0  0  0  0  0  0  0  0  0  0  0
   -0.1256    0.8333   -0.8608 C   0  0  0  0  0  0  0  0  0  0  0  0
   -1.0852    1.0163   -1.6128 O   0  0  0  0  0  0  0  0  0  0  0  0
    1.0010    1.5508   -0.9608 N   0  0  0  0  0  0  0  0  0  0  0  0
    1.7636    1.3082   -0.3460 H   0  0  0  0  0  0  0  0  0  0  0  0
    1.2333    2.5756   -1.9754 C   0  0  0  0  0  0  0  0  0  0  0  0
    0.4001    3.2804   -1.9844 H   0  0  0  0  0  0  0  0  0  0  0  0
    2.1606    3.1099   -1.7639 H   0  0  0  0  0  0  0  0  0  0  0  0
    1.3033    2.1038   -2.9574 H   0  0  0  0  0  0  0  0  0  0  0  0
  5  6  2  0  0  0  0
  5  7  1  0  0  0  0
  2  3  1  0  0  0  0
  2  4  1  0  0  0  0
  2  5  1  0  0  0  0
  1  2  1  0  0  0  0
 20 21  2  0  0  0  0
 20 22  1  0  0  0  0
 17 18  1  0  0  0  0
 17 19  2  0  0  0  0
 14 15  1  0  0  0  0
 14 16  1  0  0  0  0
 14 17  1  0  0  0  0
 11 12  1  0  0  0  0
 11 13  1  0  0  0  0
 11 14  1  0  0  0  0
  9 10  1  0  0  0  0
  9 11  1  0  0  0  0
  9 20  1  0  0  0  0
  7  8  1  0  0  0  0
  7  9  1  0  0  0  0
 24 25  1  0  0  0  0
 24 26  1  0  0  0  0
 24 27  1  0  0  0  0
 22 23  1  0  0  0  0
 22 24  1  0  0  0  0
M  CHG  1  18  -1
M  END
$$$$
default_name
  -OEChem-01062215323D

 27 26  0     1  0  0  0  0  0999 V2000
   -3.2406   -3.5400    1.2326 H   0  0  0  0  0  0  0  0  0  0  0  0
   -3.1436   -2.6190    0.6606 C   0  0  0  0  0  0  0  0  0  0  0  0
   -3.8786   -1.8920    0.9996 H   0  0  0  0  0  0  0  0  0  0  0  0
   -3.2846   -2.8280   -0.3984 H   0  0  0  0  0  0  0  0  0  0  0  0
   -1.7586   -2.0580    0.8686 C   0  0  0  0  0  0  0  0  0  0  0  0
   -0.9666   -2.6340    1.6026 O   0  0  0  0  0  0  0  0  0  0  0  0
   -1.4866   -0.9220    0.2366 N   0  0  0  0  0  0  0  0  0  0  0  0
   -2.2166   -0.4790   -0.2994 H   0  0  0  0  0  0  0  0  0  0  0  0
   -0.1956   -0.2250    0.2596 C   0  0  1  0  0  0  0  0  0  0  0  0
   -0.0962    0.2993    1.2105 H   0  0  0  0  0  0  0  0  0  0  0  0
    0.9411   -1.2640    0.1806 C   0  0  0  0  0  0  0  0  0  0  0  0
    0.7572   -1.8981   -0.6880 H   0  0  0  0  0  0  0  0  0  0  0  0
    1.8913   -0.7479    0.0356 H   0  0  0  0  0  0  0  0  0  0  0  0
    1.0389   -2.1603    1.4266 C   0  0  0  0  0  0  0  0  0  0  0  0
    1.2166   -1.5340    2.3042 H   0  0  0  0  0  0  0  0  0  0  0  0
    0.0789   -2.6656    1.5619 H   0  0  0  0  0  0  0  0  0  0  0  0
    2.1558   -3.2107    1.3366 C   0  0  0  0  0  0  0  0  0  0  0  0
    2.7702   -3.3331    0.2531 O   0  5  0  0  0  0  0  0  0  0  0  0
    2.3952   -3.8654    2.3755 O   0  0  0  0  0  0  0  0  0  0  0  0
   -0.1256    0.8333   -0.8608 C   0  0  0  0  0  0  0  0  0  0  0  0
   -1.1506    1.2140   -1.4302 O   0  0  0  0  0  0  0  0  0  0  0  0
    1.0807    1.3302   -1.1643 N   0  0  0  0  0  0  0  0  0  0  0  0
    1.8800    0.9317   -0.6943 H   0  0  0  0  0  0  0  0  0  0  0  0
    1.3197    2.3222   -2.2093 C   0  0  0  0  0  0  0  0  0  0  0  0
    0.6465    3.1702   -2.0730 H   0  0  0  0  0  0  0  0  0  0  0  0
    2.3538    2.6675   -2.1698 H   0  0  0  0  0  0  0  0  0  0  0  0
    1.1250    1.8740   -3.1856 H   0  0  0  0  0  0  0  0  0  0  0  0
  5  6  2  0  0  0  0
  5  7  1  0  0  0  0
  2  3  1  0  0  0  0
  2  4  1  0  0  0  0
  2  5  1  0  0  0  0
  1  2  1  0  0  0  0
 20 21  2  0  0  0  0
 20 22  1  0  0  0  0
 17 18  1  0  0  0  0
 17 19  2  0  0  0  0
 14 15  1  0  0  0  0
 14 16  1  0  0  0  0
 14 17  1  0  0  0  0
 11 12  1  0  0  0  0
 11 13  1  0  0  0  0
 11 14  1  0  0  0  0
  9 10  1  0  0  0  0
  9 11  1  0  0  0  0
  9 20  1  0  0  0  0
  7  8  1  0  0  0  0
  7  9  1  0  0  0  0
 24 25  1  0  0  0  0
 24 26  1  0  0  0  0
 24 27  1  0  0  0  0
 22 23  1  0  0  0  0
 22 24  1  0  0  0  0
M  CHG  1  18  -1
M  END
$$$$
default_name
  -OEChem-01062215323D

 27 26  0     1  0  0  0  0  0999 V2000
   -3.2406   -3.5400    1.2326 H   0  0  0  0  0  0  0  0  0  0  0  0
   -3.1436   -2.6190    0.6606 C   0  0  0  0  0  0  0  0  0  0  0  0
   -3.8786   -1.8920    0.9996 H   0  0  0  0  0  0  0  0  0  0  0  0
   -3.2846   -2.8280   -0.3984 H   0  0  0  0  0  0  0  0  0  0  0  0
   -1.7586   -2.0580    0.8686 C   0  0  0  0  0  0  0  0  0  0  0  0
   -0.9666   -2.6340    1.6026 O   0  0  0  0  0  0  0  0  0  0  0  0
   -1.4866   -0.9220    0.2366 N   0  0  0  0  0  0  0  0  0  0  0  0
   -2.2166   -0.4790   -0.2994 H   0  0  0  0  0  0  0  0  0  0  0  0
   -0.1956   -0.2250    0.2596 C   0  0  1  0  0  0  0  0  0  0  0  0
   -0.0962    0.2993    1.2105 H   0  0  0  0  0  0  0  0  0  0  0  0
    0.9411   -1.2640    0.1806 C   0  0  0  0  0  0  0  0  0  0  0  0
    0.7572   -1.8981   -0.6880 H   0  0  0  0  0  0  0  0  0  0  0  0
    1.8913   -0.7479    0.0356 H   0  0  0  0  0  0  0  0  0  0  0  0
    1.0389   -2.1603    1.4266 C   0  0  0  0  0  0  0  0  0  0  0  0
    1.2166   -1.5340    2.3042 H   0  0  0  0  0  0  0  0  0  0  0  0
    0.0789   -2.6656    1.5619 H   0  0  0  0  0  0  0  0  0  0  0  0
    2.1558   -3.2107    1.3366 C   0  0  0  0  0  0  0  0  0  0  0  0
    2.7702   -3.3331    0.2531 O   0  5  0  0  0  0  0  0  0  0  0  0
    2.3952   -3.8654    2.3755 O   0  0  0  0  0  0  0  0  0  0  0  0
   -0.1256    0.8333   -0.8608 C   0  0  0  0  0  0  0  0  0  0  0  0
   -1.1443    1.4150   -1.2399 O   0  0  0  0  0  0  0  0  0  0  0  0
    1.0800    1.1045   -1.3775 N   0  0  0  0  0  0  0  0  0  0  0  0
    1.8597    0.5503   -1.0558 H   0  0  0  0  0  0  0  0  0  0  0  0
    1.3141    2.0639   -2.4536 C   0  0  0  0  0  0  0  0  0  0  0  0
    0.8481    3.0186   -2.2037 H   0  0  0  0  0  0  0  0  0  0  0  0
    2.3853    2.2086   -2.6013 H   0  0  0  0  0  0  0  0  0  0  0  0
    0.8690    1.6883   -3.3770 H   0  0  0  0  0  0  0  0  0  0  0  0
  5  6  2  0  0  0  0
  5  7  1  0  0  0  0
  2  3  1  0  0  0  0
  2  4  1  0  0  0  0
  2  5  1  0  0  0  0
  1  2  1  0  0  0  0
 20 21  2  0  0  0  0
 20 22  1  0  0  0  0
 17 18  1  0  0  0  0
 17 19  2  0  0  0  0
 14 15  1  0  0  0  0
 14 16  1  0  0  0  0
 14 17  1  0  0  0  0
 11 12  1  0  0  0  0
 11 13  1  0  0  0  0
 11 14  1  0  0  0  0
  9 10  1  0  0  0  0
  9 11  1  0  0  0  0
  9 20  1  0  0  0  0
  7  8  1  0  0  0  0
  7  9  1  0  0  0  0
 24 25  1  0  0  0  0
 24 26  1  0  0  0  0
 24 27  1  0  0  0  0
 22 23  1  0  0  0  0
 22 24  1  0  0  0  0
M  CHG  1  18  -1
M  END
$$$$
default_name
  -OEChem-01062215323D

 27 26  0     1  0  0  0  0  0999 V2000
   -3.2406   -3.5400    1.2326 H   0  0  0  0  0  0  0  0  0  0  0  0
   -3.1436   -2.6190    0.6606 C   0  0  0  0  0  0  0  0  0  0  0  0
   -3.8786   -1.8920    0.9996 H   0  0  0  0  0  0  0  0  0  0  0  0
   -3.2846   -2.8280   -0.3984 H   0  0  0  0  0  0  0  0  0  0  0  0
   -1.7586   -2.0580    0.8686 C   0  0  0  0  0  0  0  0  0  0  0  0
   -0.9666   -2.6340    1.6026 O   0  0  0  0  0  0  0  0  0  0  0  0
   -1.4866   -0.9220    0.2366 N   0  0  0  0  0  0  0  0  0  0  0  0
   -2.2166   -0.4790   -0.2994 H   0  0  0  0  0  0  0  0  0  0  0  0
   -0.1956   -0.2250    0.2596 C   0  0  1  0  0  0  0  0  0  0  0  0
   -0.0962    0.2993    1.2105 H   0  0  0  0  0  0  0  0  0  0  0  0
    0.9411   -1.2640    0.1806 C   0  0  0  0  0  0  0  0  0  0  0  0
    0.7572   -1.8981   -0.6880 H   0  0  0  0  0  0  0  0  0  0  0  0
    1.8913   -0.7479    0.0356 H   0  0  0  0  0  0  0  0  0  0  0  0
    1.0389   -2.1603    1.4266 C   0  0  0  0  0  0  0  0  0  0  0  0
    1.2166   -1.5340    2.3042 H   0  0  0  0  0  0  0  0  0  0  0  0
    0.0789   -2.6656    1.5619 H   0  0  0  0  0  0  0  0  0  0  0  0
    2.1558   -3.2107    1.3366 C   0  0  0  0  0  0  0  0  0  0  0  0
    2.7702   -3.3331    0.2531 O   0  5  0  0  0  0  0  0  0  0  0  0
    2.3952   -3.8654    2.3755 O   0  0  0  0  0  0  0  0  0  0  0  0
   -0.1256    0.8333   -0.8608 C   0  0  0  0  0  0  0  0  0  0  0  0
   -1.0666    1.6058   -1.0548 O   0  0  0  0  0  0  0  0  0  0  0  0
    0.9991    0.8891   -1.5860 N   0  0  0  0  0  0  0  0  0  0  0  0
    1.7043    0.1900   -1.4059 H   0  0  0  0  0  0  0  0  0  0  0  0
    1.2167    1.8184   -2.6917 C   0  0  0  0  0  0  0  0  0  0  0  0
    0.9911    2.8357   -2.3675 H   0  0  0  0  0  0  0  0  0  0  0  0
    2.2528    1.7645   -3.0291 H   0  0  0  0  0  0  0  0  0  0  0  0
    0.5529    1.5592   -3.5187 H   0  0  0  0  0  0  0  0  0  0  0  0
  5  6  2  0  0  0  0
  5  7  1  0  0  0  0
  2  3  1  0  0  0  0
  2  4  1  0  0  0  0
  2  5  1  0  0  0  0
  1  2  1  0  0  0  0
 20 21  2  0  0  0  0
 20 22  1  0  0  0  0
 17 18  1  0  0  0  0
 17 19  2  0  0  0  0
 14 15  1  0  0  0  0
 14 16  1  0  0  0  0
 14 17  1  0  0  0  0
 11 12  1  0  0  0  0
 11 13  1  0  0  0  0
 11 14  1  0  0  0  0
  9 10  1  0  0  0  0
  9 11  1  0  0  0  0
  9 20  1  0  0  0  0
  7  8  1  0  0  0  0
  7  9  1  0  0  0  0
 24 25  1  0  0  0  0
 24 26  1  0  0  0  0
 24 27  1  0  0  0  0
 22 23  1  0  0  0  0
 22 24  1  0  0  0  0
M  CHG  1  18  -1
M  END
$$$$
default_name
  -OEChem-01062215323D

 27 26  0     1  0  0  0  0  0999 V2000
   -3.2406   -3.5400    1.2326 H   0  0  0  0  0  0  0  0  0  0  0  0
   -3.1436   -2.6190    0.6606 C   0  0  0  0  0  0  0  0  0  0  0  0
   -3.8786   -1.8920    0.9996 H   0  0  0  0  0  0  0  0  0  0  0  0
   -3.2846   -2.8280   -0.3984 H   0  0  0  0  0  0  0  0  0  0  0  0
   -1.7586   -2.0580    0.8686 C   0  0  0  0  0  0  0  0  0  0  0  0
   -0.9666   -2.6340    1.6026 O   0  0  0  0  0  0  0  0  0  0  0  0
   -1.4866   -0.9220    0.2366 N   0  0  0  0  0  0  0  0  0  0  0  0
   -2.2166   -0.4790   -0.2994 H   0  0  0  0  0  0  0  0  0  0  0  0
   -0.1956   -0.2250    0.2596 C   0  0  1  0  0  0  0  0  0  0  0  0
   -0.0962    0.2993    1.2105 H   0  0  0  0  0  0  0  0  0  0  0  0
    0.9411   -1.2640    0.1806 C   0  0  0  0  0  0  0  0  0  0  0  0
    0.7572   -1.8981   -0.6880 H   0  0  0  0  0  0  0  0  0  0  0  0
    1.8913   -0.7479    0.0356 H   0  0  0  0  0  0  0  0  0  0  0  0
    1.0389   -2.1603    1.4266 C   0  0  0  0  0  0  0  0  0  0  0  0
    1.2166   -1.5340    2.3042 H   0  0  0  0  0  0  0  0  0  0  0  0
    0.0789   -2.6656    1.5619 H   0  0  0  0  0  0  0  0  0  0  0  0
    2.1558   -3.2107    1.3366 C   0  0  0  0  0  0  0  0  0  0  0  0
    2.7702   -3.3331    0.2531 O   0  5  0  0  0  0  0  0  0  0  0  0
    2.3952   -3.8654    2.3755 O   0  0  0  0  0  0  0  0  0  0  0  0
   -0.1256    0.8333   -0.8608 C   0  0  0  0  0  0  0  0  0  0  0  0
   -0.9228    1.7733   -0.8876 O   0  0  0  0  0  0  0  0  0  0  0  0
    0.8435    0.6987   -1.7756 N   0  0  0  0  0  0  0  0  0  0  0  0
    1.4244   -0.1248   -1.7207 H   0  0  0  0  0  0  0  0  0  0  0  0
    1.0343    1.6023   -2.9072 C   0  0  0  0  0  0  0  0  0  0  0  0
    1.0658    2.6341   -2.5532 H   0  0  0  0  0  0  0  0  0  0  0  0
    1.9654    1.3654   -3.4240 H   0  0  0  0  0  0  0  0  0  0  0  0
    0.1981    1.4956   -3.6009 H   0  0  0  0  0  0  0  0  0  0  0  0
  5  6  2  0  0  0  0
  5  7  1  0  0  0  0
  2  3  1  0  0  0  0
  2  4  1  0  0  0  0
  2  5  1  0  0  0  0
  1  2  1  0  0  0  0
 20 21  2  0  0  0  0
 20 22  1  0  0  0  0
 17 18  1  0  0  0  0
 17 19  2  0  0  0  0
 14 15  1  0  0  0  0
 14 16  1  0  0  0  0
 14 17  1  0  0  0  0
 11 12  1  0  0  0  0
 11 13  1  0  0  0  0
 11 14  1  0  0  0  0
  9 10  1  0  0  0  0
  9 11  1  0  0  0  0
  9 20  1  0  0  0  0
  7  8  1  0  0  0  0
  7  9  1  0  0  0  0
 24 25  1  0  0  0  0
 24 26  1  0  0  0  0
 24 27  1  0  0  0  0
 22 23  1  0  0  0  0
 22 24  1  0  0  0  0
M  CHG  1  18  -1
M  END
$$$$
default_name
  -OEChem-01062215323D

 27 26  0     1  0  0  0  0  0999 V2000
   -3.2406   -3.5400    1.2326 H   0  0  0  0  0  0  0  0  0  0  0  0
   -3.1436   -2.6190    0.6606 C   0  0  0  0  0  0  0  0  0  0  0  0
   -3.8786   -1.8920    0.9996 H   0  0  0  0  0  0  0  0  0  0  0  0
   -3.2846   -2.8280   -0.3984 H   0  0  0  0  0  0  0  0  0  0  0  0
   -1.7586   -2.0580    0.8686 C   0  0  0  0  0  0  0  0  0  0  0  0
   -0.9666   -2.6340    1.6026 O   0  0  0  0  0  0  0  0  0  0  0  0
   -1.4866   -0.9220    0.2366 N   0  0  0  0  0  0  0  0  0  0  0  0
   -2.2166   -0.4790   -0.2994 H   0  0  0  0  0  0  0  0  0  0  0  0
   -0.1956   -0.2250    0.2596 C   0  0  1  0  0  0  0  0  0  0  0  0
   -0.0962    0.2993    1.2105 H   0  0  0  0  0  0  0  0  0  0  0  0
    0.9411   -1.2640    0.1806 C   0  0  0  0  0  0  0  0  0  0  0  0
    0.7572   -1.8981   -0.6880 H   0  0  0  0  0  0  0  0  0  0  0  0
    1.8913   -0.7479    0.0356 H   0  0  0  0  0  0  0  0  0  0  0  0
    1.0389   -2.1603    1.4266 C   0  0  0  0  0  0  0  0  0  0  0  0
    1.2166   -1.5340    2.3042 H   0  0  0  0  0  0  0  0  0  0  0  0
    0.0789   -2.6656    1.5619 H   0  0  0  0  0  0  0  0  0  0  0  0
    2.1558   -3.2107    1.3366 C   0  0  0  0  0  0  0  0  0  0  0  0
    2.7702   -3.3331    0.2531 O   0  5  0  0  0  0  0  0  0  0  0  0
    2.3952   -3.8654    2.3755 O   0  0  0  0  0  0  0  0  0  0  0  0
   -0.1256    0.8333   -0.8608 C   0  0  0  0  0  0  0  0  0  0  0  0
   -0.7227    1.9061   -0.7497 O   0  0  0  0  0  0  0  0  0  0  0  0
    0.6237    0.5463   -1.9333 N   0  0  0  0  0  0  0  0  0  0  0  0
    1.0389   -0.3725   -1.9788 H   0  0  0  0  0  0  0  0  0  0  0  0
    0.7792    1.4304   -3.0855 C   0  0  0  0  0  0  0  0  0  0  0  0
    1.0671    2.4276   -2.7483 H   0  0  0  0  0  0  0  0  0  0  0  0
    1.5427    1.0386   -3.7590 H   0  0  0  0  0  0  0  0  0  0  0  0
   -0.1711    1.5018   -3.6181 H   0  0  0  0  0  0  0  0  0  0  0  0
  5  6  2  0  0  0  0
  5  7  1  0  0  0  0
  2  3  1  0  0  0  0
  2  4  1  0  0  0  0
  2  5  1  0  0  0  0
  1  2  1  0  0  0  0
 20 21  2  0  0  0  0
 20 22  1  0  0  0  0
 17 18  1  0  0  0  0
 17 19  2  0  0  0  0
 14 15  1  0  0  0  0
 14 16  1  0  0  0  0
 14 17  1  0  0  0  0
 11 12  1  0  0  0  0
 11 13  1  0  0  0  0
 11 14  1  0  0  0  0
  9 10  1  0  0  0  0
  9 11  1  0  0  0  0
  9 20  1  0  0  0  0
  7  8  1  0  0  0  0
  7  9  1  0  0  0  0
 24 25  1  0  0  0  0
 24 26  1  0  0  0  0
 24 27  1  0  0  0  0
 22 23  1  0  0  0  0
 22 24  1  0  0  0  0
M  CHG  1  18  -1
M  END
$$$$
default_name
  -OEChem-01062215323D

 27 26  0     1  0  0  0  0  0999 V2000
   -3.2406   -3.5400    1.2326 H   0  0  0  0  0  0  0  0  0  0  0  0
   -3.1436   -2.6190    0.6606 C   0  0  0  0  0  0  0  0  0  0  0  0
   -3.8786   -1.8920    0.9996 H   0  0  0  0  0  0  0  0  0  0  0  0
   -3.2846   -2.8280   -0.3984 H   0  0  0  0  0  0  0  0  0  0  0  0
   -1.7586   -2.0580    0.8686 C   0  0  0  0  0  0  0  0  0  0  0  0
   -0.9666   -2.6340    1.6026 O   0  0  0  0  0  0  0  0  0  0  0  0
   -1.4866   -0.9220    0.2366 N   0  0  0  0  0  0  0  0  0  0  0  0
   -2.2166   -0.4790   -0.2994 H   0  0  0  0  0  0  0  0  0  0  0  0
   -0.1956   -0.2250    0.2596 C   0  0  1  0  0  0  0  0  0  0  0  0
   -0.0962    0.2993    1.2105 H   0  0  0  0  0  0  0  0  0  0  0  0
    0.9411   -1.2640    0.1806 C   0  0  0  0  0  0  0  0  0  0  0  0
    0.7572   -1.8981   -0.6880 H   0  0  0  0  0  0  0  0  0  0  0  0
    1.8913   -0.7479    0.0356 H   0  0  0  0  0  0  0  0  0  0  0  0
    1.0389   -2.1603    1.4266 C   0  0  0  0  0  0  0  0  0  0  0  0
    1.2166   -1.5340    2.3042 H   0  0  0  0  0  0  0  0  0  0  0  0
    0.0789   -2.6656    1.5619 H   0  0  0  0  0  0  0  0  0  0  0  0
    2.1558   -3.2107    1.3366 C   0  0  0  0  0  0  0  0  0  0  0  0
    2.7702   -3.3331    0.2531 O   0  5  0  0  0  0  0  0  0  0  0  0
    2.3952   -3.8654    2.3755 O   0  0  0  0  0  0  0  0  0  0  0  0
   -0.1256    0.8333   -0.8608 C   0  0  0  0  0  0  0  0  0  0  0  0
   -0.4801    1.9951   -0.6504 O   0  0  0  0  0  0  0  0  0  0  0  0
    0.3548    0.4422   -2.0484 N   0  0  0  0  0  0  0  0  0  0  0  0
    0.5741   -0.5363   -2.1625 H   0  0  0  0  0  0  0  0  0  0  0  0
    0.4688    1.3144   -3.2144 C   0  0  0  0  0  0  0  0  0  0  0  0
    0.9949    2.2301   -2.9393 H   0  0  0  0  0  0  0  0  0  0  0  0
    1.0134    0.8063   -4.0115 H   0  0  0  0  0  0  0  0  0  0  0  0
   -0.5297    1.5774   -3.5691 H   0  0  0  0  0  0  0  0  0  0  0  0
  5  6  2  0  0  0  0
  5  7  1  0  0  0  0
  2  3  1  0  0  0  0
  2  4  1  0  0  0  0
  2  5  1  0  0  0  0
  1  2  1  0  0  0  0
 20 21  2  0  0  0  0
 20 22  1  0  0  0  0
 17 18  1  0  0  0  0
 17 19  2  0  0  0  0
 14 15  1  0  0  0  0
 14 16  1  0  0  0  0
 14 17  1  0  0  0  0
 11 12  1  0  0  0  0
 11 13  1  0  0  0  0
 11 14  1  0  0  0  0
  9 10  1  0  0  0  0
  9 11  1  0  0  0  0
  9 20  1  0  0  0  0
  7  8  1  0  0  0  0
  7  9  1  0  0  0  0
 24 25  1  0  0  0  0
 24 26  1  0  0  0  0
 24 27  1  0  0  0  0
 22 23  1  0  0  0  0
 22 24  1  0  0  0  0
M  CHG  1  18  -1
M  END
$$$$
default_name
  -OEChem-01062215323D

 27 26  0     1  0  0  0  0  0999 V2000
   -3.2406   -3.5400    1.2326 H   0  0  0  0  0  0  0  0  0  0  0  0
   -3.1436   -2.6190    0.6606 C   0  0  0  0  0  0  0  0  0  0  0  0
   -3.8786   -1.8920    0.9996 H   0  0  0  0  0  0  0  0  0  0  0  0
   -3.2846   -2.8280   -0.3984 H   0  0  0  0  0  0  0  0  0  0  0  0
   -1.7586   -2.0580    0.8686 C   0  0  0  0  0  0  0  0  0  0  0  0
   -0.9666   -2.6340    1.6026 O   0  0  0  0  0  0  0  0  0  0  0  0
   -1.4866   -0.9220    0.2366 N   0  0  0  0  0  0  0  0  0  0  0  0
   -2.2166   -0.4790   -0.2994 H   0  0  0  0  0  0  0  0  0  0  0  0
   -0.1956   -0.2250    0.2596 C   0  0  1  0  0  0  0  0  0  0  0  0
   -0.0962    0.2993    1.2105 H   0  0  0  0  0  0  0  0  0  0  0  0
    0.9411   -1.2640    0.1806 C   0  0  0  0  0  0  0  0  0  0  0  0
    0.7572   -1.8981   -0.6880 H   0  0  0  0  0  0  0  0  0  0  0  0
    1.8913   -0.7479    0.0356 H   0  0  0  0  0  0  0  0  0  0  0  0
    1.0389   -2.1603    1.4266 C   0  0  0  0  0  0  0  0  0  0  0  0
    1.2166   -1.5340    2.3042 H   0  0  0  0  0  0  0  0  0  0  0  0
    0.0789   -2.6656    1.5619 H   0  0  0  0  0  0  0  0  0  0  0  0
    2.1558   -3.2107    1.3366 C   0  0  0  0  0  0  0  0  0  0  0  0
    2.7702   -3.3331    0.2531 O   0  5  0  0  0  0  0  0  0  0  0  0
    2.3952   -3.8654    2.3755 O   0  0  0  0  0  0  0  0  0  0  0  0
   -0.1256    0.8333   -0.8608 C   0  0  0  0  0  0  0  0  0  0  0  0
   -0.2113    2.0344   -0.5966 O   0  0  0  0  0  0  0  0  0  0  0  0
    0.0550    0.3936   -2.1130 N   0  0  0  0  0  0  0  0  0  0  0  0
    0.0618   -0.6050   -2.2594 H   0  0  0  0  0  0  0  0  0  0  0  0
    0.1243    1.2622   -3.2852 C   0  0  0  0  0  0  0  0  0  0  0  0
    0.8541    2.0551   -3.1134 H   0  0  0  0  0  0  0  0  0  0  0  0
    0.4137    0.6844   -4.1641 H   0  0  0  0  0  0  0  0  0  0  0  0
   -0.8531    1.7173   -3.4572 H   0  0  0  0  0  0  0  0  0  0  0  0
  5  6  2  0  0  0  0
  5  7  1  0  0  0  0
  2  3  1  0  0  0  0
  2  4  1  0  0  0  0
  2  5  1  0  0  0  0
  1  2  1  0  0  0  0
 20 21  2  0  0  0  0
 20 22  1  0  0  0  0
 17 18  1  0  0  0  0
 17 19  2  0  0  0  0
 14 15  1  0  0  0  0
 14 16  1  0  0  0  0
 14 17  1  0  0  0  0
 11 12  1  0  0  0  0
 11 13  1  0  0  0  0
 11 14  1  0  0  0  0
  9 10  1  0  0  0  0
  9 11  1  0  0  0  0
  9 20  1  0  0  0  0
  7  8  1  0  0  0  0
  7  9  1  0  0  0  0
 24 25  1  0  0  0  0
 24 26  1  0  0  0  0
 24 27  1  0  0  0  0
 22 23  1  0  0  0  0
 22 24  1  0  0  0  0
M  CHG  1  18  -1
M  END
$$$$
default_name
  -OEChem-01062215323D

 27 26  0     1  0  0  0  0  0999 V2000
   -3.2406   -3.5400    1.2326 H   0  0  0  0  0  0  0  0  0  0  0  0
   -3.1436   -2.6190    0.6606 C   0  0  0  0  0  0  0  0  0  0  0  0
   -3.8786   -1.8920    0.9996 H   0  0  0  0  0  0  0  0  0  0  0  0
   -3.2846   -2.8280   -0.3984 H   0  0  0  0  0  0  0  0  0  0  0  0
   -1.7586   -2.0580    0.8686 C   0  0  0  0  0  0  0  0  0  0  0  0
   -0.9666   -2.6340    1.6026 O   0  0  0  0  0  0  0  0  0  0  0  0
   -1.4866   -0.9220    0.2366 N   0  0  0  0  0  0  0  0  0  0  0  0
   -2.2166   -0.4790   -0.2994 H   0  0  0  0  0  0  0  0  0  0  0  0
   -0.1956   -0.2250    0.2596 C   0  0  1  0  0  0  0  0  0  0  0  0
   -0.0962    0.2993    1.2105 H   0  0  0  0  0  0  0  0  0  0  0  0
    0.9411   -1.2640    0.1806 C   0  0  0  0  0  0  0  0  0  0  0  0
    0.7572   -1.8981   -0.6880 H   0  0  0  0  0  0  0  0  0  0  0  0
    1.8913   -0.7479    0.0356 H   0  0  0  0  0  0  0  0  0  0  0  0
    1.0389   -2.1603    1.4266 C   0  0  0  0  0  0  0  0  0  0  0  0
    1.2166   -1.5340    2.3042 H   0  0  0  0  0  0  0  0  0  0  0  0
    0.0789   -2.6656    1.5619 H   0  0  0  0  0  0  0  0  0  0  0  0
    2.1558   -3.2107    1.3366 C   0  0  0  0  0  0  0  0  0  0  0  0
    2.7702   -3.3331    0.2531 O   0  5  0  0  0  0  0  0  0  0  0  0
    2.3952   -3.8654    2.3755 O   0  0  0  0  0  0  0  0  0  0  0  0
   -0.1256    0.8333   -0.8608 C   0  0  0  0  0  0  0  0  0  0  0  0
    0.0653    2.0211   -0.5918 O   0  0  0  0  0  0  0  0  0  0  0  0
   -0.2552    0.4037   -2.1228 N   0  0  0  0  0  0  0  0  0  0  0  0
   -0.4632   -0.5739   -2.2628 H   0  0  0  0  0  0  0  0  0  0  0  0
   -0.2309    1.2774   -3.2931 C   0  0  0  0  0  0  0  0  0  0  0  0
    0.6544    1.9146   -3.2585 H   0  0  0  0  0  0  0  0  0  0  0  0
   -0.2155    0.6811   -4.2065 H   0  0  0  0  0  0  0  0  0  0  0  0
   -1.1193    1.9118   -3.2900 H   0  0  0  0  0  0  0  0  0  0  0  0
  5  6  2  0  0  0  0
  5  7  1  0  0  0  0
  2  3  1  0  0  0  0
  2  4  1  0  0  0  0
  2  5  1  0  0  0  0
  1  2  1  0  0  0  0
 20 21  2  0  0  0  0
 20 22  1  0  0  0  0
 17 18  1  0  0  0  0
 17 19  2  0  0  0  0
 14 15  1  0  0  0  0
 14 16  1  0  0  0  0
 14 17  1  0  0  0  0
 11 12  1  0  0  0  0
 11 13  1  0  0  0  0
 11 14  1  0  0  0  0
  9 10  1  0  0  0  0
  9 11  1  0  0  0  0
  9 20  1  0  0  0  0
  7  8  1  0  0  0  0
  7  9  1  0  0  0  0
 24 25  1  0  0  0  0
 24 26  1  0  0  0  0
 24 27  1  0  0  0  0
 22 23  1  0  0  0  0
 22 24  1  0  0  0  0
M  CHG  1  18  -1
M  END
$$$$
default_name
  -OEChem-01062215323D

 27 26  0     1  0  0  0  0  0999 V2000
   -3.2406   -3.5400    1.2326 H   0  0  0  0  0  0  0  0  0  0  0  0
   -3.1436   -2.6190    0.6606 C   0  0  0  0  0  0  0  0  0  0  0  0
   -3.8786   -1.8920    0.9996 H   0  0  0  0  0  0  0  0  0  0  0  0
   -3.2846   -2.8280   -0.3984 H   0  0  0  0  0  0  0  0  0  0  0  0
   -1.7586   -2.0580    0.8686 C   0  0  0  0  0  0  0  0  0  0  0  0
   -0.9666   -2.6340    1.6026 O   0  0  0  0  0  0  0  0  0  0  0  0
   -1.4866   -0.9220    0.2366 N   0  0  0  0  0  0  0  0  0  0  0  0
   -2.2166   -0.4790   -0.2994 H   0  0  0  0  0  0  0  0  0  0  0  0
   -0.1956   -0.2250    0.2596 C   0  0  1  0  0  0  0  0  0  0  0  0
   -0.0962    0.2993    1.2105 H   0  0  0  0  0  0  0  0  0  0  0  0
    0.9411   -1.2640    0.1806 C   0  0  0  0  0  0  0  0  0  0  0  0
    0.7572   -1.8981   -0.6880 H   0  0  0  0  0  0  0  0  0  0  0  0
    1.8913   -0.7479    0.0356 H   0  0  0  0  0  0  0  0  0  0  0  0
    1.0389   -2.1603    1.4266 C   0  0  0  0  0  0  0  0  0  0  0  0
    1.2166   -1.5340    2.3042 H   0  0  0  0  0  0  0  0  0  0  0  0
    0.0789   -2.6656    1.5619 H   0  0  0  0  0  0  0  0  0  0  0  0
    2.1558   -3.2107    1.3366 C   0  0  0  0  0  0  0  0  0  0  0  0
    2.7702   -3.3331    0.2531 O   0  5  0  0  0  0  0  0  0  0  0  0
    2.3952   -3.8654    2.3755 O   0  0  0  0  0  0  0  0  0  0  0  0
   -0.1256    0.8333   -0.8608 C   0  0  0  0  0  0  0  0  0  0  0  0
    0.3308    1.9563   -0.6364 O   0  0  0  0  0  0  0  0  0  0  0  0
   -0.5546    0.4719   -2.0771 N   0  0  0  0  0  0  0  0  0  0  0  0
   -0.9650   -0.4452   -2.1725 H   0  0  0  0  0  0  0  0  0  0  0  0
   -0.5725    1.3589   -3.2374 C   0  0  0  0  0  0  0  0  0  0  0  0
    0.4092    1.8182   -3.3649 H   0  0  0  0  0  0  0  0  0  0  0  0
   -0.8315    0.7967   -4.1358 H   0  0  0  0  0  0  0  0  0  0  0  0
   -1.3102    2.1478   -3.0790 H   0  0  0  0  0  0  0  0  0  0  0  0
  5  6  2  0  0  0  0
  5  7  1  0  0  0  0
  2  3  1  0  0  0  0
  2  4  1  0  0  0  0
  2  5  1  0  0  0  0
  1  2  1  0  0  0  0
 20 21  2  0  0  0  0
 20 22  1  0  0  0  0
 17 18  1  0  0  0  0
 17 19  2  0  0  0  0
 14 15  1  0  0  0  0
 14 16  1  0  0  0  0
 14 17  1  0  0  0  0
 11 12  1  0  0  0  0
 11 13  1  0  0  0  0
 11 14  1  0  0  0  0
  9 10  1  0  0  0  0
  9 11  1  0  0  0  0
  9 20  1  0  0  0  0
  7  8  1  0  0  0  0
  7  9  1  0  0  0  0
 24 25  1  0  0  0  0
 24 26  1  0  0  0  0
 24 27  1  0  0  0  0
 22 23  1  0  0  0  0
 22 24  1  0  0  0  0
M  CHG  1  18  -1
M  END
$$$$
default_name
  -OEChem-01062215323D

 27 26  0     1  0  0  0  0  0999 V2000
   -3.2406   -3.5400    1.2326 H   0  0  0  0  0  0  0  0  0  0  0  0
   -3.1436   -2.6190    0.6606 C   0  0  0  0  0  0  0  0  0  0  0  0
   -3.8786   -1.8920    0.9996 H   0  0  0  0  0  0  0  0  0  0  0  0
   -3.2846   -2.8280   -0.3984 H   0  0  0  0  0  0  0  0  0  0  0  0
   -1.7586   -2.0580    0.8686 C   0  0  0  0  0  0  0  0  0  0  0  0
   -0.9666   -2.6340    1.6026 O   0  0  0  0  0  0  0  0  0  0  0  0
   -1.4866   -0.9220    0.2366 N   0  0  0  0  0  0  0  0  0  0  0  0
   -2.2166   -0.4790   -0.2994 H   0  0  0  0  0  0  0  0  0  0  0  0
   -0.1956   -0.2250    0.2596 C   0  0  1  0  0  0  0  0  0  0  0  0
   -0.0962    0.2993    1.2105 H   0  0  0  0  0  0  0  0  0  0  0  0
    0.9411   -1.2640    0.1806 C   0  0  0  0  0  0  0  0  0  0  0  0
    0.7572   -1.8981   -0.6880 H   0  0  0  0  0  0  0  0  0  0  0  0
    1.8913   -0.7479    0.0356 H   0  0  0  0  0  0  0  0  0  0  0  0
    1.0389   -2.1603    1.4266 C   0  0  0  0  0  0  0  0  0  0  0  0
    1.2166   -1.5340    2.3042 H   0  0  0  0  0  0  0  0  0  0  0  0
    0.0789   -2.6656    1.5619 H   0  0  0  0  0  0  0  0  0  0  0  0
    2.1558   -3.2107    1.3366 C   0  0  0  0  0  0  0  0  0  0  0  0
    2.7702   -3.3331    0.2531 O   0  5  0  0  0  0  0  0  0  0  0  0
    2.3952   -3.8654    2.3755 O   0  0  0  0  0  0  0  0  0  0  0  0
   -0.1256    0.8333   -0.8608 C   0  0  0  0  0  0  0  0  0  0  0  0
    0.5671    1.8443   -0.7275 O   0  0  0  0  0  0  0  0  0  0  0  0
   -0.8229    0.5935   -1.9790 N   0  0  0  0  0  0  0  0  0  0  0  0
   -1.4095   -0.2275   -1.9947 H   0  0  0  0  0  0  0  0  0  0  0  0
   -0.8772    1.5011   -3.1221 C   0  0  0  0  0  0  0  0  0  0  0  0
    0.1354    1.7724   -3.4253 H   0  0  0  0  0  0  0  0  0  0  0  0
   -1.3922    1.0233   -3.9567 H   0  0  0  0  0  0  0  0  0  0  0  0
   -1.4128    2.4092   -2.8385 H   0  0  0  0  0  0  0  0  0  0  0  0
  5  6  2  0  0  0  0
  5  7  1  0  0  0  0
  2  3  1  0  0  0  0
  2  4  1  0  0  0  0
  2  5  1  0  0  0  0
  1  2  1  0  0  0  0
 20 21  2  0  0  0  0
 20 22  1  0  0  0  0
 17 18  1  0  0  0  0
 17 19  2  0  0  0  0
 14 15  1  0  0  0  0
 14 16  1  0  0  0  0
 14 17  1  0  0  0  0
 11 12  1  0  0  0  0
 11 13  1  0  0  0  0
 11 14  1  0  0  0  0
  9 10  1  0  0  0  0
  9 11  1  0  0  0  0
  9 20  1  0  0  0  0
  7  8  1  0  0  0  0
  7  9  1  0  0  0  0
 24 25  1  0  0  0  0
 24 26  1  0  0  0  0
 24 27  1  0  0  0  0
 22 23  1  0  0  0  0
 22 24  1  0  0  0  0
M  CHG  1  18  -1
M  END
$$$$
default_name
  -OEChem-01062215323D

 27 26  0     1  0  0  0  0  0999 V2000
   -3.2406   -3.5400    1.2326 H   0  0  0  0  0  0  0  0  0  0  0  0
   -3.1436   -2.6190    0.6606 C   0  0  0  0  0  0  0  0  0  0  0  0
   -3.8786   -1.8920    0.9996 H   0  0  0  0  0  0  0  0  0  0  0  0
   -3.2846   -2.8280   -0.3984 H   0  0  0  0  0  0  0  0  0  0  0  0
   -1.7586   -2.0580    0.8686 C   0  0  0  0  0  0  0  0  0  0  0  0
   -0.9666   -2.6340    1.6026 O   0  0  0  0  0  0  0  0  0  0  0  0
   -1.4866   -0.9220    0.2366 N   0  0  0  0  0  0  0  0  0  0  0  0
   -2.2166   -0.4790   -0.2994 H   0  0  0  0  0  0  0  0  0  0  0  0
   -0.1956   -0.2250    0.2596 C   0  0  1  0  0  0  0  0  0  0  0  0
   -0.0962    0.2993    1.2105 H   0  0  0  0  0  0  0  0  0  0  0  0
    0.9411   -1.2640    0.1806 C   0  0  0  0  0  0  0  0  0  0  0  0
    0.7572   -1.8981   -0.6880 H   0  0  0  0  0  0  0  0  0  0  0  0
    1.8913   -0.7479    0.0356 H   0  0  0  0  0  0  0  0  0  0  0  0
    1.0389   -2.1603    1.4266 C   0  0  0  0  0  0  0  0  0  0  0  0
    1.2166   -1.5340    2.3042 H   0  0  0  0  0  0  0  0  0  0  0  0
    0.0789   -2.6656    1.5619 H   0  0  0  0  0  0  0  0  0  0  0  0
    2.1558   -3.2107    1.3366 C   0  0  0  0  0  0  0  0  0  0  0  0
    2.7702   -3.3331    0.2531 O   0  5  0  0  0  0  0  0  0  0  0  0
    2.3952   -3.8654    2.3755 O   0  0  0  0  0  0  0  0  0  0  0  0
   -0.1256    0.8333   -0.8608 C   0  0  0  0  0  0  0  0  0  0  0  0
    0.7582    1.6928   -0.8587 O   0  0  0  0  0  0  0  0  0  0  0  0
   -1.0418    0.7603   -1.8351 N   0  0  0  0  0  0  0  0  0  0  0  0
   -1.7664    0.0641   -1.7415 H   0  0  0  0  0  0  0  0  0  0  0  0
   -1.1244    1.6945   -2.9549 C   0  0  0  0  0  0  0  0  0  0  0  0
   -0.1484    1.7803   -3.4356 H   0  0  0  0  0  0  0  0  0  0  0  0
   -1.8594    1.3455   -3.6816 H   0  0  0  0  0  0  0  0  0  0  0  0
   -1.4201    2.6781   -2.5849 H   0  0  0  0  0  0  0  0  0  0  0  0
  5  6  2  0  0  0  0
  5  7  1  0  0  0  0
  2  3  1  0  0  0  0
  2  4  1  0  0  0  0
  2  5  1  0  0  0  0
  1  2  1  0  0  0  0
 20 21  2  0  0  0  0
 20 22  1  0  0  0  0
 17 18  1  0  0  0  0
 17 19  2  0  0  0  0
 14 15  1  0  0  0  0
 14 16  1  0  0  0  0
 14 17  1  0  0  0  0
 11 12  1  0  0  0  0
 11 13  1  0  0  0  0
 11 14  1  0  0  0  0
  9 10  1  0  0  0  0
  9 11  1  0  0  0  0
  9 20  1  0  0  0  0
  7  8  1  0  0  0  0
  7  9  1  0  0  0  0
 24 25  1  0  0  0  0
 24 26  1  0  0  0  0
 24 27  1  0  0  0  0
 22 23  1  0  0  0  0
 22 24  1  0  0  0  0
M  CHG  1  18  -1
M  END
$$$$
default_name
  -OEChem-01062215323D

 27 26  0     1  0  0  0  0  0999 V2000
   -3.2406   -3.5400    1.2326 H   0  0  0  0  0  0  0  0  0  0  0  0
   -3.1436   -2.6190    0.6606 C   0  0  0  0  0  0  0  0  0  0  0  0
   -3.8786   -1.8920    0.9996 H   0  0  0  0  0  0  0  0  0  0  0  0
   -3.2846   -2.8280   -0.3984 H   0  0  0  0  0  0  0  0  0  0  0  0
   -1.7586   -2.0580    0.8686 C   0  0  0  0  0  0  0  0  0  0  0  0
   -0.9666   -2.6340    1.6026 O   0  0  0  0  0  0  0  0  0  0  0  0
   -1.4866   -0.9220    0.2366 N   0  0  0  0  0  0  0  0  0  0  0  0
   -2.2166   -0.4790   -0.2994 H   0  0  0  0  0  0  0  0  0  0  0  0
   -0.1956   -0.2250    0.2596 C   0  0  1  0  0  0  0  0  0  0  0  0
   -0.0962    0.2993    1.2105 H   0  0  0  0  0  0  0  0  0  0  0  0
    0.9411   -1.2640    0.1806 C   0  0  0  0  0  0  0  0  0  0  0  0
    0.7572   -1.8981   -0.6880 H   0  0  0  0  0  0  0  0  0  0  0  0
    1.8913   -0.7479    0.0356 H   0  0  0  0  0  0  0  0  0  0  0  0
    1.0389   -2.1603    1.4266 C   0  0  0  0  0  0  0  0  0  0  0  0
    1.2166   -1.5340    2.3042 H   0  0  0  0  0  0  0  0  0  0  0  0
    0.0789   -2.6656    1.5619 H   0  0  0  0  0  0  0  0  0  0  0  0
    2.1558   -3.2107    1.3366 C   0  0  0  0  0  0  0  0  0  0  0  0
    2.7702   -3.3331    0.2531 O   0  5  0  0  0  0  0  0  0  0  0  0
    2.3952   -3.8654    2.3755 O   0  0  0  0  0  0  0  0  0  0  0  0
   -0.1256    0.8333   -0.8608 C   0  0  0  0  0  0  0  0  0  0  0  0
    0.8909    1.5121   -1.0211 O   0  0  0  0  0  0  0  0  0  0  0  0
   -1.1964    0.9608   -1.6553 N   0  0  0  0  0  0  0  0  0  0  0  0
   -2.0114    0.4099   -1.4301 H   0  0  0  0  0  0  0  0  0  0  0  0
   -1.2971    1.9257   -2.7472 C   0  0  0  0  0  0  0  0  0  0  0  0
   -0.4229    1.8414   -3.3950 H   0  0  0  0  0  0  0  0  0  0  0  0
   -2.2013    1.7413   -3.3291 H   0  0  0  0  0  0  0  0  0  0  0  0
   -1.3315    2.9363   -2.3356 H   0  0  0  0  0  0  0  0  0  0  0  0
  5  6  2  0  0  0  0
  5  7  1  0  0  0  0
  2  3  1  0  0  0  0
  2  4  1  0  0  0  0
  2  5  1  0  0  0  0
  1  2  1  0  0  0  0
 20 21  2  0  0  0  0
 20 22  1  0  0  0  0
 17 18  1  0  0  0  0
 17 19  2  0  0  0  0
 14 15  1  0  0  0  0
 14 16  1  0  0  0  0
 14 17  1  0  0  0  0
 11 12  1  0  0  0  0
 11 13  1  0  0  0  0
 11 14  1  0  0  0  0
  9 10  1  0  0  0  0
  9 11  1  0  0  0  0
  9 20  1  0  0  0  0
  7  8  1  0  0  0  0
  7  9  1  0  0  0  0
 24 25  1  0  0  0  0
 24 26  1  0  0  0  0
 24 27  1  0  0  0  0
 22 23  1  0  0  0  0
 22 24  1  0  0  0  0
M  CHG  1  18  -1
M  END
$$$$
default_name
  -OEChem-01062215323D

 27 26  0     1  0  0  0  0  0999 V2000
   -3.2406   -3.5400    1.2326 H   0  0  0  0  0  0  0  0  0  0  0  0
   -3.1436   -2.6190    0.6606 C   0  0  0  0  0  0  0  0  0  0  0  0
   -3.8786   -1.8920    0.9996 H   0  0  0  0  0  0  0  0  0  0  0  0
   -3.2846   -2.8280   -0.3984 H   0  0  0  0  0  0  0  0  0  0  0  0
   -1.7586   -2.0580    0.8686 C   0  0  0  0  0  0  0  0  0  0  0  0
   -0.9666   -2.6340    1.6026 O   0  0  0  0  0  0  0  0  0  0  0  0
   -1.4866   -0.9220    0.2366 N   0  0  0  0  0  0  0  0  0  0  0  0
   -2.2166   -0.4790   -0.2994 H   0  0  0  0  0  0  0  0  0  0  0  0
   -0.1956   -0.2250    0.2596 C   0  0  1  0  0  0  0  0  0  0  0  0
   -0.0962    0.2993    1.2105 H   0  0  0  0  0  0  0  0  0  0  0  0
    0.9411   -1.2640    0.1806 C   0  0  0  0  0  0  0  0  0  0  0  0
    0.7572   -1.8981   -0.6880 H   0  0  0  0  0  0  0  0  0  0  0  0
    1.8913   -0.7479    0.0356 H   0  0  0  0  0  0  0  0  0  0  0  0
    1.0389   -2.1603    1.4266 C   0  0  0  0  0  0  0  0  0  0  0  0
    1.2166   -1.5340    2.3042 H   0  0  0  0  0  0  0  0  0  0  0  0
    0.0789   -2.6656    1.5619 H   0  0  0  0  0  0  0  0  0  0  0  0
    2.1558   -3.2107    1.3366 C   0  0  0  0  0  0  0  0  0  0  0  0
    2.7702   -3.3331    0.2531 O   0  5  0  0  0  0  0  0  0  0  0  0
    2.3952   -3.8654    2.3755 O   0  0  0  0  0  0  0  0  0  0  0  0
   -0.1256    0.8333   -0.8608 C   0  0  0  0  0  0  0  0  0  0  0  0
    0.9564    1.3144   -1.2037 O   0  0  0  0  0  0  0  0  0  0  0  0
   -1.2760    1.1814   -1.4519 N   0  0  0  0  0  0  0  0  0  0  0  0
   -2.1278    0.7864   -1.0818 H   0  0  0  0  0  0  0  0  0  0  0  0
   -1.3836    2.1791   -2.5133 C   0  0  0  0  0  0  0  0  0  0  0  0
   -0.6693    1.9515   -3.3064 H   0  0  0  0  0  0  0  0  0  0  0  0
   -2.3945    2.1837   -2.9232 H   0  0  0  0  0  0  0  0  0  0  0  0
   -1.1532    3.1661   -2.1074 H   0  0  0  0  0  0  0  0  0  0  0  0
  5  6  2  0  0  0  0
  5  7  1  0  0  0  0
  2  3  1  0  0  0  0
  2  4  1  0  0  0  0
  2  5  1  0  0  0  0
  1  2  1  0  0  0  0
 20 21  2  0  0  0  0
 20 22  1  0  0  0  0
 17 18  1  0  0  0  0
 17 19  2  0  0  0  0
 14 15  1  0  0  0  0
 14 16  1  0  0  0  0
 14 17  1  0  0  0  0
 11 12  1  0  0  0  0
 11 13  1  0  0  0  0
 11 14  1  0  0  0  0
  9 10  1  0  0  0  0
  9 11  1  0  0  0  0
  9 20  1  0  0  0  0
  7  8  1  0  0  0  0
  7  9  1  0  0  0  0
 24 25  1  0  0  0  0
 24 26  1  0  0  0  0
 24 27  1  0  0  0  0
 22 23  1  0  0  0  0
 22 24  1  0  0  0  0
M  CHG  1  18  -1
M  END
$$$$
default_name
  -OEChem-01062215323D

 27 26  0     1  0  0  0  0  0999 V2000
   -3.2406   -3.5400    1.2326 H   0  0  0  0  0  0  0  0  0  0  0  0
   -3.1436   -2.6190    0.6606 C   0  0  0  0  0  0  0  0  0  0  0  0
   -3.8786   -1.8920    0.9996 H   0  0  0  0  0  0  0  0  0  0  0  0
   -3.2846   -2.8280   -0.3984 H   0  0  0  0  0  0  0  0  0  0  0  0
   -1.7586   -2.0580    0.8686 C   0  0  0  0  0  0  0  0  0  0  0  0
   -0.9666   -2.6340    1.6026 O   0  0  0  0  0  0  0  0  0  0  0  0
   -1.4866   -0.9220    0.2366 N   0  0  0  0  0  0  0  0  0  0  0  0
   -2.2166   -0.4790   -0.2994 H   0  0  0  0  0  0  0  0  0  0  0  0
   -0.1956   -0.2250    0.2596 C   0  0  1  0  0  0  0  0  0  0  0  0
   -0.0962    0.2993    1.2105 H   0  0  0  0  0  0  0  0  0  0  0  0
    0.9411   -1.2640    0.1806 C   0  0  0  0  0  0  0  0  0  0  0  0
    0.7572   -1.8981   -0.6880 H   0  0  0  0  0  0  0  0  0  0  0  0
    1.8913   -0.7479    0.0356 H   0  0  0  0  0  0  0  0  0  0  0  0
    1.0389   -2.1603    1.4266 C   0  0  0  0  0  0  0  0  0  0  0  0
    1.2166   -1.5340    2.3042 H   0  0  0  0  0  0  0  0  0  0  0  0
    0.0789   -2.6656    1.5619 H   0  0  0  0  0  0  0  0  0  0  0  0
    2.1558   -3.2107    1.3366 C   0  0  0  0  0  0  0  0  0  0  0  0
    2.7702   -3.3331    0.2531 O   0  5  0  0  0  0  0  0  0  0  0  0
    2.3952   -3.8654    2.3755 O   0  0  0  0  0  0  0  0  0  0  0  0
   -0.1256    0.8333   -0.8608 C   0  0  0  0  0  0  0  0  0  0  0  0
    0.9500    1.1134   -1.3940 O   0  0  0  0  0  0  0  0  0  0  0  0
   -1.2754    1.4071   -1.2387 N   0  0  0  0  0  0  0  0  0  0  0  0
   -2.1075    1.1678   -0.7203 H   0  0  0  0  0  0  0  0  0  0  0  0
   -1.3779    2.4374   -2.2689 C   0  0  0  0  0  0  0  0  0  0  0  0
   -0.8709    2.1032   -3.1757 H   0  0  0  0  0  0  0  0  0  0  0  0
   -2.4260    2.6426   -2.4917 H   0  0  0  0  0  0  0  0  0  0  0  0
   -0.8972    3.3518   -1.9159 H   0  0  0  0  0  0  0  0  0  0  0  0
  5  6  2  0  0  0  0
  5  7  1  0  0  0  0
  2  3  1  0  0  0  0
  2  4  1  0  0  0  0
  2  5  1  0  0  0  0
  1  2  1  0  0  0  0
 20 21  2  0  0  0  0
 20 22  1  0  0  0  0
 17 18  1  0  0  0  0
 17 19  2  0  0  0  0
 14 15  1  0  0  0  0
 14 16  1  0  0  0  0
 14 17  1  0  0  0  0
 11 12  1  0  0  0  0
 11 13  1  0  0  0  0
 11 14  1  0  0  0  0
  9 10  1  0  0  0  0
  9 11  1  0  0  0  0
  9 20  1  0  0  0  0
  7  8  1  0  0  0  0
  7  9  1  0  0  0  0
 24 25  1  0  0  0  0
 24 26  1  0  0  0  0
 24 27  1  0  0  0  0
 22 23  1  0  0  0  0
 22 24  1  0  0  0  0
M  CHG  1  18  -1
M  END
$$$$
default_name
  -OEChem-01062215323D

 27 26  0     1  0  0  0  0  0999 V2000
   -3.2406   -3.5400    1.2326 H   0  0  0  0  0  0  0  0  0  0  0  0
   -3.1436   -2.6190    0.6606 C   0  0  0  0  0  0  0  0  0  0  0  0
   -3.8786   -1.8920    0.9996 H   0  0  0  0  0  0  0  0  0  0  0  0
   -3.2846   -2.8280   -0.3984 H   0  0  0  0  0  0  0  0  0  0  0  0
   -1.7586   -2.0580    0.8686 C   0  0  0  0  0  0  0  0  0  0  0  0
   -0.9666   -2.6340    1.6026 O   0  0  0  0  0  0  0  0  0  0  0  0
   -1.4866   -0.9220    0.2366 N   0  0  0  0  0  0  0  0  0  0  0  0
   -2.2166   -0.4790   -0.2994 H   0  0  0  0  0  0  0  0  0  0  0  0
   -0.1956   -0.2250    0.2596 C   0  0  1  0  0  0  0  0  0  0  0  0
   -0.0962    0.2993    1.2105 H   0  0  0  0  0  0  0  0  0  0  0  0
    0.9411   -1.2640    0.1806 C   0  0  0  0  0  0  0  0  0  0  0  0
    0.7572   -1.8981   -0.6880 H   0  0  0  0  0  0  0  0  0  0  0  0
    1.8913   -0.7479    0.0356 H   0  0  0  0  0  0  0  0  0  0  0  0
    1.0389   -2.1603    1.4266 C   0  0  0  0  0  0  0  0  0  0  0  0
    1.2166   -1.5340    2.3042 H   0  0  0  0  0  0  0  0  0  0  0  0
    0.0789   -2.6656    1.5619 H   0  0  0  0  0  0  0  0  0  0  0  0
    2.1558   -3.2107    1.3366 C   0  0  0  0  0  0  0  0  0  0  0  0
    2.7702   -3.3331    0.2531 O   0  5  0  0  0  0  0  0  0  0  0  0
    2.3952   -3.8654    2.3755 O   0  0  0  0  0  0  0  0  0  0  0  0
   -0.1256    0.8333   -0.8608 C   0  0  0  0  0  0  0  0  0  0  0  0
    0.8723    0.9226   -1.5791 O   0  0  0  0  0  0  0  0  0  0  0  0
   -1.1945    1.6225   -1.0302 N   0  0  0  0  0  0  0  0  0  0  0  0
   -1.9521    1.5281   -0.3702 H   0  0  0  0  0  0  0  0  0  0  0  0
   -1.2806    2.6830   -2.0309 C   0  0  0  0  0  0  0  0  0  0  0  0
   -1.0140    2.2860   -3.0119 H   0  0  0  0  0  0  0  0  0  0  0  0
   -2.2935    3.0867   -2.0639 H   0  0  0  0  0  0  0  0  0  0  0  0
   -0.5811    3.4809   -1.7743 H   0  0  0  0  0  0  0  0  0  0  0  0
  5  6  2  0  0  0  0
  5  7  1  0  0  0  0
  2  3  1  0  0  0  0
  2  4  1  0  0  0  0
  2  5  1  0  0  0  0
  1  2  1  0  0  0  0
 20 21  2  0  0  0  0
 20 22  1  0  0  0  0
 17 18  1  0  0  0  0
 17 19  2  0  0  0  0
 14 15  1  0  0  0  0
 14 16  1  0  0  0  0
 14 17  1  0  0  0  0
 11 12  1  0  0  0  0
 11 13  1  0  0  0  0
 11 14  1  0  0  0  0
  9 10  1  0  0  0  0
  9 11  1  0  0  0  0
  9 20  1  0  0  0  0
  7  8  1  0  0  0  0
  7  9  1  0  0  0  0
 24 25  1  0  0  0  0
 24 26  1  0  0  0  0
 24 27  1  0  0  0  0
 22 23  1  0  0  0  0
 22 24  1  0  0  0  0
M  CHG  1  18  -1
M  END
$$$$
default_name
  -OEChem-01062215323D

 27 26  0     1  0  0  0  0  0999 V2000
   -3.2406   -3.5400    1.2326 H   0  0  0  0  0  0  0  0  0  0  0  0
   -3.1436   -2.6190    0.6606 C   0  0  0  0  0  0  0  0  0  0  0  0
   -3.8786   -1.8920    0.9996 H   0  0  0  0  0  0  0  0  0  0  0  0
   -3.2846   -2.8280   -0.3984 H   0  0  0  0  0  0  0  0  0  0  0  0
   -1.7586   -2.0580    0.8686 C   0  0  0  0  0  0  0  0  0  0  0  0
   -0.9666   -2.6340    1.6026 O   0  0  0  0  0  0  0  0  0  0  0  0
   -1.4866   -0.9220    0.2366 N   0  0  0  0  0  0  0  0  0  0  0  0
   -2.2166   -0.4790   -0.2994 H   0  0  0  0  0  0  0  0  0  0  0  0
   -0.1956   -0.2250    0.2596 C   0  0  1  0  0  0  0  0  0  0  0  0
   -0.0962    0.2993    1.2105 H   0  0  0  0  0  0  0  0  0  0  0  0
    0.9411   -1.2640    0.1806 C   0  0  0  0  0  0  0  0  0  0  0  0
    0.7572   -1.8981   -0.6880 H   0  0  0  0  0  0  0  0  0  0  0  0
    1.8913   -0.7479    0.0356 H   0  0  0  0  0  0  0  0  0  0  0  0
    1.0389   -2.1603    1.4266 C   0  0  0  0  0  0  0  0  0  0  0  0
    1.2166   -1.5340    2.3042 H   0  0  0  0  0  0  0  0  0  0  0  0
    0.0789   -2.6656    1.5619 H   0  0  0  0  0  0  0  0  0  0  0  0
    2.1558   -3.2107    1.3366 C   0  0  0  0  0  0  0  0  0  0  0  0
    2.7702   -3.3331    0.2531 O   0  5  0  0  0  0  0  0  0  0  0  0
    2.3952   -3.8654    2.3755 O   0  0  0  0  0  0  0  0  0  0  0  0
   -0.1256    0.8333   -0.8608 C   0  0  0  0  0  0  0  0  0  0  0  0
    0.7285    0.7551   -1.7463 O   0  0  0  0  0  0  0  0  0  0  0  0
   -1.0389    1.8129   -0.8406 N   0  0  0  0  0  0  0  0  0  0  0  0
   -1.6722    1.8429   -0.0554 H   0  0  0  0  0  0  0  0  0  0  0  0
   -1.0981    2.8990   -1.8154 C   0  0  0  0  0  0  0  0  0  0  0  0
   -1.0887    2.4876   -2.8262 H   0  0  0  0  0  0  0  0  0  0  0  0
   -2.0061    3.4858   -1.6690 H   0  0  0  0  0  0  0  0  0  0  0  0
   -0.2263    3.5445   -1.6920 H   0  0  0  0  0  0  0  0  0  0  0  0
  5  6  2  0  0  0  0
  5  7  1  0  0  0  0
  2  3  1  0  0  0  0
  2  4  1  0  0  0  0
  2  5  1  0  0  0  0
  1  2  1  0  0  0  0
 20 21  2  0  0  0  0
 20 22  1  0  0  0  0
 17 18  1  0  0  0  0
 17 19  2  0  0  0  0
 14 15  1  0  0  0  0
 14 16  1  0  0  0  0
 14 17  1  0  0  0  0
 11 12  1  0  0  0  0
 11 13  1  0  0  0  0
 11 14  1  0  0  0  0
  9 10  1  0  0  0  0
  9 11  1  0  0  0  0
  9 20  1  0  0  0  0
  7  8  1  0  0  0  0
  7  9  1  0  0  0  0
 24 25  1  0  0  0  0
 24 26  1  0  0  0  0
 24 27  1  0  0  0  0
 22 23  1  0  0  0  0
 22 24  1  0  0  0  0
M  CHG  1  18  -1
M  END
$$$$
default_name
  -OEChem-01062215323D

 27 26  0     1  0  0  0  0  0999 V2000
   -3.2406   -3.5400    1.2326 H   0  0  0  0  0  0  0  0  0  0  0  0
   -3.1436   -2.6190    0.6606 C   0  0  0  0  0  0  0  0  0  0  0  0
   -3.8786   -1.8920    0.9996 H   0  0  0  0  0  0  0  0  0  0  0  0
   -3.2846   -2.8280   -0.3984 H   0  0  0  0  0  0  0  0  0  0  0  0
   -1.7586   -2.0580    0.8686 C   0  0  0  0  0  0  0  0  0  0  0  0
   -0.9666   -2.6340    1.6026 O   0  0  0  0  0  0  0  0  0  0  0  0
   -1.4866   -0.9220    0.2366 N   0  0  0  0  0  0  0  0  0  0  0  0
   -2.2166   -0.4790   -0.2994 H   0  0  0  0  0  0  0  0  0  0  0  0
   -0.1956   -0.2250    0.2596 C   0  0  1  0  0  0  0  0  0  0  0  0
   -0.0962    0.2993    1.2105 H   0  0  0  0  0  0  0  0  0  0  0  0
    0.9411   -1.2640    0.1806 C   0  0  0  0  0  0  0  0  0  0  0  0
    0.7572   -1.8981   -0.6880 H   0  0  0  0  0  0  0  0  0  0  0  0
    1.8913   -0.7479    0.0356 H   0  0  0  0  0  0  0  0  0  0  0  0
    1.0389   -2.1603    1.4266 C   0  0  0  0  0  0  0  0  0  0  0  0
    1.2166   -1.5340    2.3042 H   0  0  0  0  0  0  0  0  0  0  0  0
    0.0789   -2.6656    1.5619 H   0  0  0  0  0  0  0  0  0  0  0  0
    2.1558   -3.2107    1.3366 C   0  0  0  0  0  0  0  0  0  0  0  0
    2.7702   -3.3331    0.2531 O   0  5  0  0  0  0  0  0  0  0  0  0
    2.3952   -3.8654    2.3755 O   0  0  0  0  0  0  0  0  0  0  0  0
   -0.1256    0.8333   -0.8608 C   0  0  0  0  0  0  0  0  0  0  0  0
    0.5285    0.6223   -1.8842 O   0  0  0  0  0  0  0  0  0  0  0  0
   -0.8191    1.9654   -0.6829 N   0  0  0  0  0  0  0  0  0  0  0  0
   -1.2866    2.0906    0.2026 H   0  0  0  0  0  0  0  0  0  0  0  0
   -0.8430    3.0709   -1.6371 C   0  0  0  0  0  0  0  0  0  0  0  0
   -1.0900    2.6942   -2.6311 H   0  0  0  0  0  0  0  0  0  0  0  0
   -1.5834    3.8126   -1.3339 H   0  0  0  0  0  0  0  0  0  0  0  0
    0.1429    3.5383   -1.6749 H   0  0  0  0  0  0  0  0  0  0  0  0
  5  6  2  0  0  0  0
  5  7  1  0  0  0  0
  2  3  1  0  0  0  0
  2  4  1  0  0  0  0
  2  5  1  0  0  0  0
  1  2  1  0  0  0  0
 20 21  2  0  0  0  0
 20 22  1  0  0  0  0
 17 18  1  0  0  0  0
 17 19  2  0  0  0  0
 14 15  1  0  0  0  0
 14 16  1  0  0  0  0
 14 17  1  0  0  0  0
 11 12  1  0  0  0  0
 11 13  1  0  0  0  0
 11 14  1  0  0  0  0
  9 10  1  0  0  0  0
  9 11  1  0  0  0  0
  9 20  1  0  0  0  0
  7  8  1  0  0  0  0
  7  9  1  0  0  0  0
 24 25  1  0  0  0  0
 24 26  1  0  0  0  0
 24 27  1  0  0  0  0
 22 23  1  0  0  0  0
 22 24  1  0  0  0  0
M  CHG  1  18  -1
M  END
$$$$
default_name
  -OEChem-01062215323D

 27 26  0     1  0  0  0  0  0999 V2000
   -3.2406   -3.5400    1.2326 H   0  0  0  0  0  0  0  0  0  0  0  0
   -3.1436   -2.6190    0.6606 C   0  0  0  0  0  0  0  0  0  0  0  0
   -3.8786   -1.8920    0.9996 H   0  0  0  0  0  0  0  0  0  0  0  0
   -3.2846   -2.8280   -0.3984 H   0  0  0  0  0  0  0  0  0  0  0  0
   -1.7586   -2.0580    0.8686 C   0  0  0  0  0  0  0  0  0  0  0  0
   -0.9666   -2.6340    1.6026 O   0  0  0  0  0  0  0  0  0  0  0  0
   -1.4866   -0.9220    0.2366 N   0  0  0  0  0  0  0  0  0  0  0  0
   -2.2166   -0.4790   -0.2994 H   0  0  0  0  0  0  0  0  0  0  0  0
   -0.1956   -0.2250    0.2596 C   0  0  1  0  0  0  0  0  0  0  0  0
   -0.0962    0.2993    1.2105 H   0  0  0  0  0  0  0  0  0  0  0  0
    0.9411   -1.2640    0.1806 C   0  0  0  0  0  0  0  0  0  0  0  0
    0.7572   -1.8981   -0.6880 H   0  0  0  0  0  0  0  0  0  0  0  0
    1.8913   -0.7479    0.0356 H   0  0  0  0  0  0  0  0  0  0  0  0
    1.0389   -2.1603    1.4266 C   0  0  0  0  0  0  0  0  0  0  0  0
    1.2166   -1.5340    2.3042 H   0  0  0  0  0  0  0  0  0  0  0  0
    0.0789   -2.6656    1.5619 H   0  0  0  0  0  0  0  0  0  0  0  0
    2.1558   -3.2107    1.3366 C   0  0  0  0  0  0  0  0  0  0  0  0
    2.7702   -3.3331    0.2531 O   0  5  0  0  0  0  0  0  0  0  0  0
    2.3952   -3.8654    2.3755 O   0  0  0  0  0  0  0  0  0  0  0  0
   -0.1256    0.8333   -0.8608 C   0  0  0  0  0  0  0  0  0  0  0  0
    0.2858    0.5332   -1.9835 O   0  0  0  0  0  0  0  0  0  0  0  0
   -0.5501    2.0694   -0.5678 N   0  0  0  0  0  0  0  0  0  0  0  0
   -0.8219    2.2544    0.3864 H   0  0  0  0  0  0  0  0  0  0  0  0
   -0.5326    3.1869   -1.5082 C   0  0  0  0  0  0  0  0  0  0  0  0
   -1.0177    2.8917   -2.4400 H   0  0  0  0  0  0  0  0  0  0  0  0
   -1.0541    4.0449   -1.0815 H   0  0  0  0  0  0  0  0  0  0  0  0
    0.5015    3.4627   -1.7239 H   0  0  0  0  0  0  0  0  0  0  0  0
  5  6  2  0  0  0  0
  5  7  1  0  0  0  0
  2  3  1  0  0  0  0
  2  4  1  0  0  0  0
  2  5  1  0  0  0  0
  1  2  1  0  0  0  0
 20 21  2  0  0  0  0
 20 22  1  0  0  0  0
 17 18  1  0  0  0  0
 17 19  2  0  0  0  0
 14 15  1  0  0  0  0
 14 16  1  0  0  0  0
 14 17  1  0  0  0  0
 11 12  1  0  0  0  0
 11 13  1  0  0  0  0
 11 14  1  0  0  0  0
  9 10  1  0  0  0  0
  9 11  1  0  0  0  0
  9 20  1  0  0  0  0
  7  8  1  0  0  0  0
  7  9  1  0  0  0  0
 24 25  1  0  0  0  0
 24 26  1  0  0  0  0
 24 27  1  0  0  0  0
 22 23  1  0  0  0  0
 22 24  1  0  0  0  0
M  CHG  1  18  -1
M  END
$$$$
default_name
  -OEChem-01062215323D

 27 26  0     1  0  0  0  0  0999 V2000
   -3.2406   -3.5400    1.2326 H   0  0  0  0  0  0  0  0  0  0  0  0
   -3.1436   -2.6190    0.6606 C   0  0  0  0  0  0  0  0  0  0  0  0
   -3.8786   -1.8920    0.9996 H   0  0  0  0  0  0  0  0  0  0  0  0
   -3.2846   -2.8280   -0.3984 H   0  0  0  0  0  0  0  0  0  0  0  0
   -1.7586   -2.0580    0.8686 C   0  0  0  0  0  0  0  0  0  0  0  0
   -0.9666   -2.6340    1.6026 O   0  0  0  0  0  0  0  0  0  0  0  0
   -1.4866   -0.9220    0.2366 N   0  0  0  0  0  0  0  0  0  0  0  0
   -2.2166   -0.4790   -0.2994 H   0  0  0  0  0  0  0  0  0  0  0  0
   -0.1956   -0.2250    0.2596 C   0  0  1  0  0  0  0  0  0  0  0  0
   -0.0962    0.2993    1.2105 H   0  0  0  0  0  0  0  0  0  0  0  0
    0.9411   -1.2640    0.1806 C   0  0  0  0  0  0  0  0  0  0  0  0
    0.7572   -1.8981   -0.6880 H   0  0  0  0  0  0  0  0  0  0  0  0
    1.8913   -0.7479    0.0356 H   0  0  0  0  0  0  0  0  0  0  0  0
    1.0389   -2.1603    1.4266 C   0  0  0  0  0  0  0  0  0  0  0  0
    1.2166   -1.5340    2.3042 H   0  0  0  0  0  0  0  0  0  0  0  0
    0.0789   -2.6656    1.5619 H   0  0  0  0  0  0  0  0  0  0  0  0
    2.1558   -3.2107    1.3366 C   0  0  0  0  0  0  0  0  0  0  0  0
    2.7702   -3.3331    0.2531 O   0  5  0  0  0  0  0  0  0  0  0  0
    2.3952   -3.8654    2.3755 O   0  0  0  0  0  0  0  0  0  0  0  0
   -0.1256    0.8333   -0.8608 C   0  0  0  0  0  0  0  0  0  0  0  0
    0.0170    0.4940   -2.0373 O   0  0  0  0  0  0  0  0  0  0  0  0
   -0.2504    2.1181   -0.5031 N   0  0  0  0  0  0  0  0  0  0  0  0
   -0.3096    2.3231    0.4832 H   0  0  0  0  0  0  0  0  0  0  0  0
   -0.1881    3.2391   -1.4373 C   0  0  0  0  0  0  0  0  0  0  0  0
   -0.8770    3.0666   -2.2660 H   0  0  0  0  0  0  0  0  0  0  0  0
   -0.4544    4.1668   -0.9289 H   0  0  0  0  0  0  0  0  0  0  0  0
    0.8249    3.3228   -1.8358 H   0  0  0  0  0  0  0  0  0  0  0  0
  5  6  2  0  0  0  0
  5  7  1  0  0  0  0
  2  3  1  0  0  0  0
  2  4  1  0  0  0  0
  2  5  1  0  0  0  0
  1  2  1  0  0  0  0
 20 21  2  0  0  0  0
 20 22  1  0  0  0  0
 17 18  1  0  0  0  0
 17 19  2  0  0  0  0
 14 15  1  0  0  0  0
 14 16  1  0  0  0  0
 14 17  1  0  0  0  0
 11 12  1  0  0  0  0
 11 13  1  0  0  0  0
 11 14  1  0  0  0  0
  9 10  1  0  0  0  0
  9 11  1  0  0  0  0
  9 20  1  0  0  0  0
  7  8  1  0  0  0  0
  7  9  1  0  0  0  0
 24 25  1  0  0  0  0
 24 26  1  0  0  0  0
 24 27  1  0  0  0  0
 22 23  1  0  0  0  0
 22 24  1  0  0  0  0
M  CHG  1  18  -1
M  END
$$$$
default_name
  -OEChem-01062215323D

 27 26  0     1  0  0  0  0  0999 V2000
   -3.2406   -3.5400    1.2326 H   0  0  0  0  0  0  0  0  0  0  0  0
   -3.1436   -2.6190    0.6606 C   0  0  0  0  0  0  0  0  0  0  0  0
   -3.8786   -1.8920    0.9996 H   0  0  0  0  0  0  0  0  0  0  0  0
   -3.2846   -2.8280   -0.3984 H   0  0  0  0  0  0  0  0  0  0  0  0
   -1.7586   -2.0580    0.8686 C   0  0  0  0  0  0  0  0  0  0  0  0
   -0.9666   -2.6340    1.6026 O   0  0  0  0  0  0  0  0  0  0  0  0
   -1.4866   -0.9220    0.2366 N   0  0  0  0  0  0  0  0  0  0  0  0
   -2.2166   -0.4790   -0.2994 H   0  0  0  0  0  0  0  0  0  0  0  0
   -0.1956   -0.2250    0.2596 C   0  0  1  0  0  0  0  0  0  0  0  0
   -0.0962    0.2993    1.2105 H   0  0  0  0  0  0  0  0  0  0  0  0
    0.9411   -1.2640    0.1806 C   0  0  0  0  0  0  0  0  0  0  0  0
    0.7572   -1.8981   -0.6880 H   0  0  0  0  0  0  0  0  0  0  0  0
    1.8913   -0.7479    0.0356 H   0  0  0  0  0  0  0  0  0  0  0  0
    1.0389   -2.1603    1.4266 C   0  0  0  0  0  0  0  0  0  0  0  0
    1.2166   -1.5340    2.3042 H   0  0  0  0  0  0  0  0  0  0  0  0
    0.0789   -2.6656    1.5619 H   0  0  0  0  0  0  0  0  0  0  0  0
    2.1558   -3.2107    1.3366 C   0  0  0  0  0  0  0  0  0  0  0  0
    2.7702   -3.3331    0.2531 O   0  5  0  0  0  0  0  0  0  0  0  0
    2.3952   -3.8654    2.3755 O   0  0  0  0  0  0  0  0  0  0  0  0
   -0.1256    0.8333   -0.8608 C   0  0  0  0  0  0  0  0  0  0  0  0
   -0.2595    0.5072   -2.0421 O   0  0  0  0  0  0  0  0  0  0  0  0
    0.0598    2.1079   -0.4933 N   0  0  0  0  0  0  0  0  0  0  0  0
    0.2154    2.2920    0.4867 H   0  0  0  0  0  0  0  0  0  0  0  0
    0.1670    3.2240   -1.4295 C   0  0  0  0  0  0  0  0  0  0  0  0
   -0.6772    3.2071   -2.1208 H   0  0  0  0  0  0  0  0  0  0  0  0
    0.1748    4.1701   -0.8865 H   0  0  0  0  0  0  0  0  0  0  0  0
    1.0911    3.1283   -2.0030 H   0  0  0  0  0  0  0  0  0  0  0  0
  5  6  2  0  0  0  0
  5  7  1  0  0  0  0
  2  3  1  0  0  0  0
  2  4  1  0  0  0  0
  2  5  1  0  0  0  0
  1  2  1  0  0  0  0
 20 21  2  0  0  0  0
 20 22  1  0  0  0  0
 17 18  1  0  0  0  0
 17 19  2  0  0  0  0
 14 15  1  0  0  0  0
 14 16  1  0  0  0  0
 14 17  1  0  0  0  0
 11 12  1  0  0  0  0
 11 13  1  0  0  0  0
 11 14  1  0  0  0  0
  9 10  1  0  0  0  0
  9 11  1  0  0  0  0
  9 20  1  0  0  0  0
  7  8  1  0  0  0  0
  7  9  1  0  0  0  0
 24 25  1  0  0  0  0
 24 26  1  0  0  0  0
 24 27  1  0  0  0  0
 22 23  1  0  0  0  0
 22 24  1  0  0  0  0
M  CHG  1  18  -1
M  END
$$$$
default_name
  -OEChem-01062215323D

 27 26  0     1  0  0  0  0  0999 V2000
   -3.2406   -3.5400    1.2326 H   0  0  0  0  0  0  0  0  0  0  0  0
   -3.1436   -2.6190    0.6606 C   0  0  0  0  0  0  0  0  0  0  0  0
   -3.8786   -1.8920    0.9996 H   0  0  0  0  0  0  0  0  0  0  0  0
   -3.2846   -2.8280   -0.3984 H   0  0  0  0  0  0  0  0  0  0  0  0
   -1.7586   -2.0580    0.8686 C   0  0  0  0  0  0  0  0  0  0  0  0
   -0.9666   -2.6340    1.6026 O   0  0  0  0  0  0  0  0  0  0  0  0
   -1.4866   -0.9220    0.2366 N   0  0  0  0  0  0  0  0  0  0  0  0
   -2.2166   -0.4790   -0.2994 H   0  0  0  0  0  0  0  0  0  0  0  0
   -0.1956   -0.2250    0.2596 C   0  0  1  0  0  0  0  0  0  0  0  0
   -0.0962    0.2993    1.2105 H   0  0  0  0  0  0  0  0  0  0  0  0
    0.9411   -1.2640    0.1806 C   0  0  0  0  0  0  0  0  0  0  0  0
    0.7572   -1.8981   -0.6880 H   0  0  0  0  0  0  0  0  0  0  0  0
    1.8913   -0.7479    0.0356 H   0  0  0  0  0  0  0  0  0  0  0  0
    1.0389   -2.1603    1.4266 C   0  0  0  0  0  0  0  0  0  0  0  0
    1.2166   -1.5340    2.3042 H   0  0  0  0  0  0  0  0  0  0  0  0
    0.0789   -2.6656    1.5619 H   0  0  0  0  0  0  0  0  0  0  0  0
    2.1558   -3.2107    1.3366 C   0  0  0  0  0  0  0  0  0  0  0  0
    2.7702   -3.3331    0.2531 O   0  5  0  0  0  0  0  0  0  0  0  0
    2.3952   -3.8654    2.3755 O   0  0  0  0  0  0  0  0  0  0  0  0
   -0.1256    0.8333   -0.8608 C   0  0  0  0  0  0  0  0  0  0  0  0
   -0.5250    0.5721   -1.9974 O   0  0  0  0  0  0  0  0  0  0  0  0
    0.3593    2.0397   -0.5391 N   0  0  0  0  0  0  0  0  0  0  0  0
    0.7172    2.1633    0.3964 H   0  0  0  0  0  0  0  0  0  0  0  0
    0.5086    3.1425   -1.4851 C   0  0  0  0  0  0  0  0  0  0  0  0
   -0.4320    3.3035   -2.0144 H   0  0  0  0  0  0  0  0  0  0  0  0
    0.7908    4.0545   -0.9572 H   0  0  0  0  0  0  0  0  0  0  0  0
    1.2820    2.8923   -2.2140 H   0  0  0  0  0  0  0  0  0  0  0  0
  5  6  2  0  0  0  0
  5  7  1  0  0  0  0
  2  3  1  0  0  0  0
  2  4  1  0  0  0  0
  2  5  1  0  0  0  0
  1  2  1  0  0  0  0
 20 21  2  0  0  0  0
 20 22  1  0  0  0  0
 17 18  1  0  0  0  0
 17 19  2  0  0  0  0
 14 15  1  0  0  0  0
 14 16  1  0  0  0  0
 14 17  1  0  0  0  0
 11 12  1  0  0  0  0
 11 13  1  0  0  0  0
 11 14  1  0  0  0  0
  9 10  1  0  0  0  0
  9 11  1  0  0  0  0
  9 20  1  0  0  0  0
  7  8  1  0  0  0  0
  7  9  1  0  0  0  0
 24 25  1  0  0  0  0
 24 26  1  0  0  0  0
 24 27  1  0  0  0  0
 22 23  1  0  0  0  0
 22 24  1  0  0  0  0
M  CHG  1  18  -1
M  END
$$$$
default_name
  -OEChem-01062215323D

 27 26  0     1  0  0  0  0  0999 V2000
   -3.2406   -3.5400    1.2326 H   0  0  0  0  0  0  0  0  0  0  0  0
   -3.1436   -2.6190    0.6606 C   0  0  0  0  0  0  0  0  0  0  0  0
   -3.8786   -1.8920    0.9996 H   0  0  0  0  0  0  0  0  0  0  0  0
   -3.2846   -2.8280   -0.3984 H   0  0  0  0  0  0  0  0  0  0  0  0
   -1.7586   -2.0580    0.8686 C   0  0  0  0  0  0  0  0  0  0  0  0
   -0.9666   -2.6340    1.6026 O   0  0  0  0  0  0  0  0  0  0  0  0
   -1.4866   -0.9220    0.2366 N   0  0  0  0  0  0  0  0  0  0  0  0
   -2.2166   -0.4790   -0.2994 H   0  0  0  0  0  0  0  0  0  0  0  0
   -0.1956   -0.2250    0.2596 C   0  0  1  0  0  0  0  0  0  0  0  0
   -0.0962    0.2993    1.2105 H   0  0  0  0  0  0  0  0  0  0  0  0
    0.9411   -1.2640    0.1806 C   0  0  0  0  0  0  0  0  0  0  0  0
    0.7572   -1.8981   -0.6880 H   0  0  0  0  0  0  0  0  0  0  0  0
    1.8913   -0.7479    0.0356 H   0  0  0  0  0  0  0  0  0  0  0  0
    1.0389   -2.1603    1.4266 C   0  0  0  0  0  0  0  0  0  0  0  0
    1.2166   -1.5340    2.3042 H   0  0  0  0  0  0  0  0  0  0  0  0
    0.0789   -2.6656    1.5619 H   0  0  0  0  0  0  0  0  0  0  0  0
    2.1558   -3.2107    1.3366 C   0  0  0  0  0  0  0  0  0  0  0  0
    2.7702   -3.3331    0.2531 O   0  5  0  0  0  0  0  0  0  0  0  0
    2.3952   -3.8654    2.3755 O   0  0  0  0  0  0  0  0  0  0  0  0
   -0.1256    0.8333   -0.8608 C   0  0  0  0  0  0  0  0  0  0  0  0
   -0.7613    0.6841   -1.9064 O   0  0  0  0  0  0  0  0  0  0  0  0
    0.6276    1.9181   -0.6372 N   0  0  0  0  0  0  0  0  0  0  0  0
    1.1617    1.9457    0.2186 H   0  0  0  0  0  0  0  0  0  0  0  0
    0.8134    3.0002   -1.6005 C   0  0  0  0  0  0  0  0  0  0  0  0
   -0.1582    3.3494   -1.9540 H   0  0  0  0  0  0  0  0  0  0  0  0
    1.3515    3.8279   -1.1363 H   0  0  0  0  0  0  0  0  0  0  0  0
    1.3846    2.6309   -2.4545 H   0  0  0  0  0  0  0  0  0  0  0  0
  5  6  2  0  0  0  0
  5  7  1  0  0  0  0
  2  3  1  0  0  0  0
  2  4  1  0  0  0  0
  2  5  1  0  0  0  0
  1  2  1  0  0  0  0
 20 21  2  0  0  0  0
 20 22  1  0  0  0  0
 17 18  1  0  0  0  0
 17 19  2  0  0  0  0
 14 15  1  0  0  0  0
 14 16  1  0  0  0  0
 14 17  1  0  0  0  0
 11 12  1  0  0  0  0
 11 13  1  0  0  0  0
 11 14  1  0  0  0  0
  9 10  1  0  0  0  0
  9 11  1  0  0  0  0
  9 20  1  0  0  0  0
  7  8  1  0  0  0  0
  7  9  1  0  0  0  0
 24 25  1  0  0  0  0
 24 26  1  0  0  0  0
 24 27  1  0  0  0  0
 22 23  1  0  0  0  0
 22 24  1  0  0  0  0
M  CHG  1  18  -1
M  END
$$$$
default_name
  -OEChem-01062215323D

 27 26  0     1  0  0  0  0  0999 V2000
   -3.2406   -3.5400    1.2326 H   0  0  0  0  0  0  0  0  0  0  0  0
   -3.1436   -2.6190    0.6606 C   0  0  0  0  0  0  0  0  0  0  0  0
   -3.8786   -1.8920    0.9996 H   0  0  0  0  0  0  0  0  0  0  0  0
   -3.2846   -2.8280   -0.3984 H   0  0  0  0  0  0  0  0  0  0  0  0
   -1.7586   -2.0580    0.8686 C   0  0  0  0  0  0  0  0  0  0  0  0
   -0.9666   -2.6340    1.6026 O   0  0  0  0  0  0  0  0  0  0  0  0
   -1.4866   -0.9220    0.2366 N   0  0  0  0  0  0  0  0  0  0  0  0
   -2.2166   -0.4790   -0.2994 H   0  0  0  0  0  0  0  0  0  0  0  0
   -0.1956   -0.2250    0.2596 C   0  0  1  0  0  0  0  0  0  0  0  0
   -0.0962    0.2993    1.2105 H   0  0  0  0  0  0  0  0  0  0  0  0
    0.9411   -1.2640    0.1806 C   0  0  0  0  0  0  0  0  0  0  0  0
    0.7572   -1.8981   -0.6880 H   0  0  0  0  0  0  0  0  0  0  0  0
    1.8913   -0.7479    0.0356 H   0  0  0  0  0  0  0  0  0  0  0  0
    1.0389   -2.1603    1.4266 C   0  0  0  0  0  0  0  0  0  0  0  0
    1.2166   -1.5340    2.3042 H   0  0  0  0  0  0  0  0  0  0  0  0
    0.0789   -2.6656    1.5619 H   0  0  0  0  0  0  0  0  0  0  0  0
    2.1558   -3.2107    1.3366 C   0  0  0  0  0  0  0  0  0  0  0  0
    2.7702   -3.3331    0.2531 O   0  5  0  0  0  0  0  0  0  0  0  0
    2.3952   -3.8654    2.3755 O   0  0  0  0  0  0  0  0  0  0  0  0
   -0.1256    0.8333   -0.8608 C   0  0  0  0  0  0  0  0  0  0  0  0
   -0.9524    0.8356   -1.7752 O   0  0  0  0  0  0  0  0  0  0  0  0
    0.8465    1.7514   -0.7810 N   0  0  0  0  0  0  0  0  0  0  0  0
    1.5186    1.6540   -0.0346 H   0  0  0  0  0  0  0  0  0  0  0  0
    1.0605    2.8069   -1.7677 C   0  0  0  0  0  0  0  0  0  0  0  0
    0.1256    3.3415   -1.9438 H   0  0  0  0  0  0  0  0  0  0  0  0
    1.8187    3.5057   -1.4114 H   0  0  0  0  0  0  0  0  0  0  0  0
    1.3919    2.3620   -2.7080 H   0  0  0  0  0  0  0  0  0  0  0  0
  5  6  2  0  0  0  0
  5  7  1  0  0  0  0
  2  3  1  0  0  0  0
  2  4  1  0  0  0  0
  2  5  1  0  0  0  0
  1  2  1  0  0  0  0
 20 21  2  0  0  0  0
 20 22  1  0  0  0  0
 17 18  1  0  0  0  0
 17 19  2  0  0  0  0
 14 15  1  0  0  0  0
 14 16  1  0  0  0  0
 14 17  1  0  0  0  0
 11 12  1  0  0  0  0
 11 13  1  0  0  0  0
 11 14  1  0  0  0  0
  9 10  1  0  0  0  0
  9 11  1  0  0  0  0
  9 20  1  0  0  0  0
  7  8  1  0  0  0  0
  7  9  1  0  0  0  0
 24 25  1  0  0  0  0
 24 26  1  0  0  0  0
 24 27  1  0  0  0  0
 22 23  1  0  0  0  0
 22 24  1  0  0  0  0
M  CHG  1  18  -1
M  END
$$$$
