
  -OEChem-01062216073D

 27 26  0     1  0  0  0  0  0999 V2000
   -3.3261   -2.8383    1.2700 H   0  0  0  0  0  0  0  0  0  0  0  0
   -3.1103   -2.0111    0.5879 C   0  0  0  0  0  0  0  0  0  0  0  0
   -4.0051   -1.3924    0.4865 H   0  0  0  0  0  0  0  0  0  0  0  0
   -2.8467   -2.4225   -0.3897 H   0  0  0  0  0  0  0  0  0  0  0  0
   -1.9586   -1.1786    1.1219 C   0  0  0  0  0  0  0  0  0  0  0  0
   -1.5166   -1.3950    2.2396 O   0  0  0  0  0  0  0  0  0  0  0  0
   -1.5474   -0.0612    0.4305 N   0  0  0  0  0  0  0  0  0  0  0  0
   -2.0624    0.1396   -0.4246 H   0  0  0  0  0  0  0  0  0  0  0  0
   -0.2030    0.5431    0.4837 C   0  0  1  0  0  0  0  0  0  0  0  0
    0.0270    0.8446    1.5098 H   0  0  0  0  0  0  0  0  0  0  0  0
    0.9250   -0.3799   -0.0620 C   0  0  0  0  0  0  0  0  0  0  0  0
    0.6525   -0.6699   -1.0833 H   0  0  0  0  0  0  0  0  0  0  0  0
    1.8580    0.1886   -0.1221 H   0  0  0  0  0  0  0  0  0  0  0  0
    1.2566   -1.6600    0.7302 C   0  0  0  0  0  0  0  0  0  0  0  0
    1.5521   -1.3924    1.7487 H   0  0  0  0  0  0  0  0  0  0  0  0
    0.3803   -2.3060    0.7821 H   0  0  0  0  0  0  0  0  0  0  0  0
    2.3714   -2.4903    0.0756 C   0  0  0  0  0  0  0  0  0  0  0  0
    2.7729   -2.1700   -1.0738 O   0  5  0  0  0  0  0  0  0  0  0  0
    2.8378   -3.4418    0.7481 O   0  0  0  0  0  0  0  0  0  0  0  0
   -0.1757    1.7904   -0.4387 C   0  0  0  0  0  0  0  0  0  0  0  0
   -1.1818    2.1429   -1.0511 O   0  0  0  0  0  0  0  0  0  0  0  0
    0.9742    2.5493   -0.5731 N   0  0  0  0  0  0  0  0  0  0  0  0
    1.8242    2.1466   -0.1869 H   0  0  0  0  0  0  0  0  0  0  0  0
    1.0984    3.6498   -1.5182 C   0  0  0  0  0  0  0  0  0  0  0  0
    0.3444    4.4174   -1.3157 H   0  0  0  0  0  0  0  0  0  0  0  0
    2.0881    4.1082   -1.4315 H   0  0  0  0  0  0  0  0  0  0  0  0
    0.9708    3.2888   -2.5439 H   0  0  0  0  0  0  0  0  0  0  0  0
  1  2  1  0  0  0  0
  2  3  1  0  0  0  0
  2  4  1  0  0  0  0
  2  5  1  0  0  0  0
  5  6  2  0  0  0  0
  5  7  1  0  0  0  0
  7  8  1  0  0  0  0
  7  9  1  0  0  0  0
  9 10  1  0  0  0  0
  9 11  1  0  0  0  0
  9 20  1  0  0  0  0
 11 12  1  0  0  0  0
 11 13  1  0  0  0  0
 11 14  1  0  0  0  0
 14 15  1  0  0  0  0
 14 16  1  0  0  0  0
 14 17  1  0  0  0  0
 17 18  1  0  0  0  0
 17 19  2  0  0  0  0
 20 21  2  0  0  0  0
 20 22  1  0  0  0  0
 22 23  1  0  0  0  0
 22 24  1  0  0  0  0
 24 25  1  0  0  0  0
 24 26  1  0  0  0  0
 24 27  1  0  0  0  0
M  CHG  1  18  -1
M  END
$$$$

  -OEChem-01062216073D

 27 26  0     1  0  0  0  0  0999 V2000
   -3.3225   -2.8036    1.3560 H   0  0  0  0  0  0  0  0  0  0  0  0
   -3.0997   -1.9962    0.6528 C   0  0  0  0  0  0  0  0  0  0  0  0
   -3.9855   -1.3659    0.5440 H   0  0  0  0  0  0  0  0  0  0  0  0
   -2.8508   -2.4348   -0.3169 H   0  0  0  0  0  0  0  0  0  0  0  0
   -1.9306   -1.1693    1.1575 C   0  0  0  0  0  0  0  0  0  0  0  0
   -1.4842   -1.3663    2.2776 O   0  0  0  0  0  0  0  0  0  0  0  0
   -1.5175   -0.0682    0.4407 N   0  0  0  0  0  0  0  0  0  0  0  0
   -2.0498    0.1308   -0.4034 H   0  0  0  0  0  0  0  0  0  0  0  0
   -0.1741    0.5412    0.4770 C   0  0  1  0  0  0  0  0  0  0  0  0
    0.0608    0.8717    1.4929 H   0  0  0  0  0  0  0  0  0  0  0  0
    0.9452   -0.4102   -0.0429 C   0  0  0  0  0  0  0  0  0  0  0  0
    0.6790   -0.7298   -1.0569 H   0  0  0  0  0  0  0  0  0  0  0  0
    1.8851    0.1455   -0.1096 H   0  0  0  0  0  0  0  0  0  0  0  0
    1.2704   -1.6640    0.7818 C   0  0  0  0  0  0  0  0  0  0  0  0
    1.5911   -1.3840    1.7892 H   0  0  0  0  0  0  0  0  0  0  0  0
    0.4015   -2.3167    0.8677 H   0  0  0  0  0  0  0  0  0  0  0  0
    2.3747   -2.4529    0.0782 C   0  0  0  0  0  0  0  0  0  0  0  0
    3.5454   -2.0034    0.1697 O   0  5  0  0  0  0  0  0  0  0  0  0
    2.0405   -3.4426   -0.6194 O   0  0  0  0  0  0  0  0  0  0  0  0
   -0.1607    1.7675   -0.4803 C   0  0  0  0  0  0  0  0  0  0  0  0
   -1.2137    2.2253   -0.9188 O   0  0  0  0  0  0  0  0  0  0  0  0
    1.0194    2.3619   -0.8956 N   0  0  0  0  0  0  0  0  0  0  0  0
    1.8830    1.8945   -0.6291 H   0  0  0  0  0  0  0  0  0  0  0  0
    1.0822    3.4351   -1.8778 C   0  0  0  0  0  0  0  0  0  0  0  0
    0.5040    4.3003   -1.5377 H   0  0  0  0  0  0  0  0  0  0  0  0
    2.1199    3.7496   -2.0233 H   0  0  0  0  0  0  0  0  0  0  0  0
    0.6834    3.0975   -2.8398 H   0  0  0  0  0  0  0  0  0  0  0  0
  1  2  1  0  0  0  0
  2  3  1  0  0  0  0
  2  4  1  0  0  0  0
  2  5  1  0  0  0  0
  5  6  2  0  0  0  0
  5  7  1  0  0  0  0
  7  8  1  0  0  0  0
  7  9  1  0  0  0  0
  9 10  1  0  0  0  0
  9 11  1  0  0  0  0
  9 20  1  0  0  0  0
 11 12  1  0  0  0  0
 11 13  1  0  0  0  0
 11 14  1  0  0  0  0
 14 15  1  0  0  0  0
 14 16  1  0  0  0  0
 14 17  1  0  0  0  0
 17 18  1  0  0  0  0
 17 19  2  0  0  0  0
 20 21  2  0  0  0  0
 20 22  1  0  0  0  0
 22 23  1  0  0  0  0
 22 24  1  0  0  0  0
 24 25  1  0  0  0  0
 24 26  1  0  0  0  0
 24 27  1  0  0  0  0
M  CHG  1  18  -1
M  END
$$$$

  -OEChem-01062216073D

 27 26  0     1  0  0  0  0  0999 V2000
   -3.3611   -2.7538    1.3611 H   0  0  0  0  0  0  0  0  0  0  0  0
   -3.1056   -1.9706    0.6420 C   0  0  0  0  0  0  0  0  0  0  0  0
   -3.9728   -1.3205    0.5031 H   0  0  0  0  0  0  0  0  0  0  0  0
   -2.8526   -2.4395   -0.3123 H   0  0  0  0  0  0  0  0  0  0  0  0
   -1.9238   -1.1617    1.1455 C   0  0  0  0  0  0  0  0  0  0  0  0
   -1.4783   -1.3683    2.2640 O   0  0  0  0  0  0  0  0  0  0  0  0
   -1.5000   -0.0637    0.4300 N   0  0  0  0  0  0  0  0  0  0  0  0
   -2.0416    0.1507   -0.4036 H   0  0  0  0  0  0  0  0  0  0  0  0
   -0.1515    0.5359    0.4668 C   0  0  1  0  0  0  0  0  0  0  0  0
    0.0838    0.8711    1.4814 H   0  0  0  0  0  0  0  0  0  0  0  0
    0.9625   -0.4294   -0.0397 C   0  0  0  0  0  0  0  0  0  0  0  0
    0.7025   -0.7522   -1.0543 H   0  0  0  0  0  0  0  0  0  0  0  0
    1.9065    0.1210   -0.0952 H   0  0  0  0  0  0  0  0  0  0  0  0
    1.2793   -1.6804    0.7917 C   0  0  0  0  0  0  0  0  0  0  0  0
    1.6007   -1.3969    1.7979 H   0  0  0  0  0  0  0  0  0  0  0  0
    0.4071   -2.3285    0.8797 H   0  0  0  0  0  0  0  0  0  0  0  0
    2.3805   -2.4767    0.0912 C   0  0  0  0  0  0  0  0  0  0  0  0
    3.5518   -2.0270    0.1710 O   0  5  0  0  0  0  0  0  0  0  0  0
    2.0407   -3.4676   -0.6018 O   0  0  0  0  0  0  0  0  0  0  0  0
   -0.1416    1.7618   -0.4947 C   0  0  0  0  0  0  0  0  0  0  0  0
   -1.1874    2.3606   -0.7334 O   0  0  0  0  0  0  0  0  0  0  0  0
    0.9945    2.1830   -1.1671 N   0  0  0  0  0  0  0  0  0  0  0  0
    1.8319    1.6163   -1.0515 H   0  0  0  0  0  0  0  0  0  0  0  0
    1.0056    3.2513   -2.1564 C   0  0  0  0  0  0  0  0  0  0  0  0
    0.6550    4.1886   -1.7124 H   0  0  0  0  0  0  0  0  0  0  0  0
    2.0222    3.4057   -2.5298 H   0  0  0  0  0  0  0  0  0  0  0  0
    0.3599    2.9956   -3.0025 H   0  0  0  0  0  0  0  0  0  0  0  0
  1  2  1  0  0  0  0
  2  3  1  0  0  0  0
  2  4  1  0  0  0  0
  2  5  1  0  0  0  0
  5  6  2  0  0  0  0
  5  7  1  0  0  0  0
  7  8  1  0  0  0  0
  7  9  1  0  0  0  0
  9 10  1  0  0  0  0
  9 11  1  0  0  0  0
  9 20  1  0  0  0  0
 11 12  1  0  0  0  0
 11 13  1  0  0  0  0
 11 14  1  0  0  0  0
 14 15  1  0  0  0  0
 14 16  1  0  0  0  0
 14 17  1  0  0  0  0
 17 18  1  0  0  0  0
 17 19  2  0  0  0  0
 20 21  2  0  0  0  0
 20 22  1  0  0  0  0
 22 23  1  0  0  0  0
 22 24  1  0  0  0  0
 24 25  1  0  0  0  0
 24 26  1  0  0  0  0
 24 27  1  0  0  0  0
M  CHG  1  18  -1
M  END
$$$$

  -OEChem-01062216073D

 27 26  0     1  0  0  0  0  0999 V2000
   -3.3305   -2.7628    1.3628 H   0  0  0  0  0  0  0  0  0  0  0  0
   -3.1011   -1.9621    0.6541 C   0  0  0  0  0  0  0  0  0  0  0  0
   -3.9801   -1.3221    0.5455 H   0  0  0  0  0  0  0  0  0  0  0  0
   -2.8612   -2.4093   -0.3139 H   0  0  0  0  0  0  0  0  0  0  0  0
   -1.9203   -1.1462    1.1493 C   0  0  0  0  0  0  0  0  0  0  0  0
   -1.4699   -1.3475    2.2666 O   0  0  0  0  0  0  0  0  0  0  0  0
   -1.4974   -0.0557    0.4213 N   0  0  0  0  0  0  0  0  0  0  0  0
   -2.0421    0.1457   -0.4125 H   0  0  0  0  0  0  0  0  0  0  0  0
   -0.1443    0.5354    0.4468 C   0  0  1  0  0  0  0  0  0  0  0  0
    0.0950    0.8826    1.4565 H   0  0  0  0  0  0  0  0  0  0  0  0
    0.9669   -0.4396   -0.0456 C   0  0  0  0  0  0  0  0  0  0  0  0
    0.7041   -0.7782   -1.0544 H   0  0  0  0  0  0  0  0  0  0  0  0
    1.9109    0.1120   -0.1093 H   0  0  0  0  0  0  0  0  0  0  0  0
    1.2828   -1.6794    0.8012 C   0  0  0  0  0  0  0  0  0  0  0  0
    1.6020   -1.3849    1.8052 H   0  0  0  0  0  0  0  0  0  0  0  0
    0.4126   -2.3293    0.8948 H   0  0  0  0  0  0  0  0  0  0  0  0
    2.3813   -2.4820    0.1056 C   0  0  0  0  0  0  0  0  0  0  0  0
    3.5717   -2.2103    0.4011 O   0  5  0  0  0  0  0  0  0  0  0  0
    2.0332   -3.2716   -0.8081 O   0  0  0  0  0  0  0  0  0  0  0  0
   -0.1373    1.7524   -0.5248 C   0  0  0  0  0  0  0  0  0  0  0  0
   -1.1106    2.4988   -0.5664 O   0  0  0  0  0  0  0  0  0  0  0  0
    0.8811    1.9937   -1.4337 N   0  0  0  0  0  0  0  0  0  0  0  0
    1.6435    1.3198   -1.4578 H   0  0  0  0  0  0  0  0  0  0  0  0
    0.8611    3.0640   -2.4207 C   0  0  0  0  0  0  0  0  0  0  0  0
    0.7704    4.0380   -1.9290 H   0  0  0  0  0  0  0  0  0  0  0  0
    1.7890    3.0555   -3.0006 H   0  0  0  0  0  0  0  0  0  0  0  0
    0.0203    2.9336   -3.1096 H   0  0  0  0  0  0  0  0  0  0  0  0
  1  2  1  0  0  0  0
  2  3  1  0  0  0  0
  2  4  1  0  0  0  0
  2  5  1  0  0  0  0
  5  6  2  0  0  0  0
  5  7  1  0  0  0  0
  7  8  1  0  0  0  0
  7  9  1  0  0  0  0
  9 10  1  0  0  0  0
  9 11  1  0  0  0  0
  9 20  1  0  0  0  0
 11 12  1  0  0  0  0
 11 13  1  0  0  0  0
 11 14  1  0  0  0  0
 14 15  1  0  0  0  0
 14 16  1  0  0  0  0
 14 17  1  0  0  0  0
 17 18  1  0  0  0  0
 17 19  2  0  0  0  0
 20 21  2  0  0  0  0
 20 22  1  0  0  0  0
 22 23  1  0  0  0  0
 22 24  1  0  0  0  0
 24 25  1  0  0  0  0
 24 26  1  0  0  0  0
 24 27  1  0  0  0  0
M  CHG  1  18  -1
M  END
$$$$

  -OEChem-01062216073D

 27 26  0     1  0  0  0  0  0999 V2000
   -3.3901   -2.7929    1.1231 H   0  0  0  0  0  0  0  0  0  0  0  0
   -3.1654   -1.9349    0.4832 C   0  0  0  0  0  0  0  0  0  0  0  0
   -4.0436   -1.2865    0.4377 H   0  0  0  0  0  0  0  0  0  0  0  0
   -2.9352   -2.2985   -0.5215 H   0  0  0  0  0  0  0  0  0  0  0  0
   -1.9798   -1.1648    1.0366 C   0  0  0  0  0  0  0  0  0  0  0  0
   -1.5542   -1.4250    2.1504 O   0  0  0  0  0  0  0  0  0  0  0  0
   -1.5242   -0.0505    0.3666 N   0  0  0  0  0  0  0  0  0  0  0  0
   -2.0415    0.1868   -0.4742 H   0  0  0  0  0  0  0  0  0  0  0  0
   -0.1614    0.5108    0.4519 C   0  0  1  0  0  0  0  0  0  0  0  0
    0.0574    0.8090    1.4820 H   0  0  0  0  0  0  0  0  0  0  0  0
    0.9485   -0.4558   -0.0556 C   0  0  0  0  0  0  0  0  0  0  0  0
    0.6983   -0.7473   -1.0821 H   0  0  0  0  0  0  0  0  0  0  0  0
    1.8934    0.0988   -0.0781 H   0  0  0  0  0  0  0  0  0  0  0  0
    1.2396   -1.7472    0.7310 C   0  0  0  0  0  0  0  0  0  0  0  0
    1.5288   -1.4990    1.7560 H   0  0  0  0  0  0  0  0  0  0  0  0
    0.3509   -2.3772    0.7691 H   0  0  0  0  0  0  0  0  0  0  0  0
    2.3472   -2.5863    0.0734 C   0  0  0  0  0  0  0  0  0  0  0  0
    2.6377   -3.6773    0.6207 O   0  5  0  0  0  0  0  0  0  0  0  0
    2.8981   -2.1467   -0.9717 O   0  0  0  0  0  0  0  0  0  0  0  0
   -0.1042    1.7690   -0.4607 C   0  0  0  0  0  0  0  0  0  0  0  0
   -0.9350    2.6581   -0.3090 O   0  0  0  0  0  0  0  0  0  0  0  0
    0.7653    1.8890   -1.5336 N   0  0  0  0  0  0  0  0  0  0  0  0
    1.4218    1.1232   -1.6810 H   0  0  0  0  0  0  0  0  0  0  0  0
    0.7885    3.0214   -2.4480 C   0  0  0  0  0  0  0  0  0  0  0  0
    0.9684    3.9524   -1.9009 H   0  0  0  0  0  0  0  0  0  0  0  0
    1.5889    2.8919   -3.1824 H   0  0  0  0  0  0  0  0  0  0  0  0
   -0.1634    3.1013   -2.9825 H   0  0  0  0  0  0  0  0  0  0  0  0
  1  2  1  0  0  0  0
  2  3  1  0  0  0  0
  2  4  1  0  0  0  0
  2  5  1  0  0  0  0
  5  6  2  0  0  0  0
  5  7  1  0  0  0  0
  7  8  1  0  0  0  0
  7  9  1  0  0  0  0
  9 10  1  0  0  0  0
  9 11  1  0  0  0  0
  9 20  1  0  0  0  0
 11 12  1  0  0  0  0
 11 13  1  0  0  0  0
 11 14  1  0  0  0  0
 14 15  1  0  0  0  0
 14 16  1  0  0  0  0
 14 17  1  0  0  0  0
 17 18  1  0  0  0  0
 17 19  2  0  0  0  0
 20 21  2  0  0  0  0
 20 22  1  0  0  0  0
 22 23  1  0  0  0  0
 22 24  1  0  0  0  0
 24 25  1  0  0  0  0
 24 26  1  0  0  0  0
 24 27  1  0  0  0  0
M  CHG  1  18  -1
M  END
$$$$

  -OEChem-01062216073D

 27 26  0     1  0  0  0  0  0999 V2000
   -3.3609   -2.7692    1.2962 H   0  0  0  0  0  0  0  0  0  0  0  0
   -3.1084   -1.9838    0.5783 C   0  0  0  0  0  0  0  0  0  0  0  0
   -3.9888   -1.3580    0.4141 H   0  0  0  0  0  0  0  0  0  0  0  0
   -2.8196   -2.4522   -0.3662 H   0  0  0  0  0  0  0  0  0  0  0  0
   -1.9607   -1.1414    1.1059 C   0  0  0  0  0  0  0  0  0  0  0  0
   -1.5326   -1.3364    2.2326 O   0  0  0  0  0  0  0  0  0  0  0  0
   -1.5379   -0.0441    0.3872 N   0  0  0  0  0  0  0  0  0  0  0  0
   -2.0457    0.1101   -0.4780 H   0  0  0  0  0  0  0  0  0  0  0  0
   -0.1756    0.5245    0.4268 C   0  0  1  0  0  0  0  0  0  0  0  0
    0.0622    0.8535    1.4435 H   0  0  0  0  0  0  0  0  0  0  0  0
    0.9252   -0.4581   -0.0708 C   0  0  0  0  0  0  0  0  0  0  0  0
    0.6525   -0.7989   -1.0758 H   0  0  0  0  0  0  0  0  0  0  0  0
    1.8685    0.0949   -0.1472 H   0  0  0  0  0  0  0  0  0  0  0  0
    1.2220   -1.7126    0.7626 C   0  0  0  0  0  0  0  0  0  0  0  0
    1.5397   -1.4338    1.7717 H   0  0  0  0  0  0  0  0  0  0  0  0
    0.3431   -2.3523    0.8442 H   0  0  0  0  0  0  0  0  0  0  0  0
    2.3135   -2.5225    0.0639 C   0  0  0  0  0  0  0  0  0  0  0  0
    1.9747   -3.1884   -0.9477 O   0  5  0  0  0  0  0  0  0  0  0  0
    3.4941   -2.3898    0.4700 O   0  0  0  0  0  0  0  0  0  0  0  0
   -0.1349    1.7541   -0.5194 C   0  0  0  0  0  0  0  0  0  0  0  0
   -0.7713    2.7591   -0.2257 O   0  0  0  0  0  0  0  0  0  0  0  0
    0.4790    1.7256   -1.7616 N   0  0  0  0  0  0  0  0  0  0  0  0
    1.0214    0.8937   -1.9855 H   0  0  0  0  0  0  0  0  0  0  0  0
    0.5166    2.8572   -2.6767 C   0  0  0  0  0  0  0  0  0  0  0  0
    1.0151    3.7116   -2.2079 H   0  0  0  0  0  0  0  0  0  0  0  0
    1.0680    2.5881   -3.5825 H   0  0  0  0  0  0  0  0  0  0  0  0
   -0.4978    3.1520   -2.9639 H   0  0  0  0  0  0  0  0  0  0  0  0
  1  2  1  0  0  0  0
  2  3  1  0  0  0  0
  2  4  1  0  0  0  0
  2  5  1  0  0  0  0
  5  6  2  0  0  0  0
  5  7  1  0  0  0  0
  7  8  1  0  0  0  0
  7  9  1  0  0  0  0
  9 10  1  0  0  0  0
  9 11  1  0  0  0  0
  9 20  1  0  0  0  0
 11 12  1  0  0  0  0
 11 13  1  0  0  0  0
 11 14  1  0  0  0  0
 14 15  1  0  0  0  0
 14 16  1  0  0  0  0
 14 17  1  0  0  0  0
 17 18  1  0  0  0  0
 17 19  2  0  0  0  0
 20 21  2  0  0  0  0
 20 22  1  0  0  0  0
 22 23  1  0  0  0  0
 22 24  1  0  0  0  0
 24 25  1  0  0  0  0
 24 26  1  0  0  0  0
 24 27  1  0  0  0  0
M  CHG  1  18  -1
M  END
$$$$

  -OEChem-01062216073D

 27 26  0     1  0  0  0  0  0999 V2000
   -3.3531   -2.7785    1.3349 H   0  0  0  0  0  0  0  0  0  0  0  0
   -3.1050   -2.0018    0.6061 C   0  0  0  0  0  0  0  0  0  0  0  0
   -3.9899   -1.3851    0.4316 H   0  0  0  0  0  0  0  0  0  0  0  0
   -2.8115   -2.4817   -0.3310 H   0  0  0  0  0  0  0  0  0  0  0  0
   -1.9647   -1.1431    1.1233 C   0  0  0  0  0  0  0  0  0  0  0  0
   -1.5292   -1.3259    2.2489 O   0  0  0  0  0  0  0  0  0  0  0  0
   -1.5574   -0.0471    0.3933 N   0  0  0  0  0  0  0  0  0  0  0  0
   -2.0602    0.0770   -0.4794 H   0  0  0  0  0  0  0  0  0  0  0  0
   -0.1978    0.5295    0.4220 C   0  0  1  0  0  0  0  0  0  0  0  0
    0.0471    0.8617    1.4363 H   0  0  0  0  0  0  0  0  0  0  0  0
    0.9051   -0.4440   -0.0862 C   0  0  0  0  0  0  0  0  0  0  0  0
    0.6241   -0.7923   -1.0857 H   0  0  0  0  0  0  0  0  0  0  0  0
    1.8414    0.1185   -0.1791 H   0  0  0  0  0  0  0  0  0  0  0  0
    1.2150   -1.6966    0.7458 C   0  0  0  0  0  0  0  0  0  0  0  0
    1.5359   -1.4138    1.7528 H   0  0  0  0  0  0  0  0  0  0  0  0
    0.3396   -2.3403    0.8327 H   0  0  0  0  0  0  0  0  0  0  0  0
    2.3059   -2.5051    0.0434 C   0  0  0  0  0  0  0  0  0  0  0  0
    1.9819   -3.1001   -1.0168 O   0  5  0  0  0  0  0  0  0  0  0  0
    3.4705   -2.4576    0.5093 O   0  0  0  0  0  0  0  0  0  0  0  0
   -0.1624    1.7522   -0.5281 C   0  0  0  0  0  0  0  0  0  0  0  0
   -0.5644    2.8386   -0.1304 O   0  0  0  0  0  0  0  0  0  0  0  0
    0.1702    1.6344   -1.8682 N   0  0  0  0  0  0  0  0  0  0  0  0
    0.5793    0.7482   -2.1566 H   0  0  0  0  0  0  0  0  0  0  0  0
    0.2359    2.7645   -2.7838 C   0  0  0  0  0  0  0  0  0  0  0  0
    0.9872    3.4861   -2.4471 H   0  0  0  0  0  0  0  0  0  0  0  0
    0.5097    2.4198   -3.7854 H   0  0  0  0  0  0  0  0  0  0  0  0
   -0.7356    3.2656   -2.8453 H   0  0  0  0  0  0  0  0  0  0  0  0
  1  2  1  0  0  0  0
  2  3  1  0  0  0  0
  2  4  1  0  0  0  0
  2  5  1  0  0  0  0
  5  6  2  0  0  0  0
  5  7  1  0  0  0  0
  7  8  1  0  0  0  0
  7  9  1  0  0  0  0
  9 10  1  0  0  0  0
  9 11  1  0  0  0  0
  9 20  1  0  0  0  0
 11 12  1  0  0  0  0
 11 13  1  0  0  0  0
 11 14  1  0  0  0  0
 14 15  1  0  0  0  0
 14 16  1  0  0  0  0
 14 17  1  0  0  0  0
 17 18  1  0  0  0  0
 17 19  2  0  0  0  0
 20 21  2  0  0  0  0
 20 22  1  0  0  0  0
 22 23  1  0  0  0  0
 22 24  1  0  0  0  0
 24 25  1  0  0  0  0
 24 26  1  0  0  0  0
 24 27  1  0  0  0  0
M  CHG  1  18  -1
M  END
$$$$

  -OEChem-01062216073D

 27 26  0     1  0  0  0  0  0999 V2000
   -3.2967   -2.8277    1.3389 H   0  0  0  0  0  0  0  0  0  0  0  0
   -3.0907   -2.0256    0.6244 C   0  0  0  0  0  0  0  0  0  0  0  0
   -3.9999   -1.4368    0.4814 H   0  0  0  0  0  0  0  0  0  0  0  0
   -2.7991   -2.4736   -0.3290 H   0  0  0  0  0  0  0  0  0  0  0  0
   -1.9712   -1.1396    1.1411 C   0  0  0  0  0  0  0  0  0  0  0  0
   -1.5373   -1.3055    2.2698 O   0  0  0  0  0  0  0  0  0  0  0  0
   -1.5768   -0.0429    0.4047 N   0  0  0  0  0  0  0  0  0  0  0  0
   -2.0721    0.0609   -0.4747 H   0  0  0  0  0  0  0  0  0  0  0  0
   -0.2198    0.5407    0.4345 C   0  0  1  0  0  0  0  0  0  0  0  0
    0.0297    0.8685    1.4494 H   0  0  0  0  0  0  0  0  0  0  0  0
    0.8825   -0.4227   -0.0925 C   0  0  0  0  0  0  0  0  0  0  0  0
    0.6024   -0.7589   -1.0961 H   0  0  0  0  0  0  0  0  0  0  0  0
    1.8163    0.1444   -0.1822 H   0  0  0  0  0  0  0  0  0  0  0  0
    1.1959   -1.6837    0.7264 C   0  0  0  0  0  0  0  0  0  0  0  0
    1.5209   -1.4090    1.7342 H   0  0  0  0  0  0  0  0  0  0  0  0
    0.3204   -2.3274    0.8120 H   0  0  0  0  0  0  0  0  0  0  0  0
    2.2840   -2.4882    0.0152 C   0  0  0  0  0  0  0  0  0  0  0  0
    1.9551   -3.0717   -1.0499 O   0  5  0  0  0  0  0  0  0  0  0  0
    3.4473   -2.4603    0.4857 O   0  0  0  0  0  0  0  0  0  0  0  0
   -0.1844    1.7591   -0.5165 C   0  0  0  0  0  0  0  0  0  0  0  0
   -0.3238    2.8899   -0.0682 O   0  0  0  0  0  0  0  0  0  0  0  0
   -0.1499    1.5952   -1.8918 N   0  0  0  0  0  0  0  0  0  0  0  0
    0.1004    0.6667   -2.2238 H   0  0  0  0  0  0  0  0  0  0  0  0
   -0.0668    2.7097   -2.8252 C   0  0  0  0  0  0  0  0  0  0  0  0
    0.8592    3.2721   -2.6675 H   0  0  0  0  0  0  0  0  0  0  0  0
   -0.0773    2.3382   -3.8542 H   0  0  0  0  0  0  0  0  0  0  0  0
   -0.9185    3.3851   -2.6946 H   0  0  0  0  0  0  0  0  0  0  0  0
  1  2  1  0  0  0  0
  2  3  1  0  0  0  0
  2  4  1  0  0  0  0
  2  5  1  0  0  0  0
  5  6  2  0  0  0  0
  5  7  1  0  0  0  0
  7  8  1  0  0  0  0
  7  9  1  0  0  0  0
  9 10  1  0  0  0  0
  9 11  1  0  0  0  0
  9 20  1  0  0  0  0
 11 12  1  0  0  0  0
 11 13  1  0  0  0  0
 11 14  1  0  0  0  0
 14 15  1  0  0  0  0
 14 16  1  0  0  0  0
 14 17  1  0  0  0  0
 17 18  1  0  0  0  0
 17 19  2  0  0  0  0
 20 21  2  0  0  0  0
 20 22  1  0  0  0  0
 22 23  1  0  0  0  0
 22 24  1  0  0  0  0
 24 25  1  0  0  0  0
 24 26  1  0  0  0  0
 24 27  1  0  0  0  0
M  CHG  1  18  -1
M  END
$$$$

  -OEChem-01062216073D

 27 26  0     1  0  0  0  0  0999 V2000
   -3.2987   -2.8341    1.3521 H   0  0  0  0  0  0  0  0  0  0  0  0
   -3.0987   -2.0279    0.6407 C   0  0  0  0  0  0  0  0  0  0  0  0
   -4.0094   -1.4389    0.5077 H   0  0  0  0  0  0  0  0  0  0  0  0
   -2.8134   -2.4703   -0.3173 H   0  0  0  0  0  0  0  0  0  0  0  0
   -1.9761   -1.1443    1.1545 C   0  0  0  0  0  0  0  0  0  0  0  0
   -1.5364   -1.3138    2.2802 O   0  0  0  0  0  0  0  0  0  0  0  0
   -1.5842   -0.0464    0.4182 N   0  0  0  0  0  0  0  0  0  0  0  0
   -2.0810    0.0608   -0.4598 H   0  0  0  0  0  0  0  0  0  0  0  0
   -0.2308    0.5466    0.4575 C   0  0  1  0  0  0  0  0  0  0  0  0
    0.0196    0.8681    1.4742 H   0  0  0  0  0  0  0  0  0  0  0  0
    0.8724   -0.4013   -0.0915 C   0  0  0  0  0  0  0  0  0  0  0  0
    0.5951   -0.7138   -1.1036 H   0  0  0  0  0  0  0  0  0  0  0  0
    1.8050    0.1697   -0.1693 H   0  0  0  0  0  0  0  0  0  0  0  0
    1.1878   -1.6759    0.7060 C   0  0  0  0  0  0  0  0  0  0  0  0
    1.5121   -1.4169    1.7184 H   0  0  0  0  0  0  0  0  0  0  0  0
    0.3122   -2.3211    0.7815 H   0  0  0  0  0  0  0  0  0  0  0  0
    2.2761   -2.4710   -0.0158 C   0  0  0  0  0  0  0  0  0  0  0  0
    1.9521   -3.0221   -1.0997 O   0  5  0  0  0  0  0  0  0  0  0  0
    3.4314   -2.4815    0.4746 O   0  0  0  0  0  0  0  0  0  0  0  0
   -0.1944    1.7612   -0.4939 C   0  0  0  0  0  0  0  0  0  0  0  0
   -0.0778    2.8950   -0.0472 O   0  0  0  0  0  0  0  0  0  0  0  0
   -0.4570    1.5987   -1.8447 N   0  0  0  0  0  0  0  0  0  0  0  0
   -0.3628    0.6502   -2.1989 H   0  0  0  0  0  0  0  0  0  0  0  0
   -0.3898    2.6983   -2.7968 C   0  0  0  0  0  0  0  0  0  0  0  0
    0.6216    3.1167   -2.8262 H   0  0  0  0  0  0  0  0  0  0  0  0
   -0.6496    2.3437   -3.7986 H   0  0  0  0  0  0  0  0  0  0  0  0
   -1.0930    3.4903   -2.5192 H   0  0  0  0  0  0  0  0  0  0  0  0
  1  2  1  0  0  0  0
  2  3  1  0  0  0  0
  2  4  1  0  0  0  0
  2  5  1  0  0  0  0
  5  6  2  0  0  0  0
  5  7  1  0  0  0  0
  7  8  1  0  0  0  0
  7  9  1  0  0  0  0
  9 10  1  0  0  0  0
  9 11  1  0  0  0  0
  9 20  1  0  0  0  0
 11 12  1  0  0  0  0
 11 13  1  0  0  0  0
 11 14  1  0  0  0  0
 14 15  1  0  0  0  0
 14 16  1  0  0  0  0
 14 17  1  0  0  0  0
 17 18  1  0  0  0  0
 17 19  2  0  0  0  0
 20 21  2  0  0  0  0
 20 22  1  0  0  0  0
 22 23  1  0  0  0  0
 22 24  1  0  0  0  0
 24 25  1  0  0  0  0
 24 26  1  0  0  0  0
 24 27  1  0  0  0  0
M  CHG  1  18  -1
M  END
$$$$

  -OEChem-01062216073D

 27 26  0     1  0  0  0  0  0999 V2000
   -3.2891   -2.8526    1.3720 H   0  0  0  0  0  0  0  0  0  0  0  0
   -3.0967   -2.0433    0.6619 C   0  0  0  0  0  0  0  0  0  0  0  0
   -4.0122   -1.4613    0.5319 H   0  0  0  0  0  0  0  0  0  0  0  0
   -2.8101   -2.4819   -0.2974 H   0  0  0  0  0  0  0  0  0  0  0  0
   -1.9795   -1.1521    1.1746 C   0  0  0  0  0  0  0  0  0  0  0  0
   -1.5385   -1.3169    2.3004 O   0  0  0  0  0  0  0  0  0  0  0  0
   -1.5920   -0.0551    0.4340 N   0  0  0  0  0  0  0  0  0  0  0  0
   -2.0941    0.0532   -0.4401 H   0  0  0  0  0  0  0  0  0  0  0  0
   -0.2439    0.5530    0.4793 C   0  0  1  0  0  0  0  0  0  0  0  0
    0.0085    0.8710    1.4967 H   0  0  0  0  0  0  0  0  0  0  0  0
    0.8563   -0.3867   -0.0879 C   0  0  0  0  0  0  0  0  0  0  0  0
    0.5757   -0.6795   -1.1054 H   0  0  0  0  0  0  0  0  0  0  0  0
    1.7900    0.1836   -0.1599 H   0  0  0  0  0  0  0  0  0  0  0  0
    1.1743   -1.6705    0.6949 C   0  0  0  0  0  0  0  0  0  0  0  0
    1.5028   -1.4212    1.7084 H   0  0  0  0  0  0  0  0  0  0  0  0
    0.2982   -2.3148    0.7683 H   0  0  0  0  0  0  0  0  0  0  0  0
    2.2581   -2.4636   -0.0351 C   0  0  0  0  0  0  0  0  0  0  0  0
    1.9251   -3.0178   -1.1149 O   0  5  0  0  0  0  0  0  0  0  0  0
    3.4157   -2.4788    0.4499 O   0  0  0  0  0  0  0  0  0  0  0  0
   -0.1973    1.7636   -0.4764 C   0  0  0  0  0  0  0  0  0  0  0  0
    0.1665    2.8604   -0.0724 O   0  0  0  0  0  0  0  0  0  0  0  0
   -0.7339    1.6626   -1.7505 N   0  0  0  0  0  0  0  0  0  0  0  0
   -0.8056    0.7176   -2.1163 H   0  0  0  0  0  0  0  0  0  0  0  0
   -0.6865    2.7608   -2.7057 C   0  0  0  0  0  0  0  0  0  0  0  0
    0.3513    3.0297   -2.9279 H   0  0  0  0  0  0  0  0  0  0  0  0
   -1.1781    2.4685   -3.6383 H   0  0  0  0  0  0  0  0  0  0  0  0
   -1.2025    3.6399   -2.3060 H   0  0  0  0  0  0  0  0  0  0  0  0
  1  2  1  0  0  0  0
  2  3  1  0  0  0  0
  2  4  1  0  0  0  0
  2  5  1  0  0  0  0
  5  6  2  0  0  0  0
  5  7  1  0  0  0  0
  7  8  1  0  0  0  0
  7  9  1  0  0  0  0
  9 10  1  0  0  0  0
  9 11  1  0  0  0  0
  9 20  1  0  0  0  0
 11 12  1  0  0  0  0
 11 13  1  0  0  0  0
 11 14  1  0  0  0  0
 14 15  1  0  0  0  0
 14 16  1  0  0  0  0
 14 17  1  0  0  0  0
 17 18  1  0  0  0  0
 17 19  2  0  0  0  0
 20 21  2  0  0  0  0
 20 22  1  0  0  0  0
 22 23  1  0  0  0  0
 22 24  1  0  0  0  0
 24 25  1  0  0  0  0
 24 26  1  0  0  0  0
 24 27  1  0  0  0  0
M  CHG  1  18  -1
M  END
$$$$

  -OEChem-01062216073D

 27 26  0     1  0  0  0  0  0999 V2000
   -3.2139   -2.9156    1.3936 H   0  0  0  0  0  0  0  0  0  0  0  0
   -3.0630   -2.0910    0.6911 C   0  0  0  0  0  0  0  0  0  0  0  0
   -4.0027   -1.5454    0.5773 H   0  0  0  0  0  0  0  0  0  0  0  0
   -2.7690   -2.5066   -0.2761 H   0  0  0  0  0  0  0  0  0  0  0  0
   -1.9783   -1.1602    1.2029 C   0  0  0  0  0  0  0  0  0  0  0  0
   -1.5507   -1.2886    2.3387 O   0  0  0  0  0  0  0  0  0  0  0  0
   -1.6100   -0.0664    0.4479 N   0  0  0  0  0  0  0  0  0  0  0  0
   -2.1015    0.0026   -0.4346 H   0  0  0  0  0  0  0  0  0  0  0  0
   -0.2680    0.5591    0.4898 C   0  0  1  0  0  0  0  0  0  0  0  0
   -0.0143    0.8775    1.5066 H   0  0  0  0  0  0  0  0  0  0  0  0
    0.8268   -0.3837   -0.0833 C   0  0  0  0  0  0  0  0  0  0  0  0
    0.5371   -0.6739   -1.0995 H   0  0  0  0  0  0  0  0  0  0  0  0
    1.7614    0.1842   -0.1627 H   0  0  0  0  0  0  0  0  0  0  0  0
    1.1519   -1.6674    0.6990 C   0  0  0  0  0  0  0  0  0  0  0  0
    1.4900   -1.4166    1.7088 H   0  0  0  0  0  0  0  0  0  0  0  0
    0.2780   -2.3132    0.7822 H   0  0  0  0  0  0  0  0  0  0  0  0
    2.2288   -2.4633   -0.0382 C   0  0  0  0  0  0  0  0  0  0  0  0
    1.8807   -3.0319   -1.1054 O   0  5  0  0  0  0  0  0  0  0  0  0
    3.3918   -2.4773    0.4338 O   0  0  0  0  0  0  0  0  0  0  0  0
   -0.2026    1.7673   -0.4714 C   0  0  0  0  0  0  0  0  0  0  0  0
    0.3970    2.7829   -0.1439 O   0  0  0  0  0  0  0  0  0  0  0  0
   -0.9714    1.7950   -1.6252 N   0  0  0  0  0  0  0  0  0  0  0  0
   -1.2441    0.8881   -1.9873 H   0  0  0  0  0  0  0  0  0  0  0  0
   -0.9322    2.9121   -2.5592 C   0  0  0  0  0  0  0  0  0  0  0  0
    0.0770    3.0359   -2.9657 H   0  0  0  0  0  0  0  0  0  0  0  0
   -1.6226    2.7326   -3.3887 H   0  0  0  0  0  0  0  0  0  0  0  0
   -1.2290    3.8404   -2.0601 H   0  0  0  0  0  0  0  0  0  0  0  0
  1  2  1  0  0  0  0
  2  3  1  0  0  0  0
  2  4  1  0  0  0  0
  2  5  1  0  0  0  0
  5  6  2  0  0  0  0
  5  7  1  0  0  0  0
  7  8  1  0  0  0  0
  7  9  1  0  0  0  0
  9 10  1  0  0  0  0
  9 11  1  0  0  0  0
  9 20  1  0  0  0  0
 11 12  1  0  0  0  0
 11 13  1  0  0  0  0
 11 14  1  0  0  0  0
 14 15  1  0  0  0  0
 14 16  1  0  0  0  0
 14 17  1  0  0  0  0
 17 18  1  0  0  0  0
 17 19  2  0  0  0  0
 20 21  2  0  0  0  0
 20 22  1  0  0  0  0
 22 23  1  0  0  0  0
 22 24  1  0  0  0  0
 24 25  1  0  0  0  0
 24 26  1  0  0  0  0
 24 27  1  0  0  0  0
M  CHG  1  18  -1
M  END
$$$$

  -OEChem-01062216073D

 27 26  0     1  0  0  0  0  0999 V2000
   -3.0803   -2.9708    1.4407 H   0  0  0  0  0  0  0  0  0  0  0  0
   -2.9210   -2.1897    0.6920 C   0  0  0  0  0  0  0  0  0  0  0  0
   -3.8829   -1.7354    0.4439 H   0  0  0  0  0  0  0  0  0  0  0  0
   -2.4977   -2.6484   -0.2056 H   0  0  0  0  0  0  0  0  0  0  0  0
   -1.9684   -1.1371    1.2298 C   0  0  0  0  0  0  0  0  0  0  0  0
   -1.6134   -1.1693    2.3970 O   0  0  0  0  0  0  0  0  0  0  0  0
   -1.6416   -0.0476    0.4500 N   0  0  0  0  0  0  0  0  0  0  0  0
   -2.0318   -0.1412   -0.4788 H   0  0  0  0  0  0  0  0  0  0  0  0
   -0.2939    0.5709    0.4758 C   0  0  1  0  0  0  0  0  0  0  0  0
   -0.0314    0.8902    1.4900 H   0  0  0  0  0  0  0  0  0  0  0  0
    0.7853   -0.3998   -0.0866 C   0  0  0  0  0  0  0  0  0  0  0  0
    0.4845   -0.7015   -1.0962 H   0  0  0  0  0  0  0  0  0  0  0  0
    1.7288    0.1504   -0.1818 H   0  0  0  0  0  0  0  0  0  0  0  0
    1.0998   -1.6742    0.7188 C   0  0  0  0  0  0  0  0  0  0  0  0
    1.4493   -1.4053    1.7201 H   0  0  0  0  0  0  0  0  0  0  0  0
    0.2223   -2.3102    0.8251 H   0  0  0  0  0  0  0  0  0  0  0  0
    2.1599   -2.5027   -0.0062 C   0  0  0  0  0  0  0  0  0  0  0  0
    1.7889   -3.1115   -1.0431 O   0  5  0  0  0  0  0  0  0  0  0  0
    3.3272   -2.5192    0.4552 O   0  0  0  0  0  0  0  0  0  0  0  0
   -0.2060    1.7845   -0.4835 C   0  0  0  0  0  0  0  0  0  0  0  0
    0.6655    2.6305   -0.3311 O   0  0  0  0  0  0  0  0  0  0  0  0
   -1.1615    2.0126   -1.4621 N   0  0  0  0  0  0  0  0  0  0  0  0
   -1.8875    1.3190   -1.5793 H   0  0  0  0  0  0  0  0  0  0  0  0
   -1.1288    3.1547   -2.3655 C   0  0  0  0  0  0  0  0  0  0  0  0
   -0.2149    3.1394   -2.9681 H   0  0  0  0  0  0  0  0  0  0  0  0
   -1.9891    3.1252   -3.0404 H   0  0  0  0  0  0  0  0  0  0  0  0
   -1.1652    4.0914   -1.7999 H   0  0  0  0  0  0  0  0  0  0  0  0
  1  2  1  0  0  0  0
  2  3  1  0  0  0  0
  2  4  1  0  0  0  0
  2  5  1  0  0  0  0
  5  6  2  0  0  0  0
  5  7  1  0  0  0  0
  7  8  1  0  0  0  0
  7  9  1  0  0  0  0
  9 10  1  0  0  0  0
  9 11  1  0  0  0  0
  9 20  1  0  0  0  0
 11 12  1  0  0  0  0
 11 13  1  0  0  0  0
 11 14  1  0  0  0  0
 14 15  1  0  0  0  0
 14 16  1  0  0  0  0
 14 17  1  0  0  0  0
 17 18  1  0  0  0  0
 17 19  2  0  0  0  0
 20 21  2  0  0  0  0
 20 22  1  0  0  0  0
 22 23  1  0  0  0  0
 22 24  1  0  0  0  0
 24 25  1  0  0  0  0
 24 26  1  0  0  0  0
 24 27  1  0  0  0  0
M  CHG  1  18  -1
M  END
$$$$

  -OEChem-01062216073D

 27 26  0     1  0  0  0  0  0999 V2000
   -3.0571   -2.9576    1.4013 H   0  0  0  0  0  0  0  0  0  0  0  0
   -2.8833   -2.1843    0.6477 C   0  0  0  0  0  0  0  0  0  0  0  0
   -3.8419   -1.7428    0.3652 H   0  0  0  0  0  0  0  0  0  0  0  0
   -2.4288   -2.6499   -0.2309 H   0  0  0  0  0  0  0  0  0  0  0  0
   -1.9564   -1.1161    1.1995 C   0  0  0  0  0  0  0  0  0  0  0  0
   -1.6409   -1.1226    2.3785 O   0  0  0  0  0  0  0  0  0  0  0  0
   -1.6173   -0.0308    0.4200 N   0  0  0  0  0  0  0  0  0  0  0  0
   -1.9731   -0.1512   -0.5225 H   0  0  0  0  0  0  0  0  0  0  0  0
   -0.2591    0.5652    0.4436 C   0  0  1  0  0  0  0  0  0  0  0  0
    0.0026    0.8954    1.4542 H   0  0  0  0  0  0  0  0  0  0  0  0
    0.8149   -0.4287   -0.0932 C   0  0  0  0  0  0  0  0  0  0  0  0
    0.5199   -0.7438   -1.1003 H   0  0  0  0  0  0  0  0  0  0  0  0
    1.7676    0.1046   -0.1888 H   0  0  0  0  0  0  0  0  0  0  0  0
    1.1043   -1.6916    0.7410 C   0  0  0  0  0  0  0  0  0  0  0  0
    1.4450   -1.4070    1.7408 H   0  0  0  0  0  0  0  0  0  0  0  0
    0.2178   -2.3146    0.8494 H   0  0  0  0  0  0  0  0  0  0  0  0
    2.1607   -2.5518    0.0483 C   0  0  0  0  0  0  0  0  0  0  0  0
    1.7918   -3.1886   -0.9721 O   0  5  0  0  0  0  0  0  0  0  0  0
    3.3217   -2.5733    0.5254 O   0  0  0  0  0  0  0  0  0  0  0  0
   -0.1906    1.7757   -0.5237 C   0  0  0  0  0  0  0  0  0  0  0  0
    0.8126    2.4718   -0.6096 O   0  0  0  0  0  0  0  0  0  0  0  0
   -1.3053    2.1551   -1.2551 N   0  0  0  0  0  0  0  0  0  0  0  0
   -2.1815    1.7281   -0.9783 H   0  0  0  0  0  0  0  0  0  0  0  0
   -1.3469    3.3548   -2.0803 C   0  0  0  0  0  0  0  0  0  0  0  0
   -0.5555    3.3267   -2.8366 H   0  0  0  0  0  0  0  0  0  0  0  0
   -2.3103    3.4240   -2.5940 H   0  0  0  0  0  0  0  0  0  0  0  0
   -1.2156    4.2494   -1.4630 H   0  0  0  0  0  0  0  0  0  0  0  0
  1  2  1  0  0  0  0
  2  3  1  0  0  0  0
  2  4  1  0  0  0  0
  2  5  1  0  0  0  0
  5  6  2  0  0  0  0
  5  7  1  0  0  0  0
  7  8  1  0  0  0  0
  7  9  1  0  0  0  0
  9 10  1  0  0  0  0
  9 11  1  0  0  0  0
  9 20  1  0  0  0  0
 11 12  1  0  0  0  0
 11 13  1  0  0  0  0
 11 14  1  0  0  0  0
 14 15  1  0  0  0  0
 14 16  1  0  0  0  0
 14 17  1  0  0  0  0
 17 18  1  0  0  0  0
 17 19  2  0  0  0  0
 20 21  2  0  0  0  0
 20 22  1  0  0  0  0
 22 23  1  0  0  0  0
 22 24  1  0  0  0  0
 24 25  1  0  0  0  0
 24 26  1  0  0  0  0
 24 27  1  0  0  0  0
M  CHG  1  18  -1
M  END
$$$$

  -OEChem-01062216073D

 27 26  0     1  0  0  0  0  0999 V2000
   -3.0694   -2.9476    1.3541 H   0  0  0  0  0  0  0  0  0  0  0  0
   -2.8901   -2.1658    0.6106 C   0  0  0  0  0  0  0  0  0  0  0  0
   -3.8445   -1.7080    0.3403 H   0  0  0  0  0  0  0  0  0  0  0  0
   -2.4474   -2.6249   -0.2776 H   0  0  0  0  0  0  0  0  0  0  0  0
   -1.9465   -1.1178    1.1727 C   0  0  0  0  0  0  0  0  0  0  0  0
   -1.6407   -1.1333    2.3542 O   0  0  0  0  0  0  0  0  0  0  0  0
   -1.5944   -0.0267    0.4080 N   0  0  0  0  0  0  0  0  0  0  0  0
   -1.9645   -0.1140   -0.5337 H   0  0  0  0  0  0  0  0  0  0  0  0
   -0.2312    0.5587    0.4299 C   0  0  1  0  0  0  0  0  0  0  0  0
    0.0305    0.8899    1.4400 H   0  0  0  0  0  0  0  0  0  0  0  0
    0.8428   -0.4430   -0.0951 C   0  0  0  0  0  0  0  0  0  0  0  0
    0.5534   -0.7649   -1.1015 H   0  0  0  0  0  0  0  0  0  0  0  0
    1.7992    0.0838   -0.1873 H   0  0  0  0  0  0  0  0  0  0  0  0
    1.1211   -1.6988    0.7534 C   0  0  0  0  0  0  0  0  0  0  0  0
    1.4560   -1.4061    1.7529 H   0  0  0  0  0  0  0  0  0  0  0  0
    0.2310   -2.3162    0.8616 H   0  0  0  0  0  0  0  0  0  0  0  0
    2.1774   -2.5727    0.0782 C   0  0  0  0  0  0  0  0  0  0  0  0
    1.8063   -3.2418   -0.9204 O   0  5  0  0  0  0  0  0  0  0  0  0
    3.3409   -2.5745    0.5499 O   0  0  0  0  0  0  0  0  0  0  0  0
   -0.1911    1.7768   -0.5328 C   0  0  0  0  0  0  0  0  0  0  0  0
    0.8490    2.3385   -0.8504 O   0  0  0  0  0  0  0  0  0  0  0  0
   -1.3807    2.3252   -0.9852 N   0  0  0  0  0  0  0  0  0  0  0  0
   -2.2207    1.9861   -0.5275 H   0  0  0  0  0  0  0  0  0  0  0  0
   -1.4547    3.5549   -1.7624 C   0  0  0  0  0  0  0  0  0  0  0  0
   -0.8692    3.4627   -2.6830 H   0  0  0  0  0  0  0  0  0  0  0  0
   -2.4932    3.7638   -2.0354 H   0  0  0  0  0  0  0  0  0  0  0  0
   -1.0704    4.3992   -1.1811 H   0  0  0  0  0  0  0  0  0  0  0  0
  1  2  1  0  0  0  0
  2  3  1  0  0  0  0
  2  4  1  0  0  0  0
  2  5  1  0  0  0  0
  5  6  2  0  0  0  0
  5  7  1  0  0  0  0
  7  8  1  0  0  0  0
  7  9  1  0  0  0  0
  9 10  1  0  0  0  0
  9 11  1  0  0  0  0
  9 20  1  0  0  0  0
 11 12  1  0  0  0  0
 11 13  1  0  0  0  0
 11 14  1  0  0  0  0
 14 15  1  0  0  0  0
 14 16  1  0  0  0  0
 14 17  1  0  0  0  0
 17 18  1  0  0  0  0
 17 19  2  0  0  0  0
 20 21  2  0  0  0  0
 20 22  1  0  0  0  0
 22 23  1  0  0  0  0
 22 24  1  0  0  0  0
 24 25  1  0  0  0  0
 24 26  1  0  0  0  0
 24 27  1  0  0  0  0
M  CHG  1  18  -1
M  END
$$$$

  -OEChem-01062216073D

 27 26  0     1  0  0  0  0  0999 V2000
   -3.0865   -2.9387    1.3093 H   0  0  0  0  0  0  0  0  0  0  0  0
   -2.9007   -2.1488    0.5759 C   0  0  0  0  0  0  0  0  0  0  0  0
   -3.8503   -1.6754    0.3157 H   0  0  0  0  0  0  0  0  0  0  0  0
   -2.4666   -2.6010   -0.3199 H   0  0  0  0  0  0  0  0  0  0  0  0
   -1.9420   -1.1200    1.1482 C   0  0  0  0  0  0  0  0  0  0  0  0
   -1.6362   -1.1515    2.3296 O   0  0  0  0  0  0  0  0  0  0  0  0
   -1.5811   -0.0199    0.4011 N   0  0  0  0  0  0  0  0  0  0  0  0
   -1.9704   -0.0693   -0.5361 H   0  0  0  0  0  0  0  0  0  0  0  0
   -0.2129    0.5520    0.4210 C   0  0  1  0  0  0  0  0  0  0  0  0
    0.0493    0.8787    1.4322 H   0  0  0  0  0  0  0  0  0  0  0  0
    0.8639   -0.4514   -0.0954 C   0  0  0  0  0  0  0  0  0  0  0  0
    0.5797   -0.7768   -1.1020 H   0  0  0  0  0  0  0  0  0  0  0  0
    1.8209    0.0748   -0.1831 H   0  0  0  0  0  0  0  0  0  0  0  0
    1.1356   -1.7024    0.7622 C   0  0  0  0  0  0  0  0  0  0  0  0
    1.4641   -1.4044    1.7622 H   0  0  0  0  0  0  0  0  0  0  0  0
    0.2433   -2.3169    0.8686 H   0  0  0  0  0  0  0  0  0  0  0  0
    2.1949   -2.5836    0.1015 C   0  0  0  0  0  0  0  0  0  0  0  0
    1.8202   -3.2987   -0.8631 O   0  5  0  0  0  0  0  0  0  0  0  0
    3.3665   -2.5443    0.5520 O   0  0  0  0  0  0  0  0  0  0  0  0
   -0.1953    1.7822   -0.5277 C   0  0  0  0  0  0  0  0  0  0  0  0
    0.8057    2.1910   -1.1011 O   0  0  0  0  0  0  0  0  0  0  0  0
   -1.3640    2.5079   -0.6890 N   0  0  0  0  0  0  0  0  0  0  0  0
   -2.1387    2.2397   -0.0895 H   0  0  0  0  0  0  0  0  0  0  0  0
   -1.4491    3.7492   -1.4460 C   0  0  0  0  0  0  0  0  0  0  0  0
   -1.1384    3.5870   -2.4833 H   0  0  0  0  0  0  0  0  0  0  0  0
   -2.4790    4.1181   -1.4485 H   0  0  0  0  0  0  0  0  0  0  0  0
   -0.8062    4.5143   -0.9990 H   0  0  0  0  0  0  0  0  0  0  0  0
  1  2  1  0  0  0  0
  2  3  1  0  0  0  0
  2  4  1  0  0  0  0
  2  5  1  0  0  0  0
  5  6  2  0  0  0  0
  5  7  1  0  0  0  0
  7  8  1  0  0  0  0
  7  9  1  0  0  0  0
  9 10  1  0  0  0  0
  9 11  1  0  0  0  0
  9 20  1  0  0  0  0
 11 12  1  0  0  0  0
 11 13  1  0  0  0  0
 11 14  1  0  0  0  0
 14 15  1  0  0  0  0
 14 16  1  0  0  0  0
 14 17  1  0  0  0  0
 17 18  1  0  0  0  0
 17 19  2  0  0  0  0
 20 21  2  0  0  0  0
 20 22  1  0  0  0  0
 22 23  1  0  0  0  0
 22 24  1  0  0  0  0
 24 25  1  0  0  0  0
 24 26  1  0  0  0  0
 24 27  1  0  0  0  0
M  CHG  1  18  -1
M  END
$$$$

  -OEChem-01062216073D

 27 26  0     1  0  0  0  0  0999 V2000
   -3.0989   -2.9251    1.2498 H   0  0  0  0  0  0  0  0  0  0  0  0
   -2.9064   -2.1215    0.5335 C   0  0  0  0  0  0  0  0  0  0  0  0
   -3.8523   -1.6368    0.2805 H   0  0  0  0  0  0  0  0  0  0  0  0
   -2.4731   -2.5576   -0.3708 H   0  0  0  0  0  0  0  0  0  0  0  0
   -1.9419   -1.1116    1.1288 C   0  0  0  0  0  0  0  0  0  0  0  0
   -1.6423   -1.1646    2.3112 O   0  0  0  0  0  0  0  0  0  0  0  0
   -1.5680   -0.0018    0.4040 N   0  0  0  0  0  0  0  0  0  0  0  0
   -1.9674   -0.0178   -0.5302 H   0  0  0  0  0  0  0  0  0  0  0  0
   -0.1934    0.5489    0.4274 C   0  0  1  0  0  0  0  0  0  0  0  0
    0.0702    0.8614    1.4426 H   0  0  0  0  0  0  0  0  0  0  0  0
    0.8838   -0.4546   -0.0870 C   0  0  0  0  0  0  0  0  0  0  0  0
    0.6040   -0.7793   -1.0954 H   0  0  0  0  0  0  0  0  0  0  0  0
    1.8407    0.0734   -0.1688 H   0  0  0  0  0  0  0  0  0  0  0  0
    1.1441   -1.7081    0.7700 C   0  0  0  0  0  0  0  0  0  0  0  0
    1.4666   -1.4129    1.7728 H   0  0  0  0  0  0  0  0  0  0  0  0
    0.2477   -2.3182    0.8695 H   0  0  0  0  0  0  0  0  0  0  0  0
    2.2050   -2.5931    0.1166 C   0  0  0  0  0  0  0  0  0  0  0  0
    1.8284   -3.3390   -0.8234 O   0  5  0  0  0  0  0  0  0  0  0  0
    3.3823   -2.5231    0.5489 O   0  0  0  0  0  0  0  0  0  0  0  0
   -0.1841    1.7943   -0.4989 C   0  0  0  0  0  0  0  0  0  0  0  0
    0.6773    2.0356   -1.3344 O   0  0  0  0  0  0  0  0  0  0  0  0
   -1.2328    2.6902   -0.3833 N   0  0  0  0  0  0  0  0  0  0  0  0
   -1.9218    2.4874    0.3352 H   0  0  0  0  0  0  0  0  0  0  0  0
   -1.3506    3.9147   -1.1626 C   0  0  0  0  0  0  0  0  0  0  0  0
   -1.3865    3.6857   -2.2325 H   0  0  0  0  0  0  0  0  0  0  0  0
   -2.2681    4.4454   -0.8918 H   0  0  0  0  0  0  0  0  0  0  0  0
   -0.4984    4.5744   -0.9696 H   0  0  0  0  0  0  0  0  0  0  0  0
  1  2  1  0  0  0  0
  2  3  1  0  0  0  0
  2  4  1  0  0  0  0
  2  5  1  0  0  0  0
  5  6  2  0  0  0  0
  5  7  1  0  0  0  0
  7  8  1  0  0  0  0
  7  9  1  0  0  0  0
  9 10  1  0  0  0  0
  9 11  1  0  0  0  0
  9 20  1  0  0  0  0
 11 12  1  0  0  0  0
 11 13  1  0  0  0  0
 11 14  1  0  0  0  0
 14 15  1  0  0  0  0
 14 16  1  0  0  0  0
 14 17  1  0  0  0  0
 17 18  1  0  0  0  0
 17 19  2  0  0  0  0
 20 21  2  0  0  0  0
 20 22  1  0  0  0  0
 22 23  1  0  0  0  0
 22 24  1  0  0  0  0
 24 25  1  0  0  0  0
 24 26  1  0  0  0  0
 24 27  1  0  0  0  0
M  CHG  1  18  -1
M  END
$$$$

  -OEChem-01062216073D

 27 26  0     1  0  0  0  0  0999 V2000
   -3.1236   -2.9145    1.1986 H   0  0  0  0  0  0  0  0  0  0  0  0
   -2.9270   -2.0975    0.4985 C   0  0  0  0  0  0  0  0  0  0  0  0
   -3.8690   -1.5965    0.2635 H   0  0  0  0  0  0  0  0  0  0  0  0
   -2.5052   -2.5181   -0.4184 H   0  0  0  0  0  0  0  0  0  0  0  0
   -1.9474   -1.1114    1.1083 C   0  0  0  0  0  0  0  0  0  0  0  0
   -1.6477   -1.1874    2.2897 O   0  0  0  0  0  0  0  0  0  0  0  0
   -1.5614    0.0059    0.4019 N   0  0  0  0  0  0  0  0  0  0  0  0
   -1.9637    0.0158   -0.5314 H   0  0  0  0  0  0  0  0  0  0  0  0
   -0.1837    0.5417    0.4348 C   0  0  1  0  0  0  0  0  0  0  0  0
    0.0763    0.8391    1.4553 H   0  0  0  0  0  0  0  0  0  0  0  0
    0.8992   -0.4544   -0.0772 C   0  0  0  0  0  0  0  0  0  0  0  0
    0.6268   -0.7780   -1.0881 H   0  0  0  0  0  0  0  0  0  0  0  0
    1.8529    0.0804   -0.1524 H   0  0  0  0  0  0  0  0  0  0  0  0
    1.1514   -1.7117    0.7754 C   0  0  0  0  0  0  0  0  0  0  0  0
    1.4644   -1.4230    1.7830 H   0  0  0  0  0  0  0  0  0  0  0  0
    0.2527   -2.3203    0.8631 H   0  0  0  0  0  0  0  0  0  0  0  0
    2.2198   -2.5919    0.1283 C   0  0  0  0  0  0  0  0  0  0  0  0
    1.8372   -3.4204   -0.7368 O   0  5  0  0  0  0  0  0  0  0  0  0
    3.4131   -2.4259    0.4843 O   0  0  0  0  0  0  0  0  0  0  0  0
   -0.1639    1.7989   -0.4707 C   0  0  0  0  0  0  0  0  0  0  0  0
    0.4710    1.8937   -1.5133 O   0  0  0  0  0  0  0  0  0  0  0  0
   -1.0062    2.8431   -0.1328 N   0  0  0  0  0  0  0  0  0  0  0  0
   -1.5764    2.7161    0.6982 H   0  0  0  0  0  0  0  0  0  0  0  0
   -1.1524    4.0587   -0.9212 C   0  0  0  0  0  0  0  0  0  0  0  0
   -1.5476    3.8245   -1.9150 H   0  0  0  0  0  0  0  0  0  0  0  0
   -1.8435    4.7471   -0.4259 H   0  0  0  0  0  0  0  0  0  0  0  0
   -0.1858    4.5606   -1.0333 H   0  0  0  0  0  0  0  0  0  0  0  0
  1  2  1  0  0  0  0
  2  3  1  0  0  0  0
  2  4  1  0  0  0  0
  2  5  1  0  0  0  0
  5  6  2  0  0  0  0
  5  7  1  0  0  0  0
  7  8  1  0  0  0  0
  7  9  1  0  0  0  0
  9 10  1  0  0  0  0
  9 11  1  0  0  0  0
  9 20  1  0  0  0  0
 11 12  1  0  0  0  0
 11 13  1  0  0  0  0
 11 14  1  0  0  0  0
 14 15  1  0  0  0  0
 14 16  1  0  0  0  0
 14 17  1  0  0  0  0
 17 18  1  0  0  0  0
 17 19  2  0  0  0  0
 20 21  2  0  0  0  0
 20 22  1  0  0  0  0
 22 23  1  0  0  0  0
 22 24  1  0  0  0  0
 24 25  1  0  0  0  0
 24 26  1  0  0  0  0
 24 27  1  0  0  0  0
M  CHG  1  18  -1
M  END
$$$$

  -OEChem-01062216073D

 27 26  0     1  0  0  0  0  0999 V2000
   -3.2263   -2.8488    1.1930 H   0  0  0  0  0  0  0  0  0  0  0  0
   -2.9596   -2.0673    0.4761 C   0  0  0  0  0  0  0  0  0  0  0  0
   -3.8643   -1.5275    0.1870 H   0  0  0  0  0  0  0  0  0  0  0  0
   -2.5244   -2.5387   -0.4093 H   0  0  0  0  0  0  0  0  0  0  0  0
   -1.9543   -1.1116    1.0927 C   0  0  0  0  0  0  0  0  0  0  0  0
   -1.6461   -1.2129    2.2704 O   0  0  0  0  0  0  0  0  0  0  0  0
   -1.5521    0.0080    0.3994 N   0  0  0  0  0  0  0  0  0  0  0  0
   -1.9515    0.0394   -0.5352 H   0  0  0  0  0  0  0  0  0  0  0  0
   -0.1731    0.5331    0.4463 C   0  0  1  0  0  0  0  0  0  0  0  0
    0.0796    0.8162    1.4726 H   0  0  0  0  0  0  0  0  0  0  0  0
    0.9174   -0.4519   -0.0663 C   0  0  0  0  0  0  0  0  0  0  0  0
    0.6525   -0.7711   -1.0806 H   0  0  0  0  0  0  0  0  0  0  0  0
    1.8680    0.0891   -0.1337 H   0  0  0  0  0  0  0  0  0  0  0  0
    1.1635   -1.7167    0.7755 C   0  0  0  0  0  0  0  0  0  0  0  0
    1.4672   -1.4389    1.7889 H   0  0  0  0  0  0  0  0  0  0  0  0
    0.2627   -2.3251    0.8488 H   0  0  0  0  0  0  0  0  0  0  0  0
    2.2419   -2.5857    0.1295 C   0  0  0  0  0  0  0  0  0  0  0  0
    1.8646   -3.4889   -0.6593 O   0  5  0  0  0  0  0  0  0  0  0  0
    3.4408   -2.3287    0.4045 O   0  0  0  0  0  0  0  0  0  0  0  0
   -0.1352    1.7950   -0.4472 C   0  0  0  0  0  0  0  0  0  0  0  0
    0.2011    1.7803   -1.6248 O   0  0  0  0  0  0  0  0  0  0  0  0
   -0.7110    2.9522    0.0451 N   0  0  0  0  0  0  0  0  0  0  0  0
   -1.1079    2.9031    0.9784 H   0  0  0  0  0  0  0  0  0  0  0  0
   -0.8936    4.1641   -0.7415 C   0  0  0  0  0  0  0  0  0  0  0  0
   -1.5627    3.9745   -1.5869 H   0  0  0  0  0  0  0  0  0  0  0  0
   -1.3316    4.9517   -0.1215 H   0  0  0  0  0  0  0  0  0  0  0  0
    0.0683    4.5209   -1.1238 H   0  0  0  0  0  0  0  0  0  0  0  0
  1  2  1  0  0  0  0
  2  3  1  0  0  0  0
  2  4  1  0  0  0  0
  2  5  1  0  0  0  0
  5  6  2  0  0  0  0
  5  7  1  0  0  0  0
  7  8  1  0  0  0  0
  7  9  1  0  0  0  0
  9 10  1  0  0  0  0
  9 11  1  0  0  0  0
  9 20  1  0  0  0  0
 11 12  1  0  0  0  0
 11 13  1  0  0  0  0
 11 14  1  0  0  0  0
 14 15  1  0  0  0  0
 14 16  1  0  0  0  0
 14 17  1  0  0  0  0
 17 18  1  0  0  0  0
 17 19  2  0  0  0  0
 20 21  2  0  0  0  0
 20 22  1  0  0  0  0
 22 23  1  0  0  0  0
 22 24  1  0  0  0  0
 24 25  1  0  0  0  0
 24 26  1  0  0  0  0
 24 27  1  0  0  0  0
M  CHG  1  18  -1
M  END
$$$$

  -OEChem-01062216073D

 27 26  0     1  0  0  0  0  0999 V2000
   -3.2471   -2.8403    1.1827 H   0  0  0  0  0  0  0  0  0  0  0  0
   -2.9772   -2.0571    0.4688 C   0  0  0  0  0  0  0  0  0  0  0  0
   -3.8791   -1.5104    0.1836 H   0  0  0  0  0  0  0  0  0  0  0  0
   -2.5463   -2.5269   -0.4195 H   0  0  0  0  0  0  0  0  0  0  0  0
   -1.9653   -1.1101    1.0878 C   0  0  0  0  0  0  0  0  0  0  0  0
   -1.6507   -1.2223    2.2632 O   0  0  0  0  0  0  0  0  0  0  0  0
   -1.5533    0.0058    0.3949 N   0  0  0  0  0  0  0  0  0  0  0  0
   -1.9474    0.0475   -0.5421 H   0  0  0  0  0  0  0  0  0  0  0  0
   -0.1755    0.5270    0.4535 C   0  0  1  0  0  0  0  0  0  0  0  0
    0.0682    0.8051    1.4831 H   0  0  0  0  0  0  0  0  0  0  0  0
    0.9218   -0.4480   -0.0587 C   0  0  0  0  0  0  0  0  0  0  0  0
    0.6668   -0.7605   -1.0776 H   0  0  0  0  0  0  0  0  0  0  0  0
    1.8704    0.0976   -0.1141 H   0  0  0  0  0  0  0  0  0  0  0  0
    1.1642   -1.7184    0.7753 C   0  0  0  0  0  0  0  0  0  0  0  0
    1.4585   -1.4495    1.7938 H   0  0  0  0  0  0  0  0  0  0  0  0
    0.2627   -2.3280    0.8347 H   0  0  0  0  0  0  0  0  0  0  0  0
    2.2515   -2.5777    0.1308 C   0  0  0  0  0  0  0  0  0  0  0  0
    1.8849   -3.5284   -0.6051 O   0  5  0  0  0  0  0  0  0  0  0  0
    3.4476   -2.2582    0.3470 O   0  0  0  0  0  0  0  0  0  0  0  0
   -0.1194    1.7840   -0.4417 C   0  0  0  0  0  0  0  0  0  0  0  0
   -0.0877    1.7135   -1.6648 O   0  0  0  0  0  0  0  0  0  0  0  0
   -0.3952    3.0131    0.1301 N   0  0  0  0  0  0  0  0  0  0  0  0
   -0.5628    3.0274    1.1312 H   0  0  0  0  0  0  0  0  0  0  0  0
   -0.5690    4.2402   -0.6345 C   0  0  0  0  0  0  0  0  0  0  0  0
   -1.4337    4.1570   -1.3007 H   0  0  0  0  0  0  0  0  0  0  0  0
   -0.7322    5.0844    0.0420 H   0  0  0  0  0  0  0  0  0  0  0  0
    0.3230    4.4469   -1.2350 H   0  0  0  0  0  0  0  0  0  0  0  0
  1  2  1  0  0  0  0
  2  3  1  0  0  0  0
  2  4  1  0  0  0  0
  2  5  1  0  0  0  0
  5  6  2  0  0  0  0
  5  7  1  0  0  0  0
  7  8  1  0  0  0  0
  7  9  1  0  0  0  0
  9 10  1  0  0  0  0
  9 11  1  0  0  0  0
  9 20  1  0  0  0  0
 11 12  1  0  0  0  0
 11 13  1  0  0  0  0
 11 14  1  0  0  0  0
 14 15  1  0  0  0  0
 14 16  1  0  0  0  0
 14 17  1  0  0  0  0
 17 18  1  0  0  0  0
 17 19  2  0  0  0  0
 20 21  2  0  0  0  0
 20 22  1  0  0  0  0
 22 23  1  0  0  0  0
 22 24  1  0  0  0  0
 24 25  1  0  0  0  0
 24 26  1  0  0  0  0
 24 27  1  0  0  0  0
M  CHG  1  18  -1
M  END
$$$$

  -OEChem-01062216073D

 27 26  0     1  0  0  0  0  0999 V2000
   -3.2861   -2.8349    1.1929 H   0  0  0  0  0  0  0  0  0  0  0  0
   -3.0112   -2.0549    0.4774 C   0  0  0  0  0  0  0  0  0  0  0  0
   -3.9071   -1.4928    0.2035 H   0  0  0  0  0  0  0  0  0  0  0  0
   -2.5983   -2.5298   -0.4166 H   0  0  0  0  0  0  0  0  0  0  0  0
   -1.9776   -1.1254    1.0870 C   0  0  0  0  0  0  0  0  0  0  0  0
   -1.6434   -1.2551    2.2553 O   0  0  0  0  0  0  0  0  0  0  0  0
   -1.5607   -0.0112    0.3940 N   0  0  0  0  0  0  0  0  0  0  0  0
   -1.9601    0.0497   -0.5404 H   0  0  0  0  0  0  0  0  0  0  0  0
   -0.1877    0.5190    0.4605 C   0  0  1  0  0  0  0  0  0  0  0  0
    0.0457    0.7962    1.4926 H   0  0  0  0  0  0  0  0  0  0  0  0
    0.9209   -0.4374   -0.0561 C   0  0  0  0  0  0  0  0  0  0  0  0
    0.6735   -0.7412   -1.0795 H   0  0  0  0  0  0  0  0  0  0  0  0
    1.8642    0.1183   -0.1019 H   0  0  0  0  0  0  0  0  0  0  0  0
    1.1714   -1.7116    0.7682 C   0  0  0  0  0  0  0  0  0  0  0  0
    1.4584   -1.4490    1.7904 H   0  0  0  0  0  0  0  0  0  0  0  0
    0.2737   -2.3280    0.8177 H   0  0  0  0  0  0  0  0  0  0  0  0
    2.2707   -2.5548    0.1226 C   0  0  0  0  0  0  0  0  0  0  0  0
    1.9214   -3.5428   -0.5711 O   0  5  0  0  0  0  0  0  0  0  0  0
    3.4591   -2.1819    0.2921 O   0  0  0  0  0  0  0  0  0  0  0  0
   -0.1260    1.7707   -0.4394 C   0  0  0  0  0  0  0  0  0  0  0  0
   -0.3650    1.6989   -1.6403 O   0  0  0  0  0  0  0  0  0  0  0  0
   -0.0954    3.0238    0.1458 N   0  0  0  0  0  0  0  0  0  0  0  0
    0.0174    3.0630    1.1537 H   0  0  0  0  0  0  0  0  0  0  0  0
   -0.2025    4.2677   -0.6037 C   0  0  0  0  0  0  0  0  0  0  0  0
   -1.1632    4.3181   -1.1262 H   0  0  0  0  0  0  0  0  0  0  0  0
   -0.1325    5.1225    0.0753 H   0  0  0  0  0  0  0  0  0  0  0  0
    0.6057    4.3422   -1.3386 H   0  0  0  0  0  0  0  0  0  0  0  0
  1  2  1  0  0  0  0
  2  3  1  0  0  0  0
  2  4  1  0  0  0  0
  2  5  1  0  0  0  0
  5  6  2  0  0  0  0
  5  7  1  0  0  0  0
  7  8  1  0  0  0  0
  7  9  1  0  0  0  0
  9 10  1  0  0  0  0
  9 11  1  0  0  0  0
  9 20  1  0  0  0  0
 11 12  1  0  0  0  0
 11 13  1  0  0  0  0
 11 14  1  0  0  0  0
 14 15  1  0  0  0  0
 14 16  1  0  0  0  0
 14 17  1  0  0  0  0
 17 18  1  0  0  0  0
 17 19  2  0  0  0  0
 20 21  2  0  0  0  0
 20 22  1  0  0  0  0
 22 23  1  0  0  0  0
 22 24  1  0  0  0  0
 24 25  1  0  0  0  0
 24 26  1  0  0  0  0
 24 27  1  0  0  0  0
M  CHG  1  18  -1
M  END
$$$$

  -OEChem-01062216073D

 27 26  0     1  0  0  0  0  0999 V2000
   -3.3252   -2.8314    1.2128 H   0  0  0  0  0  0  0  0  0  0  0  0
   -3.0375   -2.0630    0.4899 C   0  0  0  0  0  0  0  0  0  0  0  0
   -3.9242   -1.4899    0.2092 H   0  0  0  0  0  0  0  0  0  0  0  0
   -2.6309   -2.5526   -0.3992 H   0  0  0  0  0  0  0  0  0  0  0  0
   -1.9904   -1.1430    1.0911 C   0  0  0  0  0  0  0  0  0  0  0  0
   -1.6361   -1.2865    2.2519 O   0  0  0  0  0  0  0  0  0  0  0  0
   -1.5763   -0.0288    0.3965 N   0  0  0  0  0  0  0  0  0  0  0  0
   -1.9882    0.0517   -0.5315 H   0  0  0  0  0  0  0  0  0  0  0  0
   -0.2100    0.5169    0.4647 C   0  0  1  0  0  0  0  0  0  0  0  0
    0.0147    0.7965    1.4981 H   0  0  0  0  0  0  0  0  0  0  0  0
    0.9094   -0.4211   -0.0558 C   0  0  0  0  0  0  0  0  0  0  0  0
    0.6648   -0.7215   -1.0810 H   0  0  0  0  0  0  0  0  0  0  0  0
    1.8456    0.1469   -0.0985 H   0  0  0  0  0  0  0  0  0  0  0  0
    1.1767   -1.6958    0.7614 C   0  0  0  0  0  0  0  0  0  0  0  0
    1.4610   -1.4352    1.7849 H   0  0  0  0  0  0  0  0  0  0  0  0
    0.2860   -2.3230    0.8078 H   0  0  0  0  0  0  0  0  0  0  0  0
    2.2875   -2.5190    0.1092 C   0  0  0  0  0  0  0  0  0  0  0  0
    1.9577   -3.5418   -0.5421 O   0  5  0  0  0  0  0  0  0  0  0  0
    3.4640   -2.0909    0.2240 O   0  0  0  0  0  0  0  0  0  0  0  0
   -0.1451    1.7652   -0.4389 C   0  0  0  0  0  0  0  0  0  0  0  0
   -0.6023    1.7376   -1.5778 O   0  0  0  0  0  0  0  0  0  0  0  0
    0.1871    2.9905    0.1097 N   0  0  0  0  0  0  0  0  0  0  0  0
    0.5562    2.9894    1.0554 H   0  0  0  0  0  0  0  0  0  0  0  0
    0.1802    4.2361   -0.6441 C   0  0  0  0  0  0  0  0  0  0  0  0
   -0.8323    4.4675   -0.9903 H   0  0  0  0  0  0  0  0  0  0  0  0
    0.5267    5.0593   -0.0123 H   0  0  0  0  0  0  0  0  0  0  0  0
    0.8438    4.1623   -1.5118 H   0  0  0  0  0  0  0  0  0  0  0  0
  1  2  1  0  0  0  0
  2  3  1  0  0  0  0
  2  4  1  0  0  0  0
  2  5  1  0  0  0  0
  5  6  2  0  0  0  0
  5  7  1  0  0  0  0
  7  8  1  0  0  0  0
  7  9  1  0  0  0  0
  9 10  1  0  0  0  0
  9 11  1  0  0  0  0
  9 20  1  0  0  0  0
 11 12  1  0  0  0  0
 11 13  1  0  0  0  0
 11 14  1  0  0  0  0
 14 15  1  0  0  0  0
 14 16  1  0  0  0  0
 14 17  1  0  0  0  0
 17 18  1  0  0  0  0
 17 19  2  0  0  0  0
 20 21  2  0  0  0  0
 20 22  1  0  0  0  0
 22 23  1  0  0  0  0
 22 24  1  0  0  0  0
 24 25  1  0  0  0  0
 24 26  1  0  0  0  0
 24 27  1  0  0  0  0
M  CHG  1  18  -1
M  END
$$$$

  -OEChem-01062216073D

 27 26  0     1  0  0  0  0  0999 V2000
   -3.3410   -2.8435    1.2234 H   0  0  0  0  0  0  0  0  0  0  0  0
   -3.0768   -2.0572    0.5108 C   0  0  0  0  0  0  0  0  0  0  0  0
   -3.9695   -1.4698    0.2832 H   0  0  0  0  0  0  0  0  0  0  0  0
   -2.7119   -2.5250   -0.4074 H   0  0  0  0  0  0  0  0  0  0  0  0
   -1.9985   -1.1620    1.0939 C   0  0  0  0  0  0  0  0  0  0  0  0
   -1.6185   -1.3259    2.2437 O   0  0  0  0  0  0  0  0  0  0  0  0
   -1.5871   -0.0462    0.4005 N   0  0  0  0  0  0  0  0  0  0  0  0
   -2.0191    0.0597   -0.5158 H   0  0  0  0  0  0  0  0  0  0  0  0
   -0.2283    0.5179    0.4690 C   0  0  1  0  0  0  0  0  0  0  0  0
   -0.0098    0.8019    1.5025 H   0  0  0  0  0  0  0  0  0  0  0  0
    0.9019   -0.4034   -0.0571 C   0  0  0  0  0  0  0  0  0  0  0  0
    0.6580   -0.7014   -1.0831 H   0  0  0  0  0  0  0  0  0  0  0  0
    1.8312    0.1763   -0.0997 H   0  0  0  0  0  0  0  0  0  0  0  0
    1.1897   -1.6783    0.7517 C   0  0  0  0  0  0  0  0  0  0  0  0
    1.4741   -1.4202    1.7758 H   0  0  0  0  0  0  0  0  0  0  0  0
    0.3073   -2.3174    0.7967 H   0  0  0  0  0  0  0  0  0  0  0  0
    2.3105   -2.4803    0.0900 C   0  0  0  0  0  0  0  0  0  0  0  0
    1.9972   -3.5155   -0.5495 O   0  5  0  0  0  0  0  0  0  0  0  0
    3.4768   -2.0197    0.1812 O   0  0  0  0  0  0  0  0  0  0  0  0
   -0.1640    1.7654   -0.4364 C   0  0  0  0  0  0  0  0  0  0  0  0
   -0.7978    1.8106   -1.4876 O   0  0  0  0  0  0  0  0  0  0  0  0
    0.4478    2.9164    0.0254 N   0  0  0  0  0  0  0  0  0  0  0  0
    1.0204    2.8263    0.8592 H   0  0  0  0  0  0  0  0  0  0  0  0
    0.5407    4.1392   -0.7590 C   0  0  0  0  0  0  0  0  0  0  0  0
   -0.4576    4.5031   -1.0227 H   0  0  0  0  0  0  0  0  0  0  0  0
    1.0491    4.9172   -0.1818 H   0  0  0  0  0  0  0  0  0  0  0  0
    1.1077    3.9605   -1.6783 H   0  0  0  0  0  0  0  0  0  0  0  0
  1  2  1  0  0  0  0
  2  3  1  0  0  0  0
  2  4  1  0  0  0  0
  2  5  1  0  0  0  0
  5  6  2  0  0  0  0
  5  7  1  0  0  0  0
  7  8  1  0  0  0  0
  7  9  1  0  0  0  0
  9 10  1  0  0  0  0
  9 11  1  0  0  0  0
  9 20  1  0  0  0  0
 11 12  1  0  0  0  0
 11 13  1  0  0  0  0
 11 14  1  0  0  0  0
 14 15  1  0  0  0  0
 14 16  1  0  0  0  0
 14 17  1  0  0  0  0
 17 18  1  0  0  0  0
 17 19  2  0  0  0  0
 20 21  2  0  0  0  0
 20 22  1  0  0  0  0
 22 23  1  0  0  0  0
 22 24  1  0  0  0  0
 24 25  1  0  0  0  0
 24 26  1  0  0  0  0
 24 27  1  0  0  0  0
M  CHG  1  18  -1
M  END
$$$$

  -OEChem-01062216073D

 27 26  0     1  0  0  0  0  0999 V2000
   -3.3664   -2.8344    1.2380 H   0  0  0  0  0  0  0  0  0  0  0  0
   -3.0985   -2.0504    0.5242 C   0  0  0  0  0  0  0  0  0  0  0  0
   -3.9855   -1.4503    0.3071 H   0  0  0  0  0  0  0  0  0  0  0  0
   -2.7496   -2.5208   -0.3989 H   0  0  0  0  0  0  0  0  0  0  0  0
   -2.0013   -1.1718    1.0976 C   0  0  0  0  0  0  0  0  0  0  0  0
   -1.6046   -1.3522    2.2393 O   0  0  0  0  0  0  0  0  0  0  0  0
   -1.5888   -0.0550    0.4062 N   0  0  0  0  0  0  0  0  0  0  0  0
   -2.0395    0.0773   -0.4975 H   0  0  0  0  0  0  0  0  0  0  0  0
   -0.2360    0.5240    0.4773 C   0  0  1  0  0  0  0  0  0  0  0  0
   -0.0199    0.8115    1.5106 H   0  0  0  0  0  0  0  0  0  0  0  0
    0.8984   -0.3895   -0.0549 C   0  0  0  0  0  0  0  0  0  0  0  0
    0.6527   -0.6830   -1.0818 H   0  0  0  0  0  0  0  0  0  0  0  0
    1.8255    0.1933   -0.0976 H   0  0  0  0  0  0  0  0  0  0  0  0
    1.1994   -1.6672    0.7440 C   0  0  0  0  0  0  0  0  0  0  0  0
    1.4865   -1.4156    1.7689 H   0  0  0  0  0  0  0  0  0  0  0  0
    0.3222   -2.3139    0.7869 H   0  0  0  0  0  0  0  0  0  0  0  0
    2.3240   -2.4517    0.0676 C   0  0  0  0  0  0  0  0  0  0  0  0
    2.0205   -3.4943   -0.5640 O   0  5  0  0  0  0  0  0  0  0  0  0
    3.4813   -1.9642    0.1321 O   0  0  0  0  0  0  0  0  0  0  0  0
   -0.1711    1.7714   -0.4307 C   0  0  0  0  0  0  0  0  0  0  0  0
   -0.9506    1.9091   -1.3707 O   0  0  0  0  0  0  0  0  0  0  0  0
    0.6835    2.8101   -0.1095 N   0  0  0  0  0  0  0  0  0  0  0  0
    1.3880    2.6147    0.5962 H   0  0  0  0  0  0  0  0  0  0  0  0
    0.8378    3.9969   -0.9382 C   0  0  0  0  0  0  0  0  0  0  0  0
   -0.1197    4.5167   -1.0455 H   0  0  0  0  0  0  0  0  0  0  0  0
    1.5532    4.6851   -0.4785 H   0  0  0  0  0  0  0  0  0  0  0  0
    1.2070    3.7238   -1.9321 H   0  0  0  0  0  0  0  0  0  0  0  0
  1  2  1  0  0  0  0
  2  3  1  0  0  0  0
  2  4  1  0  0  0  0
  2  5  1  0  0  0  0
  5  6  2  0  0  0  0
  5  7  1  0  0  0  0
  7  8  1  0  0  0  0
  7  9  1  0  0  0  0
  9 10  1  0  0  0  0
  9 11  1  0  0  0  0
  9 20  1  0  0  0  0
 11 12  1  0  0  0  0
 11 13  1  0  0  0  0
 11 14  1  0  0  0  0
 14 15  1  0  0  0  0
 14 16  1  0  0  0  0
 14 17  1  0  0  0  0
 17 18  1  0  0  0  0
 17 19  2  0  0  0  0
 20 21  2  0  0  0  0
 20 22  1  0  0  0  0
 22 23  1  0  0  0  0
 22 24  1  0  0  0  0
 24 25  1  0  0  0  0
 24 26  1  0  0  0  0
 24 27  1  0  0  0  0
M  CHG  1  18  -1
M  END
$$$$

  -OEChem-01062216073D

 27 26  0     1  0  0  0  0  0999 V2000
   -3.3329   -2.8632    1.2096 H   0  0  0  0  0  0  0  0  0  0  0  0
   -3.1150   -2.0341    0.5307 C   0  0  0  0  0  0  0  0  0  0  0  0
   -4.0183   -1.4328    0.4024 H   0  0  0  0  0  0  0  0  0  0  0  0
   -2.8166   -2.4439   -0.4377 H   0  0  0  0  0  0  0  0  0  0  0  0
   -1.9953   -1.1772    1.0931 C   0  0  0  0  0  0  0  0  0  0  0  0
   -1.5879   -1.3715    2.2286 O   0  0  0  0  0  0  0  0  0  0  0  0
   -1.5790   -0.0600    0.4044 N   0  0  0  0  0  0  0  0  0  0  0  0
   -2.0504    0.1017   -0.4838 H   0  0  0  0  0  0  0  0  0  0  0  0
   -0.2308    0.5308    0.4808 C   0  0  1  0  0  0  0  0  0  0  0  0
   -0.0176    0.8221    1.5137 H   0  0  0  0  0  0  0  0  0  0  0  0
    0.9033   -0.3871   -0.0508 C   0  0  0  0  0  0  0  0  0  0  0  0
    0.6562   -0.6795   -1.0777 H   0  0  0  0  0  0  0  0  0  0  0  0
    1.8334    0.1895   -0.0936 H   0  0  0  0  0  0  0  0  0  0  0  0
    1.2077   -1.6658    0.7448 C   0  0  0  0  0  0  0  0  0  0  0  0
    1.4977   -1.4166    1.7694 H   0  0  0  0  0  0  0  0  0  0  0  0
    0.3323   -2.3146    0.7882 H   0  0  0  0  0  0  0  0  0  0  0  0
    2.3316   -2.4457    0.0616 C   0  0  0  0  0  0  0  0  0  0  0  0
    2.0330   -3.5019   -0.5492 O   0  5  0  0  0  0  0  0  0  0  0  0
    3.4816   -1.9377    0.0941 O   0  0  0  0  0  0  0  0  0  0  0  0
   -0.1656    1.7788   -0.4310 C   0  0  0  0  0  0  0  0  0  0  0  0
   -1.0614    2.0221   -1.2366 O   0  0  0  0  0  0  0  0  0  0  0  0
    0.8771    2.6785   -0.2995 N   0  0  0  0  0  0  0  0  0  0  0  0
    1.6640    2.3770    0.2695 H   0  0  0  0  0  0  0  0  0  0  0  0
    1.0517    3.8292   -1.1740 C   0  0  0  0  0  0  0  0  0  0  0  0
    0.1776    4.4865   -1.1218 H   0  0  0  0  0  0  0  0  0  0  0  0
    1.9321    4.4022   -0.8684 H   0  0  0  0  0  0  0  0  0  0  0  0
    1.1904    3.5048   -2.2104 H   0  0  0  0  0  0  0  0  0  0  0  0
  1  2  1  0  0  0  0
  2  3  1  0  0  0  0
  2  4  1  0  0  0  0
  2  5  1  0  0  0  0
  5  6  2  0  0  0  0
  5  7  1  0  0  0  0
  7  8  1  0  0  0  0
  7  9  1  0  0  0  0
  9 10  1  0  0  0  0
  9 11  1  0  0  0  0
  9 20  1  0  0  0  0
 11 12  1  0  0  0  0
 11 13  1  0  0  0  0
 11 14  1  0  0  0  0
 14 15  1  0  0  0  0
 14 16  1  0  0  0  0
 14 17  1  0  0  0  0
 17 18  1  0  0  0  0
 17 19  2  0  0  0  0
 20 21  2  0  0  0  0
 20 22  1  0  0  0  0
 22 23  1  0  0  0  0
 22 24  1  0  0  0  0
 24 25  1  0  0  0  0
 24 26  1  0  0  0  0
 24 27  1  0  0  0  0
M  CHG  1  18  -1
M  END
$$$$

  -OEChem-01062216073D

 27 26  0     1  0  0  0  0  0999 V2000
   -3.2672   -2.8583    1.4222 H   0  0  0  0  0  0  0  0  0  0  0  0
   -3.0863   -2.0503    0.7079 C   0  0  0  0  0  0  0  0  0  0  0  0
   -3.9621   -1.3974    0.6826 H   0  0  0  0  0  0  0  0  0  0  0  0
   -2.9344   -2.4849   -0.2836 H   0  0  0  0  0  0  0  0  0  0  0  0
   -1.8573   -1.2567    1.1134 C   0  0  0  0  0  0  0  0  0  0  0  0
   -1.2627   -1.5363    2.1440 O   0  0  0  0  0  0  0  0  0  0  0  0
   -1.5040   -0.1368    0.3920 N   0  0  0  0  0  0  0  0  0  0  0  0
   -2.0909    0.0937   -0.4061 H   0  0  0  0  0  0  0  0  0  0  0  0
   -0.1804    0.5091    0.4210 C   0  0  1  0  0  0  0  0  0  0  0  0
    0.1719    0.5947    1.4536 H   0  0  0  0  0  0  0  0  0  0  0  0
    0.8576   -0.2729   -0.4245 C   0  0  0  0  0  0  0  0  0  0  0  0
    0.4658   -0.3836   -1.4418 H   0  0  0  0  0  0  0  0  0  0  0  0
    1.7823    0.3085   -0.4935 H   0  0  0  0  0  0  0  0  0  0  0  0
    1.2452   -1.6631    0.0997 C   0  0  0  0  0  0  0  0  0  0  0  0
    1.6797   -1.5813    1.1002 H   0  0  0  0  0  0  0  0  0  0  0  0
    0.3706   -2.3133    0.1615 H   0  0  0  0  0  0  0  0  0  0  0  0
    2.2533   -2.3061   -0.8519 C   0  0  0  0  0  0  0  0  0  0  0  0
    3.4304   -1.8652   -0.8220 O   0  5  0  0  0  0  0  0  0  0  0  0
    1.8363   -3.1818   -1.6501 O   0  0  0  0  0  0  0  0  0  0  0  0
   -0.2583    1.9280   -0.1948 C   0  0  0  0  0  0  0  0  0  0  0  0
   -1.3198    2.3771   -0.6204 O   0  0  0  0  0  0  0  0  0  0  0  0
    0.8724    2.7223   -0.2711 N   0  0  0  0  0  0  0  0  0  0  0  0
    1.7562    2.2760   -0.0379 H   0  0  0  0  0  0  0  0  0  0  0  0
    0.8989    4.0187   -0.9325 C   0  0  0  0  0  0  0  0  0  0  0  0
    0.1773    4.6995   -0.4695 H   0  0  0  0  0  0  0  0  0  0  0  0
    1.8952    4.4627   -0.8475 H   0  0  0  0  0  0  0  0  0  0  0  0
    0.6556    3.9115   -1.9945 H   0  0  0  0  0  0  0  0  0  0  0  0
  1  2  1  0  0  0  0
  2  3  1  0  0  0  0
  2  4  1  0  0  0  0
  2  5  1  0  0  0  0
  5  6  2  0  0  0  0
  5  7  1  0  0  0  0
  7  8  1  0  0  0  0
  7  9  1  0  0  0  0
  9 10  1  0  0  0  0
  9 11  1  0  0  0  0
  9 20  1  0  0  0  0
 11 12  1  0  0  0  0
 11 13  1  0  0  0  0
 11 14  1  0  0  0  0
 14 15  1  0  0  0  0
 14 16  1  0  0  0  0
 14 17  1  0  0  0  0
 17 18  1  0  0  0  0
 17 19  2  0  0  0  0
 20 21  2  0  0  0  0
 20 22  1  0  0  0  0
 22 23  1  0  0  0  0
 22 24  1  0  0  0  0
 24 25  1  0  0  0  0
 24 26  1  0  0  0  0
 24 27  1  0  0  0  0
M  CHG  1  18  -1
M  END
$$$$

  -OEChem-01062216073D

 27 26  0     1  0  0  0  0  0999 V2000
   -3.2854   -2.8257    1.4210 H   0  0  0  0  0  0  0  0  0  0  0  0
   -3.0930   -2.0214    0.7057 C   0  0  0  0  0  0  0  0  0  0  0  0
   -3.9556   -1.3512    0.6860 H   0  0  0  0  0  0  0  0  0  0  0  0
   -2.9570   -2.4587   -0.2867 H   0  0  0  0  0  0  0  0  0  0  0  0
   -1.8456   -1.2529    1.1033 C   0  0  0  0  0  0  0  0  0  0  0  0
   -1.2462   -1.5514    2.1255 O   0  0  0  0  0  0  0  0  0  0  0  0
   -1.4818   -0.1334    0.3867 N   0  0  0  0  0  0  0  0  0  0  0  0
   -2.0853    0.1263   -0.3891 H   0  0  0  0  0  0  0  0  0  0  0  0
   -0.1554    0.5083    0.4205 C   0  0  1  0  0  0  0  0  0  0  0  0
    0.1963    0.5963    1.4533 H   0  0  0  0  0  0  0  0  0  0  0  0
    0.8764   -0.2921   -0.4210 C   0  0  0  0  0  0  0  0  0  0  0  0
    0.4878   -0.3988   -1.4400 H   0  0  0  0  0  0  0  0  0  0  0  0
    1.8113    0.2723   -0.4834 H   0  0  0  0  0  0  0  0  0  0  0  0
    1.2550   -1.6847    0.1027 C   0  0  0  0  0  0  0  0  0  0  0  0
    1.6931   -1.6056    1.1018 H   0  0  0  0  0  0  0  0  0  0  0  0
    0.3767   -2.3293    0.1661 H   0  0  0  0  0  0  0  0  0  0  0  0
    2.2560   -2.3325   -0.8537 C   0  0  0  0  0  0  0  0  0  0  0  0
    3.4314   -1.8861   -0.8421 O   0  5  0  0  0  0  0  0  0  0  0  0
    1.8319   -3.2119   -1.6440 O   0  0  0  0  0  0  0  0  0  0  0  0
   -0.2403    1.9303   -0.1972 C   0  0  0  0  0  0  0  0  0  0  0  0
   -1.3293    2.4595   -0.4047 O   0  0  0  0  0  0  0  0  0  0  0  0
    0.8977    2.6271   -0.5663 N   0  0  0  0  0  0  0  0  0  0  0  0
    1.7794    2.1234   -0.5040 H   0  0  0  0  0  0  0  0  0  0  0  0
    0.8730    3.9072   -1.2589 C   0  0  0  0  0  0  0  0  0  0  0  0
    0.3419    4.6562   -0.6627 H   0  0  0  0  0  0  0  0  0  0  0  0
    1.8943    4.2615   -1.4272 H   0  0  0  0  0  0  0  0  0  0  0  0
    0.3758    3.8073   -2.2290 H   0  0  0  0  0  0  0  0  0  0  0  0
  1  2  1  0  0  0  0
  2  3  1  0  0  0  0
  2  4  1  0  0  0  0
  2  5  1  0  0  0  0
  5  6  2  0  0  0  0
  5  7  1  0  0  0  0
  7  8  1  0  0  0  0
  7  9  1  0  0  0  0
  9 10  1  0  0  0  0
  9 11  1  0  0  0  0
  9 20  1  0  0  0  0
 11 12  1  0  0  0  0
 11 13  1  0  0  0  0
 11 14  1  0  0  0  0
 14 15  1  0  0  0  0
 14 16  1  0  0  0  0
 14 17  1  0  0  0  0
 17 18  1  0  0  0  0
 17 19  2  0  0  0  0
 20 21  2  0  0  0  0
 20 22  1  0  0  0  0
 22 23  1  0  0  0  0
 22 24  1  0  0  0  0
 24 25  1  0  0  0  0
 24 26  1  0  0  0  0
 24 27  1  0  0  0  0
M  CHG  1  18  -1
M  END
$$$$

  -OEChem-01062216073D

 27 26  0     1  0  0  0  0  0999 V2000
   -3.3004   -2.7852    1.4351 H   0  0  0  0  0  0  0  0  0  0  0  0
   -3.0841   -2.0050    0.7000 C   0  0  0  0  0  0  0  0  0  0  0  0
   -3.9399   -1.3282    0.6402 H   0  0  0  0  0  0  0  0  0  0  0  0
   -2.9298   -2.4739   -0.2753 H   0  0  0  0  0  0  0  0  0  0  0  0
   -1.8384   -1.2359    1.1023 C   0  0  0  0  0  0  0  0  0  0  0  0
   -1.2418   -1.5353    2.1257 O   0  0  0  0  0  0  0  0  0  0  0  0
   -1.4685   -0.1210    0.3814 N   0  0  0  0  0  0  0  0  0  0  0  0
   -2.0738    0.1387   -0.3919 H   0  0  0  0  0  0  0  0  0  0  0  0
   -0.1362    0.5096    0.4113 C   0  0  1  0  0  0  0  0  0  0  0  0
    0.2179    0.6031    1.4429 H   0  0  0  0  0  0  0  0  0  0  0  0
    0.8870   -0.3108   -0.4222 C   0  0  0  0  0  0  0  0  0  0  0  0
    0.5022   -0.4183   -1.4425 H   0  0  0  0  0  0  0  0  0  0  0  0
    1.8296    0.2419   -0.4779 H   0  0  0  0  0  0  0  0  0  0  0  0
    1.2540   -1.7032    0.1097 C   0  0  0  0  0  0  0  0  0  0  0  0
    1.6951   -1.6229    1.1073 H   0  0  0  0  0  0  0  0  0  0  0  0
    0.3710   -2.3409    0.1782 H   0  0  0  0  0  0  0  0  0  0  0  0
    2.2475   -2.3623   -0.8469 C   0  0  0  0  0  0  0  0  0  0  0  0
    3.4239   -1.9189   -0.8477 O   0  5  0  0  0  0  0  0  0  0  0  0
    1.8126   -3.2392   -1.6340 O   0  0  0  0  0  0  0  0  0  0  0  0
   -0.2242    1.9313   -0.2126 C   0  0  0  0  0  0  0  0  0  0  0  0
   -1.2832    2.5523   -0.1871 O   0  0  0  0  0  0  0  0  0  0  0  0
    0.8430    2.5199   -0.8710 N   0  0  0  0  0  0  0  0  0  0  0  0
    1.6836    1.9562   -0.9760 H   0  0  0  0  0  0  0  0  0  0  0  0
    0.7654    3.7960   -1.5673 C   0  0  0  0  0  0  0  0  0  0  0  0
    0.4773    4.5936   -0.8751 H   0  0  0  0  0  0  0  0  0  0  0  0
    1.7392    4.0476   -1.9976 H   0  0  0  0  0  0  0  0  0  0  0  0
    0.0307    3.7456   -2.3773 H   0  0  0  0  0  0  0  0  0  0  0  0
  1  2  1  0  0  0  0
  2  3  1  0  0  0  0
  2  4  1  0  0  0  0
  2  5  1  0  0  0  0
  5  6  2  0  0  0  0
  5  7  1  0  0  0  0
  7  8  1  0  0  0  0
  7  9  1  0  0  0  0
  9 10  1  0  0  0  0
  9 11  1  0  0  0  0
  9 20  1  0  0  0  0
 11 12  1  0  0  0  0
 11 13  1  0  0  0  0
 11 14  1  0  0  0  0
 14 15  1  0  0  0  0
 14 16  1  0  0  0  0
 14 17  1  0  0  0  0
 17 18  1  0  0  0  0
 17 19  2  0  0  0  0
 20 21  2  0  0  0  0
 20 22  1  0  0  0  0
 22 23  1  0  0  0  0
 22 24  1  0  0  0  0
 24 25  1  0  0  0  0
 24 26  1  0  0  0  0
 24 27  1  0  0  0  0
M  CHG  1  18  -1
M  END
$$$$

  -OEChem-01062216073D

 27 26  0     1  0  0  0  0  0999 V2000
   -3.2530   -2.8145    1.4166 H   0  0  0  0  0  0  0  0  0  0  0  0
   -3.0803   -1.9957    0.7126 C   0  0  0  0  0  0  0  0  0  0  0  0
   -3.9495   -1.3338    0.7186 H   0  0  0  0  0  0  0  0  0  0  0  0
   -2.9553   -2.4144   -0.2892 H   0  0  0  0  0  0  0  0  0  0  0  0
   -1.8348   -1.2217    1.1048 C   0  0  0  0  0  0  0  0  0  0  0  0
   -1.2360   -1.5115    2.1296 O   0  0  0  0  0  0  0  0  0  0  0  0
   -1.4689   -0.1136    0.3710 N   0  0  0  0  0  0  0  0  0  0  0  0
   -2.0677    0.1195   -0.4149 H   0  0  0  0  0  0  0  0  0  0  0  0
   -0.1332    0.5105    0.3901 C   0  0  1  0  0  0  0  0  0  0  0  0
    0.2226    0.6161    1.4198 H   0  0  0  0  0  0  0  0  0  0  0  0
    0.8891   -0.3233   -0.4303 C   0  0  0  0  0  0  0  0  0  0  0  0
    0.5053   -0.4455   -1.4495 H   0  0  0  0  0  0  0  0  0  0  0  0
    1.8307    0.2324   -0.4893 H   0  0  0  0  0  0  0  0  0  0  0  0
    1.2559   -1.7091    0.1174 C   0  0  0  0  0  0  0  0  0  0  0  0
    1.6967   -1.6188    1.1143 H   0  0  0  0  0  0  0  0  0  0  0  0
    0.3733   -2.3469    0.1921 H   0  0  0  0  0  0  0  0  0  0  0  0
    2.2486   -2.3748   -0.8352 C   0  0  0  0  0  0  0  0  0  0  0  0
    3.4358   -1.9629   -0.8100 O   0  5  0  0  0  0  0  0  0  0  0  0
    1.7999   -3.2150   -1.6541 O   0  0  0  0  0  0  0  0  0  0  0  0
   -0.2241    1.9266   -0.2448 C   0  0  0  0  0  0  0  0  0  0  0  0
   -1.1882    2.6446    0.0012 O   0  0  0  0  0  0  0  0  0  0  0  0
    0.6999    2.3982   -1.1633 N   0  0  0  0  0  0  0  0  0  0  0  0
    1.4609    1.7707   -1.4145 H   0  0  0  0  0  0  0  0  0  0  0  0
    0.5932    3.6816   -1.8421 C   0  0  0  0  0  0  0  0  0  0  0  0
    0.5714    4.4991   -1.1143 H   0  0  0  0  0  0  0  0  0  0  0  0
    1.4530    3.8292   -2.5021 H   0  0  0  0  0  0  0  0  0  0  0  0
   -0.3186    3.7197   -2.4466 H   0  0  0  0  0  0  0  0  0  0  0  0
  1  2  1  0  0  0  0
  2  3  1  0  0  0  0
  2  4  1  0  0  0  0
  2  5  1  0  0  0  0
  5  6  2  0  0  0  0
  5  7  1  0  0  0  0
  7  8  1  0  0  0  0
  7  9  1  0  0  0  0
  9 10  1  0  0  0  0
  9 11  1  0  0  0  0
  9 20  1  0  0  0  0
 11 12  1  0  0  0  0
 11 13  1  0  0  0  0
 11 14  1  0  0  0  0
 14 15  1  0  0  0  0
 14 16  1  0  0  0  0
 14 17  1  0  0  0  0
 17 18  1  0  0  0  0
 17 19  2  0  0  0  0
 20 21  2  0  0  0  0
 20 22  1  0  0  0  0
 22 23  1  0  0  0  0
 22 24  1  0  0  0  0
 24 25  1  0  0  0  0
 24 26  1  0  0  0  0
 24 27  1  0  0  0  0
M  CHG  1  18  -1
M  END
$$$$

  -OEChem-01062216073D

 27 26  0     1  0  0  0  0  0999 V2000
   -3.2395   -2.8402    1.3536 H   0  0  0  0  0  0  0  0  0  0  0  0
   -3.0882   -1.9986    0.6720 C   0  0  0  0  0  0  0  0  0  0  0  0
   -3.9721   -1.3569    0.6996 H   0  0  0  0  0  0  0  0  0  0  0  0
   -2.9589   -2.3872   -0.3412 H   0  0  0  0  0  0  0  0  0  0  0  0
   -1.8580   -1.2086    1.0813 C   0  0  0  0  0  0  0  0  0  0  0  0
   -1.2641   -1.4979    2.1083 O   0  0  0  0  0  0  0  0  0  0  0  0
   -1.4938   -0.0960    0.3528 N   0  0  0  0  0  0  0  0  0  0  0  0
   -2.0750    0.1139   -0.4521 H   0  0  0  0  0  0  0  0  0  0  0  0
   -0.1527    0.5170    0.3774 C   0  0  1  0  0  0  0  0  0  0  0  0
    0.2028    0.6124    1.4086 H   0  0  0  0  0  0  0  0  0  0  0  0
    0.8673   -0.3116   -0.4489 C   0  0  0  0  0  0  0  0  0  0  0  0
    0.4729   -0.4222   -1.4654 H   0  0  0  0  0  0  0  0  0  0  0  0
    1.8057    0.2505   -0.5073 H   0  0  0  0  0  0  0  0  0  0  0  0
    1.2374   -1.7112    0.0758 C   0  0  0  0  0  0  0  0  0  0  0  0
    1.6653   -1.6237    1.0785 H   0  0  0  0  0  0  0  0  0  0  0  0
    0.3451   -2.3362    0.1347 H   0  0  0  0  0  0  0  0  0  0  0  0
    2.2358   -2.4311   -0.8441 C   0  0  0  0  0  0  0  0  0  0  0  0
    2.5345   -1.8982   -1.9462 O   0  5  0  0  0  0  0  0  0  0  0  0
    2.6943   -3.5270   -0.4405 O   0  0  0  0  0  0  0  0  0  0  0  0
   -0.2290    1.9384   -0.2437 C   0  0  0  0  0  0  0  0  0  0  0  0
   -1.0256    2.7552    0.2052 O   0  0  0  0  0  0  0  0  0  0  0  0
    0.5010    2.3057   -1.3630 N   0  0  0  0  0  0  0  0  0  0  0  0
    1.1313    1.6056   -1.7513 H   0  0  0  0  0  0  0  0  0  0  0  0
    0.4209    3.6124   -1.9988 C   0  0  0  0  0  0  0  0  0  0  0  0
    0.6814    4.4013   -1.2859 H   0  0  0  0  0  0  0  0  0  0  0  0
    1.1186    3.6625   -2.8399 H   0  0  0  0  0  0  0  0  0  0  0  0
   -0.5906    3.7937   -2.3758 H   0  0  0  0  0  0  0  0  0  0  0  0
  1  2  1  0  0  0  0
  2  3  1  0  0  0  0
  2  4  1  0  0  0  0
  2  5  1  0  0  0  0
  5  6  2  0  0  0  0
  5  7  1  0  0  0  0
  7  8  1  0  0  0  0
  7  9  1  0  0  0  0
  9 10  1  0  0  0  0
  9 11  1  0  0  0  0
  9 20  1  0  0  0  0
 11 12  1  0  0  0  0
 11 13  1  0  0  0  0
 11 14  1  0  0  0  0
 14 15  1  0  0  0  0
 14 16  1  0  0  0  0
 14 17  1  0  0  0  0
 17 18  1  0  0  0  0
 17 19  2  0  0  0  0
 20 21  2  0  0  0  0
 20 22  1  0  0  0  0
 22 23  1  0  0  0  0
 22 24  1  0  0  0  0
 24 25  1  0  0  0  0
 24 26  1  0  0  0  0
 24 27  1  0  0  0  0
M  CHG  1  18  -1
M  END
$$$$

  -OEChem-01062216073D

 27 26  0     1  0  0  0  0  0999 V2000
   -3.3011   -2.8128    1.3506 H   0  0  0  0  0  0  0  0  0  0  0  0
   -3.1014   -2.0101    0.6352 C   0  0  0  0  0  0  0  0  0  0  0  0
   -3.9780   -1.3602    0.5790 H   0  0  0  0  0  0  0  0  0  0  0  0
   -2.9194   -2.4531   -0.3474 H   0  0  0  0  0  0  0  0  0  0  0  0
   -1.8868   -1.2100    1.0706 C   0  0  0  0  0  0  0  0  0  0  0  0
   -1.3132   -1.4943    2.1107 O   0  0  0  0  0  0  0  0  0  0  0  0
   -1.5158   -0.0964    0.3461 N   0  0  0  0  0  0  0  0  0  0  0  0
   -2.0677    0.0801   -0.4867 H   0  0  0  0  0  0  0  0  0  0  0  0
   -0.1693    0.5050    0.3801 C   0  0  1  0  0  0  0  0  0  0  0  0
    0.1833    0.5910    1.4135 H   0  0  0  0  0  0  0  0  0  0  0  0
    0.8445   -0.3327   -0.4452 C   0  0  0  0  0  0  0  0  0  0  0  0
    0.4577   -0.4535   -1.4632 H   0  0  0  0  0  0  0  0  0  0  0  0
    1.7858    0.2254   -0.5073 H   0  0  0  0  0  0  0  0  0  0  0  0
    1.1873   -1.7302    0.0873 C   0  0  0  0  0  0  0  0  0  0  0  0
    1.6234   -1.6597    1.0879 H   0  0  0  0  0  0  0  0  0  0  0  0
    0.2956   -2.3564    0.1492 H   0  0  0  0  0  0  0  0  0  0  0  0
    2.1738   -2.3972   -0.8698 C   0  0  0  0  0  0  0  0  0  0  0  0
    1.6935   -3.1085   -1.7877 O   0  5  0  0  0  0  0  0  0  0  0  0
    3.3879   -2.0954   -0.7595 O   0  0  0  0  0  0  0  0  0  0  0  0
   -0.2243    1.9279   -0.2321 C   0  0  0  0  0  0  0  0  0  0  0  0
   -0.8183    2.8208    0.3604 O   0  0  0  0  0  0  0  0  0  0  0  0
    0.2662    2.2089   -1.4972 N   0  0  0  0  0  0  0  0  0  0  0  0
    0.7934    1.4700   -1.9572 H   0  0  0  0  0  0  0  0  0  0  0  0
    0.2257    3.5290   -2.1094 C   0  0  0  0  0  0  0  0  0  0  0  0
    0.7701    4.2528   -1.4944 H   0  0  0  0  0  0  0  0  0  0  0  0
    0.6893    3.4968   -3.0999 H   0  0  0  0  0  0  0  0  0  0  0  0
   -0.8093    3.8668   -2.2231 H   0  0  0  0  0  0  0  0  0  0  0  0
  1  2  1  0  0  0  0
  2  3  1  0  0  0  0
  2  4  1  0  0  0  0
  2  5  1  0  0  0  0
  5  6  2  0  0  0  0
  5  7  1  0  0  0  0
  7  8  1  0  0  0  0
  7  9  1  0  0  0  0
  9 10  1  0  0  0  0
  9 11  1  0  0  0  0
  9 20  1  0  0  0  0
 11 12  1  0  0  0  0
 11 13  1  0  0  0  0
 11 14  1  0  0  0  0
 14 15  1  0  0  0  0
 14 16  1  0  0  0  0
 14 17  1  0  0  0  0
 17 18  1  0  0  0  0
 17 19  2  0  0  0  0
 20 21  2  0  0  0  0
 20 22  1  0  0  0  0
 22 23  1  0  0  0  0
 22 24  1  0  0  0  0
 24 25  1  0  0  0  0
 24 26  1  0  0  0  0
 24 27  1  0  0  0  0
M  CHG  1  18  -1
M  END
$$$$

  -OEChem-01062216073D

 27 26  0     1  0  0  0  0  0999 V2000
   -3.2588   -2.8464    1.3836 H   0  0  0  0  0  0  0  0  0  0  0  0
   -3.0753   -2.0466    0.6606 C   0  0  0  0  0  0  0  0  0  0  0  0
   -3.9692   -1.4226    0.5894 H   0  0  0  0  0  0  0  0  0  0  0  0
   -2.8723   -2.4956   -0.3151 H   0  0  0  0  0  0  0  0  0  0  0  0
   -1.8873   -1.2080    1.0971 C   0  0  0  0  0  0  0  0  0  0  0  0
   -1.3145   -1.4658    2.1442 O   0  0  0  0  0  0  0  0  0  0  0  0
   -1.5360   -0.0963    0.3596 N   0  0  0  0  0  0  0  0  0  0  0  0
   -2.0741    0.0378   -0.4899 H   0  0  0  0  0  0  0  0  0  0  0  0
   -0.1942    0.5162    0.3843 C   0  0  1  0  0  0  0  0  0  0  0  0
    0.1665    0.6078    1.4147 H   0  0  0  0  0  0  0  0  0  0  0  0
    0.8175   -0.3123   -0.4508 C   0  0  0  0  0  0  0  0  0  0  0  0
    0.4197   -0.4378   -1.4636 H   0  0  0  0  0  0  0  0  0  0  0  0
    1.7518    0.2556   -0.5269 H   0  0  0  0  0  0  0  0  0  0  0  0
    1.1741   -1.7086    0.0779 C   0  0  0  0  0  0  0  0  0  0  0  0
    1.6146   -1.6333    1.0765 H   0  0  0  0  0  0  0  0  0  0  0  0
    0.2879   -2.3420    0.1436 H   0  0  0  0  0  0  0  0  0  0  0  0
    2.1567   -2.3727   -0.8858 C   0  0  0  0  0  0  0  0  0  0  0  0
    1.6913   -2.7816   -1.9803 O   0  5  0  0  0  0  0  0  0  0  0  0
    3.3721   -2.3926   -0.5731 O   0  0  0  0  0  0  0  0  0  0  0  0
   -0.2578    1.9324   -0.2363 C   0  0  0  0  0  0  0  0  0  0  0  0
   -0.6002    2.8864    0.4513 O   0  0  0  0  0  0  0  0  0  0  0  0
   -0.0594    2.1416   -1.5916 N   0  0  0  0  0  0  0  0  0  0  0  0
    0.3099    1.3551   -2.1210 H   0  0  0  0  0  0  0  0  0  0  0  0
   -0.0732    3.4575   -2.2141 C   0  0  0  0  0  0  0  0  0  0  0  0
    0.7270    4.0826   -1.8049 H   0  0  0  0  0  0  0  0  0  0  0  0
    0.0775    3.3623   -3.2935 H   0  0  0  0  0  0  0  0  0  0  0  0
   -1.0339    3.9538   -2.0429 H   0  0  0  0  0  0  0  0  0  0  0  0
  1  2  1  0  0  0  0
  2  3  1  0  0  0  0
  2  4  1  0  0  0  0
  2  5  1  0  0  0  0
  5  6  2  0  0  0  0
  5  7  1  0  0  0  0
  7  8  1  0  0  0  0
  7  9  1  0  0  0  0
  9 10  1  0  0  0  0
  9 11  1  0  0  0  0
  9 20  1  0  0  0  0
 11 12  1  0  0  0  0
 11 13  1  0  0  0  0
 11 14  1  0  0  0  0
 14 15  1  0  0  0  0
 14 16  1  0  0  0  0
 14 17  1  0  0  0  0
 17 18  1  0  0  0  0
 17 19  2  0  0  0  0
 20 21  2  0  0  0  0
 20 22  1  0  0  0  0
 22 23  1  0  0  0  0
 22 24  1  0  0  0  0
 24 25  1  0  0  0  0
 24 26  1  0  0  0  0
 24 27  1  0  0  0  0
M  CHG  1  18  -1
M  END
$$$$

  -OEChem-01062216073D

 27 26  0     1  0  0  0  0  0999 V2000
   -3.2547   -2.8589    1.3975 H   0  0  0  0  0  0  0  0  0  0  0  0
   -3.0783   -2.0550    0.6774 C   0  0  0  0  0  0  0  0  0  0  0  0
   -3.9747   -1.4331    0.6156 H   0  0  0  0  0  0  0  0  0  0  0  0
   -2.8810   -2.4983   -0.3021 H   0  0  0  0  0  0  0  0  0  0  0  0
   -1.8895   -1.2158    1.1105 C   0  0  0  0  0  0  0  0  0  0  0  0
   -1.3130   -1.4733    2.1554 O   0  0  0  0  0  0  0  0  0  0  0  0
   -1.5438   -0.1024    0.3728 N   0  0  0  0  0  0  0  0  0  0  0  0
   -2.0811    0.0270   -0.4779 H   0  0  0  0  0  0  0  0  0  0  0  0
   -0.2047    0.5164    0.4004 C   0  0  1  0  0  0  0  0  0  0  0  0
    0.1599    0.6041    1.4300 H   0  0  0  0  0  0  0  0  0  0  0  0
    0.8069   -0.2937   -0.4498 C   0  0  0  0  0  0  0  0  0  0  0  0
    0.4096   -0.4077   -1.4637 H   0  0  0  0  0  0  0  0  0  0  0  0
    1.7373    0.2813   -0.5212 H   0  0  0  0  0  0  0  0  0  0  0  0
    1.1680   -1.6948    0.0636 C   0  0  0  0  0  0  0  0  0  0  0  0
    1.6086   -1.6284    1.0628 H   0  0  0  0  0  0  0  0  0  0  0  0
    0.2826   -2.3300    0.1239 H   0  0  0  0  0  0  0  0  0  0  0  0
    2.1504   -2.3509   -0.9062 C   0  0  0  0  0  0  0  0  0  0  0  0
    1.6891   -2.7203   -2.0169 O   0  5  0  0  0  0  0  0  0  0  0  0
    3.3592   -2.4181   -0.5751 O   0  0  0  0  0  0  0  0  0  0  0  0
   -0.2737    1.9293   -0.2197 C   0  0  0  0  0  0  0  0  0  0  0  0
   -0.3541    2.9166    0.5001 O   0  0  0  0  0  0  0  0  0  0  0  0
   -0.3804    2.0992   -1.5905 N   0  0  0  0  0  0  0  0  0  0  0  0
   -0.1737    1.2820   -2.1596 H   0  0  0  0  0  0  0  0  0  0  0  0
   -0.3981    3.4058   -2.2322 C   0  0  0  0  0  0  0  0  0  0  0  0
    0.5331    3.9442   -2.0288 H   0  0  0  0  0  0  0  0  0  0  0  0
   -0.5040    3.2901   -3.3150 H   0  0  0  0  0  0  0  0  0  0  0  0
   -1.2400    4.0019   -1.8656 H   0  0  0  0  0  0  0  0  0  0  0  0
  1  2  1  0  0  0  0
  2  3  1  0  0  0  0
  2  4  1  0  0  0  0
  2  5  1  0  0  0  0
  5  6  2  0  0  0  0
  5  7  1  0  0  0  0
  7  8  1  0  0  0  0
  7  9  1  0  0  0  0
  9 10  1  0  0  0  0
  9 11  1  0  0  0  0
  9 20  1  0  0  0  0
 11 12  1  0  0  0  0
 11 13  1  0  0  0  0
 11 14  1  0  0  0  0
 14 15  1  0  0  0  0
 14 16  1  0  0  0  0
 14 17  1  0  0  0  0
 17 18  1  0  0  0  0
 17 19  2  0  0  0  0
 20 21  2  0  0  0  0
 20 22  1  0  0  0  0
 22 23  1  0  0  0  0
 22 24  1  0  0  0  0
 24 25  1  0  0  0  0
 24 26  1  0  0  0  0
 24 27  1  0  0  0  0
M  CHG  1  18  -1
M  END
$$$$

  -OEChem-01062216073D

 27 26  0     1  0  0  0  0  0999 V2000
   -3.2285   -2.8906    1.4014 H   0  0  0  0  0  0  0  0  0  0  0  0
   -3.0666   -2.0775    0.6882 C   0  0  0  0  0  0  0  0  0  0  0  0
   -3.9739   -1.4715    0.6311 H   0  0  0  0  0  0  0  0  0  0  0  0
   -2.8606   -2.5093   -0.2947 H   0  0  0  0  0  0  0  0  0  0  0  0
   -1.8937   -1.2200    1.1288 C   0  0  0  0  0  0  0  0  0  0  0  0
   -1.3244   -1.4645    2.1806 O   0  0  0  0  0  0  0  0  0  0  0  0
   -1.5537   -0.1057    0.3891 N   0  0  0  0  0  0  0  0  0  0  0  0
   -2.0847    0.0136   -0.4666 H   0  0  0  0  0  0  0  0  0  0  0  0
   -0.2174    0.5211    0.4258 C   0  0  1  0  0  0  0  0  0  0  0  0
    0.1501    0.6021    1.4549 H   0  0  0  0  0  0  0  0  0  0  0  0
    0.7901   -0.2743   -0.4422 C   0  0  0  0  0  0  0  0  0  0  0  0
    0.3923   -0.3668   -1.4581 H   0  0  0  0  0  0  0  0  0  0  0  0
    1.7211    0.3005   -0.5059 H   0  0  0  0  0  0  0  0  0  0  0  0
    1.1509   -1.6833    0.0516 C   0  0  0  0  0  0  0  0  0  0  0  0
    1.5951   -1.6295    1.0501 H   0  0  0  0  0  0  0  0  0  0  0  0
    0.2640   -2.3167    0.1078 H   0  0  0  0  0  0  0  0  0  0  0  0
    2.1288   -2.3331   -0.9269 C   0  0  0  0  0  0  0  0  0  0  0  0
    1.6636   -2.6851   -2.0417 O   0  5  0  0  0  0  0  0  0  0  0  0
    3.3348   -2.4272   -0.5923 O   0  0  0  0  0  0  0  0  0  0  0  0
   -0.2825    1.9316   -0.1958 C   0  0  0  0  0  0  0  0  0  0  0  0
   -0.1014    2.9258    0.4955 O   0  0  0  0  0  0  0  0  0  0  0  0
   -0.6824    2.0962   -1.5120 N   0  0  0  0  0  0  0  0  0  0  0  0
   -0.6437    1.2625   -2.0921 H   0  0  0  0  0  0  0  0  0  0  0  0
   -0.7105    3.3944   -2.1708 C   0  0  0  0  0  0  0  0  0  0  0  0
    0.2947    3.8268   -2.2066 H   0  0  0  0  0  0  0  0  0  0  0  0
   -1.0805    3.2879   -3.1949 H   0  0  0  0  0  0  0  0  0  0  0  0
   -1.3734    4.0820   -1.6355 H   0  0  0  0  0  0  0  0  0  0  0  0
  1  2  1  0  0  0  0
  2  3  1  0  0  0  0
  2  4  1  0  0  0  0
  2  5  1  0  0  0  0
  5  6  2  0  0  0  0
  5  7  1  0  0  0  0
  7  8  1  0  0  0  0
  7  9  1  0  0  0  0
  9 10  1  0  0  0  0
  9 11  1  0  0  0  0
  9 20  1  0  0  0  0
 11 12  1  0  0  0  0
 11 13  1  0  0  0  0
 11 14  1  0  0  0  0
 14 15  1  0  0  0  0
 14 16  1  0  0  0  0
 14 17  1  0  0  0  0
 17 18  1  0  0  0  0
 17 19  2  0  0  0  0
 20 21  2  0  0  0  0
 20 22  1  0  0  0  0
 22 23  1  0  0  0  0
 22 24  1  0  0  0  0
 24 25  1  0  0  0  0
 24 26  1  0  0  0  0
 24 27  1  0  0  0  0
M  CHG  1  18  -1
M  END
$$$$

  -OEChem-01062216073D

 27 26  0     1  0  0  0  0  0999 V2000
   -3.1805   -2.9379    1.4058 H   0  0  0  0  0  0  0  0  0  0  0  0
   -3.0387   -2.1158    0.6986 C   0  0  0  0  0  0  0  0  0  0  0  0
   -3.9634   -1.5372    0.6390 H   0  0  0  0  0  0  0  0  0  0  0  0
   -2.8134   -2.5358   -0.2851 H   0  0  0  0  0  0  0  0  0  0  0  0
   -1.8951   -1.2262    1.1523 C   0  0  0  0  0  0  0  0  0  0  0  0
   -1.3407   -1.4446    2.2176 O   0  0  0  0  0  0  0  0  0  0  0  0
   -1.5655   -0.1128    0.4061 N   0  0  0  0  0  0  0  0  0  0  0  0
   -2.0806   -0.0228   -0.4619 H   0  0  0  0  0  0  0  0  0  0  0  0
   -0.2337    0.5266    0.4508 C   0  0  1  0  0  0  0  0  0  0  0  0
    0.1367    0.6031    1.4795 H   0  0  0  0  0  0  0  0  0  0  0  0
    0.7658   -0.2610   -0.4314 C   0  0  0  0  0  0  0  0  0  0  0  0
    0.3614   -0.3382   -1.4465 H   0  0  0  0  0  0  0  0  0  0  0  0
    1.6984    0.3117   -0.4944 H   0  0  0  0  0  0  0  0  0  0  0  0
    1.1269   -1.6755    0.0488 C   0  0  0  0  0  0  0  0  0  0  0  0
    1.5768   -1.6303    1.0452 H   0  0  0  0  0  0  0  0  0  0  0  0
    0.2398   -2.3084    0.1056 H   0  0  0  0  0  0  0  0  0  0  0  0
    2.0969   -2.3224   -0.9394 C   0  0  0  0  0  0  0  0  0  0  0  0
    1.6206   -2.6714   -2.0506 O   0  5  0  0  0  0  0  0  0  0  0  0
    3.3040   -2.4286   -0.6125 O   0  0  0  0  0  0  0  0  0  0  0  0
   -0.2859    1.9358   -0.1755 C   0  0  0  0  0  0  0  0  0  0  0  0
    0.1468    2.9047    0.4352 O   0  0  0  0  0  0  0  0  0  0  0  0
   -0.9495    2.1426   -1.3745 N   0  0  0  0  0  0  0  0  0  0  0  0
   -1.0974    1.3140   -1.9418 H   0  0  0  0  0  0  0  0  0  0  0  0
   -0.9887    3.4403   -2.0345 C   0  0  0  0  0  0  0  0  0  0  0  0
    0.0225    3.7645   -2.3008 H   0  0  0  0  0  0  0  0  0  0  0  0
   -1.5872    3.3791   -2.9482 H   0  0  0  0  0  0  0  0  0  0  0  0
   -1.4402    4.1914   -1.3781 H   0  0  0  0  0  0  0  0  0  0  0  0
  1  2  1  0  0  0  0
  2  3  1  0  0  0  0
  2  4  1  0  0  0  0
  2  5  1  0  0  0  0
  5  6  2  0  0  0  0
  5  7  1  0  0  0  0
  7  8  1  0  0  0  0
  7  9  1  0  0  0  0
  9 10  1  0  0  0  0
  9 11  1  0  0  0  0
  9 20  1  0  0  0  0
 11 12  1  0  0  0  0
 11 13  1  0  0  0  0
 11 14  1  0  0  0  0
 14 15  1  0  0  0  0
 14 16  1  0  0  0  0
 14 17  1  0  0  0  0
 17 18  1  0  0  0  0
 17 19  2  0  0  0  0
 20 21  2  0  0  0  0
 20 22  1  0  0  0  0
 22 23  1  0  0  0  0
 22 24  1  0  0  0  0
 24 25  1  0  0  0  0
 24 26  1  0  0  0  0
 24 27  1  0  0  0  0
M  CHG  1  18  -1
M  END
$$$$

  -OEChem-01062216073D

 27 26  0     1  0  0  0  0  0999 V2000
   -3.0894   -3.0058    1.4162 H   0  0  0  0  0  0  0  0  0  0  0  0
   -2.9659   -2.1894    0.6990 C   0  0  0  0  0  0  0  0  0  0  0  0
   -3.9188   -1.6661    0.5913 H   0  0  0  0  0  0  0  0  0  0  0  0
   -2.6775   -2.6133   -0.2666 H   0  0  0  0  0  0  0  0  0  0  0  0
   -1.8939   -1.2278    1.1800 C   0  0  0  0  0  0  0  0  0  0  0  0
   -1.3754   -1.3907    2.2730 O   0  0  0  0  0  0  0  0  0  0  0  0
   -1.5909   -0.1147    0.4215 N   0  0  0  0  0  0  0  0  0  0  0  0
   -2.0509   -0.1150   -0.4805 H   0  0  0  0  0  0  0  0  0  0  0  0
   -0.2619    0.5351    0.4655 C   0  0  1  0  0  0  0  0  0  0  0  0
    0.1136    0.6081    1.4925 H   0  0  0  0  0  0  0  0  0  0  0  0
    0.7289   -0.2560   -0.4238 C   0  0  0  0  0  0  0  0  0  0  0  0
    0.3163   -0.3285   -1.4361 H   0  0  0  0  0  0  0  0  0  0  0  0
    1.6636    0.3126   -0.4942 H   0  0  0  0  0  0  0  0  0  0  0  0
    1.0905   -1.6715    0.0568 C   0  0  0  0  0  0  0  0  0  0  0  0
    1.5493   -1.6234    1.0489 H   0  0  0  0  0  0  0  0  0  0  0  0
    0.2043   -2.3037    0.1233 H   0  0  0  0  0  0  0  0  0  0  0  0
    2.0504   -2.3270   -0.9347 C   0  0  0  0  0  0  0  0  0  0  0  0
    1.5603   -2.6899   -2.0352 O   0  5  0  0  0  0  0  0  0  0  0  0
    3.2589   -2.4412   -0.6161 O   0  0  0  0  0  0  0  0  0  0  0  0
   -0.2941    1.9477   -0.1599 C   0  0  0  0  0  0  0  0  0  0  0  0
    0.3964    2.8448    0.3058 O   0  0  0  0  0  0  0  0  0  0  0  0
   -1.1789    2.2578   -1.1806 N   0  0  0  0  0  0  0  0  0  0  0  0
   -1.6092    1.4735   -1.6551 H   0  0  0  0  0  0  0  0  0  0  0  0
   -1.2069    3.5599   -1.8330 C   0  0  0  0  0  0  0  0  0  0  0  0
   -0.2497    3.7626   -2.3245 H   0  0  0  0  0  0  0  0  0  0  0  0
   -1.9980    3.5846   -2.5881 H   0  0  0  0  0  0  0  0  0  0  0  0
   -1.4044    4.3509   -1.1023 H   0  0  0  0  0  0  0  0  0  0  0  0
  1  2  1  0  0  0  0
  2  3  1  0  0  0  0
  2  4  1  0  0  0  0
  2  5  1  0  0  0  0
  5  6  2  0  0  0  0
  5  7  1  0  0  0  0
  7  8  1  0  0  0  0
  7  9  1  0  0  0  0
  9 10  1  0  0  0  0
  9 11  1  0  0  0  0
  9 20  1  0  0  0  0
 11 12  1  0  0  0  0
 11 13  1  0  0  0  0
 11 14  1  0  0  0  0
 14 15  1  0  0  0  0
 14 16  1  0  0  0  0
 14 17  1  0  0  0  0
 17 18  1  0  0  0  0
 17 19  2  0  0  0  0
 20 21  2  0  0  0  0
 20 22  1  0  0  0  0
 22 23  1  0  0  0  0
 22 24  1  0  0  0  0
 24 25  1  0  0  0  0
 24 26  1  0  0  0  0
 24 27  1  0  0  0  0
M  CHG  1  18  -1
M  END
$$$$

  -OEChem-01062216073D

 27 26  0     1  0  0  0  0  0999 V2000
   -3.0104   -3.0277    1.3841 H   0  0  0  0  0  0  0  0  0  0  0  0
   -2.8903   -2.2213    0.6551 C   0  0  0  0  0  0  0  0  0  0  0  0
   -3.8597   -1.7448    0.4920 H   0  0  0  0  0  0  0  0  0  0  0  0
   -2.5381   -2.6510   -0.2867 H   0  0  0  0  0  0  0  0  0  0  0  0
   -1.8864   -1.2018    1.1633 C   0  0  0  0  0  0  0  0  0  0  0  0
   -1.4308   -1.3019    2.2913 O   0  0  0  0  0  0  0  0  0  0  0  0
   -1.5896   -0.0949    0.3934 N   0  0  0  0  0  0  0  0  0  0  0  0
   -1.9717   -0.1839   -0.5419 H   0  0  0  0  0  0  0  0  0  0  0  0
   -0.2521    0.5398    0.4382 C   0  0  1  0  0  0  0  0  0  0  0  0
    0.1173    0.6189    1.4666 H   0  0  0  0  0  0  0  0  0  0  0  0
    0.7374   -0.2789   -0.4310 C   0  0  0  0  0  0  0  0  0  0  0  0
    0.3330   -0.3608   -1.4460 H   0  0  0  0  0  0  0  0  0  0  0  0
    1.6810    0.2744   -0.5022 H   0  0  0  0  0  0  0  0  0  0  0  0
    1.0760   -1.6914    0.0783 C   0  0  0  0  0  0  0  0  0  0  0  0
    1.5239   -1.6309    1.0747 H   0  0  0  0  0  0  0  0  0  0  0  0
    0.1820   -2.3114    0.1468 H   0  0  0  0  0  0  0  0  0  0  0  0
    2.0362   -2.3851   -0.8867 C   0  0  0  0  0  0  0  0  0  0  0  0
    1.5440   -2.8057   -1.9654 O   0  5  0  0  0  0  0  0  0  0  0  0
    3.2439   -2.4886   -0.5610 O   0  0  0  0  0  0  0  0  0  0  0  0
   -0.2708    1.9529   -0.1911 C   0  0  0  0  0  0  0  0  0  0  0  0
    0.6323    2.7489    0.0306 O   0  0  0  0  0  0  0  0  0  0  0  0
   -1.3320    2.3697   -0.9779 N   0  0  0  0  0  0  0  0  0  0  0  0
   -2.1289    1.7480   -1.0353 H   0  0  0  0  0  0  0  0  0  0  0  0
   -1.4389    3.7085   -1.5406 C   0  0  0  0  0  0  0  0  0  0  0  0
   -0.5785    3.9231   -2.1828 H   0  0  0  0  0  0  0  0  0  0  0  0
   -2.3481    3.7908   -2.1433 H   0  0  0  0  0  0  0  0  0  0  0  0
   -1.4813    4.4571   -0.7430 H   0  0  0  0  0  0  0  0  0  0  0  0
  1  2  1  0  0  0  0
  2  3  1  0  0  0  0
  2  4  1  0  0  0  0
  2  5  1  0  0  0  0
  5  6  2  0  0  0  0
  5  7  1  0  0  0  0
  7  8  1  0  0  0  0
  7  9  1  0  0  0  0
  9 10  1  0  0  0  0
  9 11  1  0  0  0  0
  9 20  1  0  0  0  0
 11 12  1  0  0  0  0
 11 13  1  0  0  0  0
 11 14  1  0  0  0  0
 14 15  1  0  0  0  0
 14 16  1  0  0  0  0
 14 17  1  0  0  0  0
 17 18  1  0  0  0  0
 17 19  2  0  0  0  0
 20 21  2  0  0  0  0
 20 22  1  0  0  0  0
 22 23  1  0  0  0  0
 22 24  1  0  0  0  0
 24 25  1  0  0  0  0
 24 26  1  0  0  0  0
 24 27  1  0  0  0  0
M  CHG  1  18  -1
M  END
$$$$

  -OEChem-01062216073D

 27 26  0     1  0  0  0  0  0999 V2000
   -2.9922   -3.0292    1.3422 H   0  0  0  0  0  0  0  0  0  0  0  0
   -2.8767   -2.2135    0.6228 C   0  0  0  0  0  0  0  0  0  0  0  0
   -3.8493   -1.7423    0.4624 H   0  0  0  0  0  0  0  0  0  0  0  0
   -2.5193   -2.6304   -0.3228 H   0  0  0  0  0  0  0  0  0  0  0  0
   -1.8807   -1.1931    1.1437 C   0  0  0  0  0  0  0  0  0  0  0  0
   -1.4441   -1.2858    2.2798 O   0  0  0  0  0  0  0  0  0  0  0  0
   -1.5758   -0.0852    0.3794 N   0  0  0  0  0  0  0  0  0  0  0  0
   -1.9557   -0.1652   -0.5590 H   0  0  0  0  0  0  0  0  0  0  0  0
   -0.2333    0.5395    0.4227 C   0  0  1  0  0  0  0  0  0  0  0  0
    0.1338    0.6215    1.4516 H   0  0  0  0  0  0  0  0  0  0  0  0
    0.7552   -0.2941   -0.4361 C   0  0  0  0  0  0  0  0  0  0  0  0
    0.3536   -0.3823   -1.4515 H   0  0  0  0  0  0  0  0  0  0  0  0
    1.7042    0.2492   -0.5097 H   0  0  0  0  0  0  0  0  0  0  0  0
    1.0812   -1.7044    0.0889 C   0  0  0  0  0  0  0  0  0  0  0  0
    1.5244   -1.6355    1.0868 H   0  0  0  0  0  0  0  0  0  0  0  0
    0.1830   -2.3178    0.1596 H   0  0  0  0  0  0  0  0  0  0  0  0
    2.0408   -2.4180   -0.8622 C   0  0  0  0  0  0  0  0  0  0  0  0
    1.5525   -2.8475   -1.9391 O   0  5  0  0  0  0  0  0  0  0  0  0
    3.2439   -2.5345   -0.5237 O   0  0  0  0  0  0  0  0  0  0  0  0
   -0.2648    1.9549   -0.2047 C   0  0  0  0  0  0  0  0  0  0  0  0
    0.7264    2.6732   -0.2168 O   0  0  0  0  0  0  0  0  0  0  0  0
   -1.4487    2.4675   -0.7086 N   0  0  0  0  0  0  0  0  0  0  0  0
   -2.2856    1.9350   -0.4985 H   0  0  0  0  0  0  0  0  0  0  0  0
   -1.5872    3.8304   -1.2020 C   0  0  0  0  0  0  0  0  0  0  0  0
   -0.8792    4.0165   -2.0163 H   0  0  0  0  0  0  0  0  0  0  0  0
   -2.5996    3.9906   -1.5839 H   0  0  0  0  0  0  0  0  0  0  0  0
   -1.4000    4.5492   -0.3978 H   0  0  0  0  0  0  0  0  0  0  0  0
  1  2  1  0  0  0  0
  2  3  1  0  0  0  0
  2  4  1  0  0  0  0
  2  5  1  0  0  0  0
  5  6  2  0  0  0  0
  5  7  1  0  0  0  0
  7  8  1  0  0  0  0
  7  9  1  0  0  0  0
  9 10  1  0  0  0  0
  9 11  1  0  0  0  0
  9 20  1  0  0  0  0
 11 12  1  0  0  0  0
 11 13  1  0  0  0  0
 11 14  1  0  0  0  0
 14 15  1  0  0  0  0
 14 16  1  0  0  0  0
 14 17  1  0  0  0  0
 17 18  1  0  0  0  0
 17 19  2  0  0  0  0
 20 21  2  0  0  0  0
 20 22  1  0  0  0  0
 22 23  1  0  0  0  0
 22 24  1  0  0  0  0
 24 25  1  0  0  0  0
 24 26  1  0  0  0  0
 24 27  1  0  0  0  0
M  CHG  1  18  -1
M  END
$$$$

  -OEChem-01062216073D

 27 26  0     1  0  0  0  0  0999 V2000
   -3.0067   -3.0147    1.3107 H   0  0  0  0  0  0  0  0  0  0  0  0
   -2.8852   -2.1948    0.5971 C   0  0  0  0  0  0  0  0  0  0  0  0
   -3.8526   -1.7102    0.4462 H   0  0  0  0  0  0  0  0  0  0  0  0
   -2.5387   -2.6088   -0.3538 H   0  0  0  0  0  0  0  0  0  0  0  0
   -1.8734   -1.1913    1.1206 C   0  0  0  0  0  0  0  0  0  0  0  0
   -1.4379   -1.2934    2.2565 O   0  0  0  0  0  0  0  0  0  0  0  0
   -1.5596   -0.0780    0.3680 N   0  0  0  0  0  0  0  0  0  0  0  0
   -1.9549   -0.1290   -0.5667 H   0  0  0  0  0  0  0  0  0  0  0  0
   -0.2129    0.5381    0.4089 C   0  0  1  0  0  0  0  0  0  0  0  0
    0.1529    0.6194    1.4378 H   0  0  0  0  0  0  0  0  0  0  0  0
    0.7769   -0.3050   -0.4420 C   0  0  0  0  0  0  0  0  0  0  0  0
    0.3800   -0.3965   -1.4590 H   0  0  0  0  0  0  0  0  0  0  0  0
    1.7299    0.2310   -0.5133 H   0  0  0  0  0  0  0  0  0  0  0  0
    1.0952   -1.7133    0.0943 C   0  0  0  0  0  0  0  0  0  0  0  0
    1.5336   -1.6402    1.0940 H   0  0  0  0  0  0  0  0  0  0  0  0
    0.1941   -2.3224    0.1643 H   0  0  0  0  0  0  0  0  0  0  0  0
    2.0559   -2.4400   -0.8456 C   0  0  0  0  0  0  0  0  0  0  0  0
    1.5666   -2.9015   -1.9086 O   0  5  0  0  0  0  0  0  0  0  0  0
    3.2611   -2.5391   -0.5085 O   0  0  0  0  0  0  0  0  0  0  0  0
   -0.2631    1.9590   -0.2096 C   0  0  0  0  0  0  0  0  0  0  0  0
    0.7455    2.6019   -0.4692 O   0  0  0  0  0  0  0  0  0  0  0  0
   -1.4892    2.5728   -0.4020 N   0  0  0  0  0  0  0  0  0  0  0  0
   -2.2901    2.0871   -0.0113 H   0  0  0  0  0  0  0  0  0  0  0  0
   -1.6421    3.9529   -0.8406 C   0  0  0  0  0  0  0  0  0  0  0  0
   -1.1506    4.1046   -1.8072 H   0  0  0  0  0  0  0  0  0  0  0  0
   -2.7029    4.1962   -0.9519 H   0  0  0  0  0  0  0  0  0  0  0  0
   -1.2024    4.6379   -0.1085 H   0  0  0  0  0  0  0  0  0  0  0  0
  1  2  1  0  0  0  0
  2  3  1  0  0  0  0
  2  4  1  0  0  0  0
  2  5  1  0  0  0  0
  5  6  2  0  0  0  0
  5  7  1  0  0  0  0
  7  8  1  0  0  0  0
  7  9  1  0  0  0  0
  9 10  1  0  0  0  0
  9 11  1  0  0  0  0
  9 20  1  0  0  0  0
 11 12  1  0  0  0  0
 11 13  1  0  0  0  0
 11 14  1  0  0  0  0
 14 15  1  0  0  0  0
 14 16  1  0  0  0  0
 14 17  1  0  0  0  0
 17 18  1  0  0  0  0
 17 19  2  0  0  0  0
 20 21  2  0  0  0  0
 20 22  1  0  0  0  0
 22 23  1  0  0  0  0
 22 24  1  0  0  0  0
 24 25  1  0  0  0  0
 24 26  1  0  0  0  0
 24 27  1  0  0  0  0
M  CHG  1  18  -1
M  END
$$$$

  -OEChem-01062216073D

 27 26  0     1  0  0  0  0  0999 V2000
   -3.0235   -2.9976    1.2648 H   0  0  0  0  0  0  0  0  0  0  0  0
   -2.8939   -2.1690    0.5629 C   0  0  0  0  0  0  0  0  0  0  0  0
   -3.8562   -1.6718    0.4200 H   0  0  0  0  0  0  0  0  0  0  0  0
   -2.5528   -2.5728   -0.3942 H   0  0  0  0  0  0  0  0  0  0  0  0
   -1.8699   -1.1846    1.0984 C   0  0  0  0  0  0  0  0  0  0  0  0
   -1.4354   -1.3041    2.2330 O   0  0  0  0  0  0  0  0  0  0  0  0
   -1.5453   -0.0635    0.3634 N   0  0  0  0  0  0  0  0  0  0  0  0
   -1.9595   -0.0789   -0.5645 H   0  0  0  0  0  0  0  0  0  0  0  0
   -0.1922    0.5368    0.3995 C   0  0  1  0  0  0  0  0  0  0  0  0
    0.1745    0.6123    1.4285 H   0  0  0  0  0  0  0  0  0  0  0  0
    0.7985   -0.3133   -0.4446 C   0  0  0  0  0  0  0  0  0  0  0  0
    0.4060   -0.4071   -1.4631 H   0  0  0  0  0  0  0  0  0  0  0  0
    1.7544    0.2179   -0.5122 H   0  0  0  0  0  0  0  0  0  0  0  0
    1.1072   -1.7204    0.1005 C   0  0  0  0  0  0  0  0  0  0  0  0
    1.5410   -1.6439    1.1021 H   0  0  0  0  0  0  0  0  0  0  0  0
    0.2028   -2.3243    0.1701 H   0  0  0  0  0  0  0  0  0  0  0  0
    2.0692   -2.4581   -0.8292 C   0  0  0  0  0  0  0  0  0  0  0  0
    1.5758   -2.9672   -1.8681 O   0  5  0  0  0  0  0  0  0  0  0  0
    3.2817   -2.5159   -0.5084 O   0  0  0  0  0  0  0  0  0  0  0  0
   -0.2598    1.9655   -0.2002 C   0  0  0  0  0  0  0  0  0  0  0  0
    0.6881    2.5211   -0.7396 O   0  0  0  0  0  0  0  0  0  0  0  0
   -1.4371    2.6816   -0.0700 N   0  0  0  0  0  0  0  0  0  0  0  0
   -2.1686    2.2380    0.4774 H   0  0  0  0  0  0  0  0  0  0  0  0
   -1.5990    4.0658   -0.4916 C   0  0  0  0  0  0  0  0  0  0  0  0
   -1.3945    4.1668   -1.5624 H   0  0  0  0  0  0  0  0  0  0  0  0
   -2.6242    4.3981   -0.3036 H   0  0  0  0  0  0  0  0  0  0  0  0
   -0.9150    4.7165    0.0627 H   0  0  0  0  0  0  0  0  0  0  0  0
  1  2  1  0  0  0  0
  2  3  1  0  0  0  0
  2  4  1  0  0  0  0
  2  5  1  0  0  0  0
  5  6  2  0  0  0  0
  5  7  1  0  0  0  0
  7  8  1  0  0  0  0
  7  9  1  0  0  0  0
  9 10  1  0  0  0  0
  9 11  1  0  0  0  0
  9 20  1  0  0  0  0
 11 12  1  0  0  0  0
 11 13  1  0  0  0  0
 11 14  1  0  0  0  0
 14 15  1  0  0  0  0
 14 16  1  0  0  0  0
 14 17  1  0  0  0  0
 17 18  1  0  0  0  0
 17 19  2  0  0  0  0
 20 21  2  0  0  0  0
 20 22  1  0  0  0  0
 22 23  1  0  0  0  0
 22 24  1  0  0  0  0
 24 25  1  0  0  0  0
 24 26  1  0  0  0  0
 24 27  1  0  0  0  0
M  CHG  1  18  -1
M  END
$$$$

  -OEChem-01062216073D

 27 26  0     1  0  0  0  0  0999 V2000
   -3.0786   -2.9502    1.2382 H   0  0  0  0  0  0  0  0  0  0  0  0
   -2.9111   -2.1316    0.5326 C   0  0  0  0  0  0  0  0  0  0  0  0
   -3.8544   -1.6055    0.3687 H   0  0  0  0  0  0  0  0  0  0  0  0
   -2.5659   -2.5528   -0.4157 H   0  0  0  0  0  0  0  0  0  0  0  0
   -1.8675   -1.1745    1.0792 C   0  0  0  0  0  0  0  0  0  0  0  0
   -1.4331   -1.3159    2.2118 O   0  0  0  0  0  0  0  0  0  0  0  0
   -1.5297   -0.0452    0.3643 N   0  0  0  0  0  0  0  0  0  0  0  0
   -1.9565   -0.0277   -0.5581 H   0  0  0  0  0  0  0  0  0  0  0  0
   -0.1694    0.5334    0.4008 C   0  0  1  0  0  0  0  0  0  0  0  0
    0.1979    0.5946    1.4304 H   0  0  0  0  0  0  0  0  0  0  0  0
    0.8225   -0.3167   -0.4415 C   0  0  0  0  0  0  0  0  0  0  0  0
    0.4359   -0.4062   -1.4626 H   0  0  0  0  0  0  0  0  0  0  0  0
    1.7799    0.2129   -0.5008 H   0  0  0  0  0  0  0  0  0  0  0  0
    1.1185   -1.7272    0.1013 C   0  0  0  0  0  0  0  0  0  0  0  0
    1.5452   -1.6573    1.1064 H   0  0  0  0  0  0  0  0  0  0  0  0
    0.2090   -2.3247    0.1626 H   0  0  0  0  0  0  0  0  0  0  0  0
    2.0830   -2.4695   -0.8221 C   0  0  0  0  0  0  0  0  0  0  0  0
    1.5879   -3.0252   -1.8358 O   0  5  0  0  0  0  0  0  0  0  0  0
    3.3019   -2.4821   -0.5203 O   0  0  0  0  0  0  0  0  0  0  0  0
   -0.2418    1.9707   -0.1741 C   0  0  0  0  0  0  0  0  0  0  0  0
    0.5521    2.4319   -0.9837 O   0  0  0  0  0  0  0  0  0  0  0  0
   -1.2757    2.7853    0.2523 N   0  0  0  0  0  0  0  0  0  0  0  0
   -1.9170    2.3816    0.9290 H   0  0  0  0  0  0  0  0  0  0  0  0
   -1.4673    4.1601   -0.1872 C   0  0  0  0  0  0  0  0  0  0  0  0
   -1.6060    4.1990   -1.2725 H   0  0  0  0  0  0  0  0  0  0  0  0
   -2.3541    4.5870    0.2905 H   0  0  0  0  0  0  0  0  0  0  0  0
   -0.6001    4.7718    0.0817 H   0  0  0  0  0  0  0  0  0  0  0  0
  1  2  1  0  0  0  0
  2  3  1  0  0  0  0
  2  4  1  0  0  0  0
  2  5  1  0  0  0  0
  5  6  2  0  0  0  0
  5  7  1  0  0  0  0
  7  8  1  0  0  0  0
  7  9  1  0  0  0  0
  9 10  1  0  0  0  0
  9 11  1  0  0  0  0
  9 20  1  0  0  0  0
 11 12  1  0  0  0  0
 11 13  1  0  0  0  0
 11 14  1  0  0  0  0
 14 15  1  0  0  0  0
 14 16  1  0  0  0  0
 14 17  1  0  0  0  0
 17 18  1  0  0  0  0
 17 19  2  0  0  0  0
 20 21  2  0  0  0  0
 20 22  1  0  0  0  0
 22 23  1  0  0  0  0
 22 24  1  0  0  0  0
 24 25  1  0  0  0  0
 24 26  1  0  0  0  0
 24 27  1  0  0  0  0
M  CHG  1  18  -1
M  END
$$$$

  -OEChem-01062216073D

 27 26  0     1  0  0  0  0  0999 V2000
   -3.0912   -2.9428    1.1898 H   0  0  0  0  0  0  0  0  0  0  0  0
   -2.9310   -2.1059    0.5044 C   0  0  0  0  0  0  0  0  0  0  0  0
   -3.8747   -1.5723    0.3686 H   0  0  0  0  0  0  0  0  0  0  0  0
   -2.6010   -2.5026   -0.4596 H   0  0  0  0  0  0  0  0  0  0  0  0
   -1.8757   -1.1680    1.0616 C   0  0  0  0  0  0  0  0  0  0  0  0
   -1.4414   -1.3281    2.1921 O   0  0  0  0  0  0  0  0  0  0  0  0
   -1.5242   -0.0344    0.3605 N   0  0  0  0  0  0  0  0  0  0  0  0
   -1.9550    0.0065   -0.5593 H   0  0  0  0  0  0  0  0  0  0  0  0
   -0.1595    0.5281    0.4027 C   0  0  1  0  0  0  0  0  0  0  0  0
    0.2042    0.5759    1.4342 H   0  0  0  0  0  0  0  0  0  0  0  0
    0.8373   -0.3185   -0.4350 C   0  0  0  0  0  0  0  0  0  0  0  0
    0.4572   -0.4060   -1.4588 H   0  0  0  0  0  0  0  0  0  0  0  0
    1.7938    0.2138   -0.4863 H   0  0  0  0  0  0  0  0  0  0  0  0
    1.1240   -1.7314    0.1048 C   0  0  0  0  0  0  0  0  0  0  0  0
    1.5432   -1.6662    1.1131 H   0  0  0  0  0  0  0  0  0  0  0  0
    0.2112   -2.3250    0.1575 H   0  0  0  0  0  0  0  0  0  0  0  0
    2.0954   -2.4724   -0.8125 C   0  0  0  0  0  0  0  0  0  0  0  0
    1.6012   -3.0994   -1.7839 O   0  5  0  0  0  0  0  0  0  0  0  0
    3.3222   -2.4045   -0.5515 O   0  0  0  0  0  0  0  0  0  0  0  0
   -0.2189    1.9705   -0.1550 C   0  0  0  0  0  0  0  0  0  0  0  0
    0.3508    2.3398   -1.1739 O   0  0  0  0  0  0  0  0  0  0  0  0
   -1.0292    2.8787    0.5016 N   0  0  0  0  0  0  0  0  0  0  0  0
   -1.5500    2.5259    1.2992 H   0  0  0  0  0  0  0  0  0  0  0  0
   -1.2387    4.2504    0.0606 C   0  0  0  0  0  0  0  0  0  0  0  0
   -1.7185    4.2671   -0.9233 H   0  0  0  0  0  0  0  0  0  0  0  0
   -1.8822    4.7788    0.7700 H   0  0  0  0  0  0  0  0  0  0  0  0
   -0.2839    4.7826   -0.0019 H   0  0  0  0  0  0  0  0  0  0  0  0
  1  2  1  0  0  0  0
  2  3  1  0  0  0  0
  2  4  1  0  0  0  0
  2  5  1  0  0  0  0
  5  6  2  0  0  0  0
  5  7  1  0  0  0  0
  7  8  1  0  0  0  0
  7  9  1  0  0  0  0
  9 10  1  0  0  0  0
  9 11  1  0  0  0  0
  9 20  1  0  0  0  0
 11 12  1  0  0  0  0
 11 13  1  0  0  0  0
 11 14  1  0  0  0  0
 14 15  1  0  0  0  0
 14 16  1  0  0  0  0
 14 17  1  0  0  0  0
 17 18  1  0  0  0  0
 17 19  2  0  0  0  0
 20 21  2  0  0  0  0
 20 22  1  0  0  0  0
 22 23  1  0  0  0  0
 22 24  1  0  0  0  0
 24 25  1  0  0  0  0
 24 26  1  0  0  0  0
 24 27  1  0  0  0  0
M  CHG  1  18  -1
M  END
$$$$

  -OEChem-01062216073D

 27 26  0     1  0  0  0  0  0999 V2000
   -3.1504   -2.8959    1.1871 H   0  0  0  0  0  0  0  0  0  0  0  0
   -2.9505   -2.0787    0.4885 C   0  0  0  0  0  0  0  0  0  0  0  0
   -3.8752   -1.5222    0.3189 H   0  0  0  0  0  0  0  0  0  0  0  0
   -2.6095   -2.5046   -0.4592 H   0  0  0  0  0  0  0  0  0  0  0  0
   -1.8822   -1.1587    1.0511 C   0  0  0  0  0  0  0  0  0  0  0  0
   -1.4413   -1.3391    2.1763 O   0  0  0  0  0  0  0  0  0  0  0  0
   -1.5159   -0.0251    0.3583 N   0  0  0  0  0  0  0  0  0  0  0  0
   -1.9480    0.0376   -0.5599 H   0  0  0  0  0  0  0  0  0  0  0  0
   -0.1478    0.5226    0.4084 C   0  0  1  0  0  0  0  0  0  0  0  0
    0.2118    0.5568    1.4418 H   0  0  0  0  0  0  0  0  0  0  0  0
    0.8512   -0.3194   -0.4292 C   0  0  0  0  0  0  0  0  0  0  0  0
    0.4761   -0.4021   -1.4553 H   0  0  0  0  0  0  0  0  0  0  0  0
    1.8075    0.2138   -0.4736 H   0  0  0  0  0  0  0  0  0  0  0  0
    1.1269   -1.7373    0.1025 C   0  0  0  0  0  0  0  0  0  0  0  0
    1.5393   -1.6834    1.1142 H   0  0  0  0  0  0  0  0  0  0  0  0
    0.2090   -2.3245    0.1453 H   0  0  0  0  0  0  0  0  0  0  0  0
    2.1024   -2.4763   -0.8122 C   0  0  0  0  0  0  0  0  0  0  0  0
    1.6124   -3.2054   -1.7115 O   0  5  0  0  0  0  0  0  0  0  0  0
    3.3314   -2.2956   -0.6255 O   0  0  0  0  0  0  0  0  0  0  0  0
   -0.1881    1.9669   -0.1406 C   0  0  0  0  0  0  0  0  0  0  0  0
    0.0878    2.2576   -1.2982 O   0  0  0  0  0  0  0  0  0  0  0  0
   -0.7189    2.9533    0.6707 N   0  0  0  0  0  0  0  0  0  0  0  0
   -1.0594    2.6589    1.5811 H   0  0  0  0  0  0  0  0  0  0  0  0
   -0.9557    4.3213    0.2320 C   0  0  0  0  0  0  0  0  0  0  0  0
   -1.6895    4.3407   -0.5801 H   0  0  0  0  0  0  0  0  0  0  0  0
   -1.3400    4.9210    1.0623 H   0  0  0  0  0  0  0  0  0  0  0  0
   -0.0245    4.7768   -0.1203 H   0  0  0  0  0  0  0  0  0  0  0  0
  1  2  1  0  0  0  0
  2  3  1  0  0  0  0
  2  4  1  0  0  0  0
  2  5  1  0  0  0  0
  5  6  2  0  0  0  0
  5  7  1  0  0  0  0
  7  8  1  0  0  0  0
  7  9  1  0  0  0  0
  9 10  1  0  0  0  0
  9 11  1  0  0  0  0
  9 20  1  0  0  0  0
 11 12  1  0  0  0  0
 11 13  1  0  0  0  0
 11 14  1  0  0  0  0
 14 15  1  0  0  0  0
 14 16  1  0  0  0  0
 14 17  1  0  0  0  0
 17 18  1  0  0  0  0
 17 19  2  0  0  0  0
 20 21  2  0  0  0  0
 20 22  1  0  0  0  0
 22 23  1  0  0  0  0
 22 24  1  0  0  0  0
 24 25  1  0  0  0  0
 24 26  1  0  0  0  0
 24 27  1  0  0  0  0
M  CHG  1  18  -1
M  END
$$$$

  -OEChem-01062216073D

 27 26  0     1  0  0  0  0  0999 V2000
   -3.2178   -2.8574    1.1948 H   0  0  0  0  0  0  0  0  0  0  0  0
   -2.9905   -2.0546    0.4881 C   0  0  0  0  0  0  0  0  0  0  0  0
   -3.8964   -1.4692    0.3133 H   0  0  0  0  0  0  0  0  0  0  0  0
   -2.6642   -2.5003   -0.4555 H   0  0  0  0  0  0  0  0  0  0  0  0
   -1.8919   -1.1649    1.0407 C   0  0  0  0  0  0  0  0  0  0  0  0
   -1.4365   -1.3671    2.1568 O   0  0  0  0  0  0  0  0  0  0  0  0
   -1.5122   -0.0342    0.3506 N   0  0  0  0  0  0  0  0  0  0  0  0
   -1.9511    0.0525   -0.5628 H   0  0  0  0  0  0  0  0  0  0  0  0
   -0.1455    0.5114    0.4083 C   0  0  1  0  0  0  0  0  0  0  0  0
    0.2066    0.5412    1.4442 H   0  0  0  0  0  0  0  0  0  0  0  0
    0.8637   -0.3177   -0.4263 C   0  0  0  0  0  0  0  0  0  0  0  0
    0.4959   -0.3977   -1.4551 H   0  0  0  0  0  0  0  0  0  0  0  0
    1.8164    0.2224   -0.4624 H   0  0  0  0  0  0  0  0  0  0  0  0
    1.1413   -1.7369    0.0996 C   0  0  0  0  0  0  0  0  0  0  0  0
    1.5459   -1.6887    1.1147 H   0  0  0  0  0  0  0  0  0  0  0  0
    0.2231   -2.3251    0.1314 H   0  0  0  0  0  0  0  0  0  0  0  0
    2.1287   -2.4660   -0.8107 C   0  0  0  0  0  0  0  0  0  0  0  0
    1.6594   -3.2867   -1.6389 O   0  5  0  0  0  0  0  0  0  0  0  0
    3.3468   -2.1801   -0.6958 O   0  0  0  0  0  0  0  0  0  0  0  0
   -0.1732    1.9526   -0.1435 C   0  0  0  0  0  0  0  0  0  0  0  0
   -0.2021    2.1939   -1.3448 O   0  0  0  0  0  0  0  0  0  0  0  0
   -0.3995    2.9939    0.7383 N   0  0  0  0  0  0  0  0  0  0  0  0
   -0.5111    2.7497    1.7174 H   0  0  0  0  0  0  0  0  0  0  0  0
   -0.6226    4.3707    0.3213 C   0  0  0  0  0  0  0  0  0  0  0  0
   -1.5317    4.4443   -0.2842 H   0  0  0  0  0  0  0  0  0  0  0  0
   -0.7358    5.0153    1.1978 H   0  0  0  0  0  0  0  0  0  0  0  0
    0.2260    4.7343   -0.2672 H   0  0  0  0  0  0  0  0  0  0  0  0
  1  2  1  0  0  0  0
  2  3  1  0  0  0  0
  2  4  1  0  0  0  0
  2  5  1  0  0  0  0
  5  6  2  0  0  0  0
  5  7  1  0  0  0  0
  7  8  1  0  0  0  0
  7  9  1  0  0  0  0
  9 10  1  0  0  0  0
  9 11  1  0  0  0  0
  9 20  1  0  0  0  0
 11 12  1  0  0  0  0
 11 13  1  0  0  0  0
 11 14  1  0  0  0  0
 14 15  1  0  0  0  0
 14 16  1  0  0  0  0
 14 17  1  0  0  0  0
 17 18  1  0  0  0  0
 17 19  2  0  0  0  0
 20 21  2  0  0  0  0
 20 22  1  0  0  0  0
 22 23  1  0  0  0  0
 22 24  1  0  0  0  0
 24 25  1  0  0  0  0
 24 26  1  0  0  0  0
 24 27  1  0  0  0  0
M  CHG  1  18  -1
M  END
$$$$

  -OEChem-01062216073D

 27 26  0     1  0  0  0  0  0999 V2000
   -3.2452   -2.8573    1.2045 H   0  0  0  0  0  0  0  0  0  0  0  0
   -3.0195   -2.0533    0.4984 C   0  0  0  0  0  0  0  0  0  0  0  0
   -3.9219   -1.4585    0.3380 H   0  0  0  0  0  0  0  0  0  0  0  0
   -2.7099   -2.4978   -0.4513 H   0  0  0  0  0  0  0  0  0  0  0  0
   -1.9050   -1.1765    1.0407 C   0  0  0  0  0  0  0  0  0  0  0  0
   -1.4312   -1.3958    2.1460 O   0  0  0  0  0  0  0  0  0  0  0  0
   -1.5201   -0.0493    0.3474 N   0  0  0  0  0  0  0  0  0  0  0  0
   -1.9706    0.0586   -0.5583 H   0  0  0  0  0  0  0  0  0  0  0  0
   -0.1570    0.5032    0.4084 C   0  0  1  0  0  0  0  0  0  0  0  0
    0.1875    0.5333    1.4464 H   0  0  0  0  0  0  0  0  0  0  0  0
    0.8624   -0.3110   -0.4249 C   0  0  0  0  0  0  0  0  0  0  0  0
    0.5001   -0.3887   -1.4558 H   0  0  0  0  0  0  0  0  0  0  0  0
    1.8106    0.2374   -0.4537 H   0  0  0  0  0  0  0  0  0  0  0  0
    1.1491   -1.7288    0.0976 C   0  0  0  0  0  0  0  0  0  0  0  0
    1.5470   -1.6813    1.1154 H   0  0  0  0  0  0  0  0  0  0  0  0
    0.2342   -2.3228    0.1223 H   0  0  0  0  0  0  0  0  0  0  0  0
    2.1476   -2.4451   -0.8109 C   0  0  0  0  0  0  0  0  0  0  0  0
    1.6951   -3.2894   -1.6243 O   0  5  0  0  0  0  0  0  0  0  0  0
    3.3575   -2.1196   -0.7139 O   0  0  0  0  0  0  0  0  0  0  0  0
   -0.1780    1.9398   -0.1523 C   0  0  0  0  0  0  0  0  0  0  0  0
   -0.4794    2.1638   -1.3198 O   0  0  0  0  0  0  0  0  0  0  0  0
   -0.0928    3.0086    0.7214 N   0  0  0  0  0  0  0  0  0  0  0  0
    0.0632    2.7946    1.7012 H   0  0  0  0  0  0  0  0  0  0  0  0
   -0.2566    4.3974    0.3160 C   0  0  0  0  0  0  0  0  0  0  0  0
   -1.2701    4.5688   -0.0606 H   0  0  0  0  0  0  0  0  0  0  0  0
   -0.0863    5.0605    1.1694 H   0  0  0  0  0  0  0  0  0  0  0  0
    0.4614    4.6543   -0.4697 H   0  0  0  0  0  0  0  0  0  0  0  0
  1  2  1  0  0  0  0
  2  3  1  0  0  0  0
  2  4  1  0  0  0  0
  2  5  1  0  0  0  0
  5  6  2  0  0  0  0
  5  7  1  0  0  0  0
  7  8  1  0  0  0  0
  7  9  1  0  0  0  0
  9 10  1  0  0  0  0
  9 11  1  0  0  0  0
  9 20  1  0  0  0  0
 11 12  1  0  0  0  0
 11 13  1  0  0  0  0
 11 14  1  0  0  0  0
 14 15  1  0  0  0  0
 14 16  1  0  0  0  0
 14 17  1  0  0  0  0
 17 18  1  0  0  0  0
 17 19  2  0  0  0  0
 20 21  2  0  0  0  0
 20 22  1  0  0  0  0
 22 23  1  0  0  0  0
 22 24  1  0  0  0  0
 24 25  1  0  0  0  0
 24 26  1  0  0  0  0
 24 27  1  0  0  0  0
M  CHG  1  18  -1
M  END
$$$$

  -OEChem-01062216073D

 27 26  0     1  0  0  0  0  0999 V2000
   -3.2659   -2.8754    1.2160 H   0  0  0  0  0  0  0  0  0  0  0  0
   -3.0583   -2.0575    0.5205 C   0  0  0  0  0  0  0  0  0  0  0  0
   -3.9603   -1.4520    0.4056 H   0  0  0  0  0  0  0  0  0  0  0  0
   -2.7864   -2.4825   -0.4494 H   0  0  0  0  0  0  0  0  0  0  0  0
   -1.9185   -1.2015    1.0424 C   0  0  0  0  0  0  0  0  0  0  0  0
   -1.4200   -1.4397    2.1329 O   0  0  0  0  0  0  0  0  0  0  0  0
   -1.5374   -0.0737    0.3485 N   0  0  0  0  0  0  0  0  0  0  0  0
   -2.0089    0.0607   -0.5431 H   0  0  0  0  0  0  0  0  0  0  0  0
   -0.1823    0.4970    0.4095 C   0  0  1  0  0  0  0  0  0  0  0  0
    0.1548    0.5315    1.4498 H   0  0  0  0  0  0  0  0  0  0  0  0
    0.8508   -0.2963   -0.4240 C   0  0  0  0  0  0  0  0  0  0  0  0
    0.4900   -0.3754   -1.4557 H   0  0  0  0  0  0  0  0  0  0  0  0
    1.7898    0.2678   -0.4498 H   0  0  0  0  0  0  0  0  0  0  0  0
    1.1610   -1.7105    0.0936 C   0  0  0  0  0  0  0  0  0  0  0  0
    1.5583   -1.6603    1.1113 H   0  0  0  0  0  0  0  0  0  0  0  0
    0.2549   -2.3186    0.1167 H   0  0  0  0  0  0  0  0  0  0  0  0
    2.1732   -2.4049   -0.8172 C   0  0  0  0  0  0  0  0  0  0  0  0
    1.7517   -3.3109   -1.5790 O   0  5  0  0  0  0  0  0  0  0  0  0
    3.3611   -1.9961   -0.7780 O   0  0  0  0  0  0  0  0  0  0  0  0
   -0.2065    1.9309   -0.1562 C   0  0  0  0  0  0  0  0  0  0  0  0
   -0.7306    2.1722   -1.2393 O   0  0  0  0  0  0  0  0  0  0  0  0
    0.1761    2.9899    0.6468 N   0  0  0  0  0  0  0  0  0  0  0  0
    0.6054    2.7629    1.5382 H   0  0  0  0  0  0  0  0  0  0  0  0
    0.1269    4.3807    0.2198 C   0  0  0  0  0  0  0  0  0  0  0  0
   -0.8985    4.6669   -0.0353 H   0  0  0  0  0  0  0  0  0  0  0  0
    0.4774    5.0332    1.0250 H   0  0  0  0  0  0  0  0  0  0  0  0
    0.7666    4.5346   -0.6553 H   0  0  0  0  0  0  0  0  0  0  0  0
  1  2  1  0  0  0  0
  2  3  1  0  0  0  0
  2  4  1  0  0  0  0
  2  5  1  0  0  0  0
  5  6  2  0  0  0  0
  5  7  1  0  0  0  0
  7  8  1  0  0  0  0
  7  9  1  0  0  0  0
  9 10  1  0  0  0  0
  9 11  1  0  0  0  0
  9 20  1  0  0  0  0
 11 12  1  0  0  0  0
 11 13  1  0  0  0  0
 11 14  1  0  0  0  0
 14 15  1  0  0  0  0
 14 16  1  0  0  0  0
 14 17  1  0  0  0  0
 17 18  1  0  0  0  0
 17 19  2  0  0  0  0
 20 21  2  0  0  0  0
 20 22  1  0  0  0  0
 22 23  1  0  0  0  0
 22 24  1  0  0  0  0
 24 25  1  0  0  0  0
 24 26  1  0  0  0  0
 24 27  1  0  0  0  0
M  CHG  1  18  -1
M  END
$$$$

  -OEChem-01062216073D

 27 26  0     1  0  0  0  0  0999 V2000
   -3.2695   -2.8957    1.2117 H   0  0  0  0  0  0  0  0  0  0  0  0
   -3.0918   -2.0496    0.5422 C   0  0  0  0  0  0  0  0  0  0  0  0
   -3.9954   -1.4371    0.4967 H   0  0  0  0  0  0  0  0  0  0  0  0
   -2.8688   -2.4345   -0.4564 H   0  0  0  0  0  0  0  0  0  0  0  0
   -1.9246   -1.2192    1.0445 C   0  0  0  0  0  0  0  0  0  0  0  0
   -1.4030   -1.4802    2.1188 O   0  0  0  0  0  0  0  0  0  0  0  0
   -1.5425   -0.0910    0.3517 N   0  0  0  0  0  0  0  0  0  0  0  0
   -2.0378    0.0760   -0.5215 H   0  0  0  0  0  0  0  0  0  0  0  0
   -0.1940    0.4950    0.4144 C   0  0  1  0  0  0  0  0  0  0  0  0
    0.1384    0.5351    1.4562 H   0  0  0  0  0  0  0  0  0  0  0  0
    0.8472   -0.2838   -0.4215 C   0  0  0  0  0  0  0  0  0  0  0  0
    0.4866   -0.3618   -1.4533 H   0  0  0  0  0  0  0  0  0  0  0  0
    1.7803    0.2901   -0.4448 H   0  0  0  0  0  0  0  0  0  0  0  0
    1.1744   -1.6961    0.0898 C   0  0  0  0  0  0  0  0  0  0  0  0
    1.5727   -1.6460    1.1072 H   0  0  0  0  0  0  0  0  0  0  0  0
    0.2745   -2.3136    0.1114 H   0  0  0  0  0  0  0  0  0  0  0  0
    2.1943   -2.3738   -0.8254 C   0  0  0  0  0  0  0  0  0  0  0  0
    1.7930   -3.3092   -1.5620 O   0  5  0  0  0  0  0  0  0  0  0  0
    3.3665   -1.9194   -0.8185 O   0  0  0  0  0  0  0  0  0  0  0  0
   -0.2210    1.9273   -0.1565 C   0  0  0  0  0  0  0  0  0  0  0  0
   -0.9296    2.2074   -1.1193 O   0  0  0  0  0  0  0  0  0  0  0  0
    0.4325    2.9461    0.5124 N   0  0  0  0  0  0  0  0  0  0  0  0
    1.0600    2.6726    1.2624 H   0  0  0  0  0  0  0  0  0  0  0  0
    0.4573    4.3240    0.0430 C   0  0  0  0  0  0  0  0  0  0  0  0
   -0.5604    4.7179   -0.0460 H   0  0  0  0  0  0  0  0  0  0  0  0
    1.0084    4.9511    0.7500 H   0  0  0  0  0  0  0  0  0  0  0  0
    0.9480    4.3862   -0.9337 H   0  0  0  0  0  0  0  0  0  0  0  0
  1  2  1  0  0  0  0
  2  3  1  0  0  0  0
  2  4  1  0  0  0  0
  2  5  1  0  0  0  0
  5  6  2  0  0  0  0
  5  7  1  0  0  0  0
  7  8  1  0  0  0  0
  7  9  1  0  0  0  0
  9 10  1  0  0  0  0
  9 11  1  0  0  0  0
  9 20  1  0  0  0  0
 11 12  1  0  0  0  0
 11 13  1  0  0  0  0
 11 14  1  0  0  0  0
 14 15  1  0  0  0  0
 14 16  1  0  0  0  0
 14 17  1  0  0  0  0
 17 18  1  0  0  0  0
 17 19  2  0  0  0  0
 20 21  2  0  0  0  0
 20 22  1  0  0  0  0
 22 23  1  0  0  0  0
 22 24  1  0  0  0  0
 24 25  1  0  0  0  0
 24 26  1  0  0  0  0
 24 27  1  0  0  0  0
M  CHG  1  18  -1
M  END
$$$$

  -OEChem-01062216073D

 27 26  0     1  0  0  0  0  0999 V2000
   -3.2753   -2.9060    1.2063 H   0  0  0  0  0  0  0  0  0  0  0  0
   -3.1109   -2.0444    0.5534 C   0  0  0  0  0  0  0  0  0  0  0  0
   -4.0121   -1.4268    0.5467 H   0  0  0  0  0  0  0  0  0  0  0  0
   -2.9164   -2.4050   -0.4601 H   0  0  0  0  0  0  0  0  0  0  0  0
   -1.9269   -1.2310    1.0444 C   0  0  0  0  0  0  0  0  0  0  0  0
   -1.3905   -1.5083    2.1072 O   0  0  0  0  0  0  0  0  0  0  0  0
   -1.5444   -0.1017    0.3539 N   0  0  0  0  0  0  0  0  0  0  0  0
   -2.0618    0.0956   -0.4998 H   0  0  0  0  0  0  0  0  0  0  0  0
   -0.2021    0.4983    0.4208 C   0  0  1  0  0  0  0  0  0  0  0  0
    0.1274    0.5426    1.4636 H   0  0  0  0  0  0  0  0  0  0  0  0
    0.8431   -0.2724   -0.4176 C   0  0  0  0  0  0  0  0  0  0  0  0
    0.4810   -0.3497   -1.4489 H   0  0  0  0  0  0  0  0  0  0  0  0
    1.7727    0.3070   -0.4415 H   0  0  0  0  0  0  0  0  0  0  0  0
    1.1831   -1.6841    0.0867 C   0  0  0  0  0  0  0  0  0  0  0  0
    1.5833   -1.6365    1.1035 H   0  0  0  0  0  0  0  0  0  0  0  0
    0.2881   -2.3087    0.1063 H   0  0  0  0  0  0  0  0  0  0  0  0
    2.2068   -2.3476   -0.8354 C   0  0  0  0  0  0  0  0  0  0  0  0
    1.8247   -3.3138   -1.5415 O   0  5  0  0  0  0  0  0  0  0  0  0
    3.3599   -1.8472   -0.8694 O   0  0  0  0  0  0  0  0  0  0  0  0
   -0.2291    1.9306   -0.1530 C   0  0  0  0  0  0  0  0  0  0  0  0
   -1.0843    2.2704   -0.9668 O   0  0  0  0  0  0  0  0  0  0  0  0
    0.6537    2.8796    0.3292 N   0  0  0  0  0  0  0  0  0  0  0  0
    1.4126    2.5389    0.9124 H   0  0  0  0  0  0  0  0  0  0  0  0
    0.7292    4.2359   -0.1944 C   0  0  0  0  0  0  0  0  0  0  0  0
   -0.2339    4.7446   -0.0822 H   0  0  0  0  0  0  0  0  0  0  0  0
    1.4861    4.8074    0.3510 H   0  0  0  0  0  0  0  0  0  0  0  0
    1.0012    4.2214   -1.2548 H   0  0  0  0  0  0  0  0  0  0  0  0
  1  2  1  0  0  0  0
  2  3  1  0  0  0  0
  2  4  1  0  0  0  0
  2  5  1  0  0  0  0
  5  6  2  0  0  0  0
  5  7  1  0  0  0  0
  7  8  1  0  0  0  0
  7  9  1  0  0  0  0
  9 10  1  0  0  0  0
  9 11  1  0  0  0  0
  9 20  1  0  0  0  0
 11 12  1  0  0  0  0
 11 13  1  0  0  0  0
 11 14  1  0  0  0  0
 14 15  1  0  0  0  0
 14 16  1  0  0  0  0
 14 17  1  0  0  0  0
 17 18  1  0  0  0  0
 17 19  2  0  0  0  0
 20 21  2  0  0  0  0
 20 22  1  0  0  0  0
 22 23  1  0  0  0  0
 22 24  1  0  0  0  0
 24 25  1  0  0  0  0
 24 26  1  0  0  0  0
 24 27  1  0  0  0  0
M  CHG  1  18  -1
M  END
$$$$

  -OEChem-01062216073D

 27 26  0     1  0  0  0  0  0999 V2000
   -3.1926   -2.9328    1.3674 H   0  0  0  0  0  0  0  0  0  0  0  0
   -3.0700   -2.0765    0.6986 C   0  0  0  0  0  0  0  0  0  0  0  0
   -3.9764   -1.4674    0.7315 H   0  0  0  0  0  0  0  0  0  0  0  0
   -2.9230   -2.4455   -0.3198 H   0  0  0  0  0  0  0  0  0  0  0  0
   -1.8707   -1.2482    1.1227 C   0  0  0  0  0  0  0  0  0  0  0  0
   -1.2905   -1.5034    2.1677 O   0  0  0  0  0  0  0  0  0  0  0  0
   -1.5243   -0.1304    0.3951 N   0  0  0  0  0  0  0  0  0  0  0  0
   -2.0872    0.0626   -0.4301 H   0  0  0  0  0  0  0  0  0  0  0  0
   -0.1987    0.5102    0.4181 C   0  0  1  0  0  0  0  0  0  0  0  0
    0.1522    0.5949    1.4514 H   0  0  0  0  0  0  0  0  0  0  0  0
    0.8432   -0.2642   -0.4245 C   0  0  0  0  0  0  0  0  0  0  0  0
    0.4550   -0.3790   -1.4428 H   0  0  0  0  0  0  0  0  0  0  0  0
    1.7622    0.3279   -0.4924 H   0  0  0  0  0  0  0  0  0  0  0  0
    1.2305   -1.6519    0.1072 C   0  0  0  0  0  0  0  0  0  0  0  0
    1.6598   -1.5649    1.1095 H   0  0  0  0  0  0  0  0  0  0  0  0
    0.3560   -2.3023    0.1688 H   0  0  0  0  0  0  0  0  0  0  0  0
    2.2439   -2.3009   -0.8342 C   0  0  0  0  0  0  0  0  0  0  0  0
    3.4299   -1.8887   -0.7728 O   0  5  0  0  0  0  0  0  0  0  0  0
    1.8241   -3.1579   -1.6511 O   0  0  0  0  0  0  0  0  0  0  0  0
   -0.2699    1.9257   -0.1977 C   0  0  0  0  0  0  0  0  0  0  0  0
   -1.2579    2.2966   -0.8267 O   0  0  0  0  0  0  0  0  0  0  0  0
    0.7705    2.8156   -0.0002 N   0  0  0  0  0  0  0  0  0  0  0  0
    1.6205    2.4346    0.4071 H   0  0  0  0  0  0  0  0  0  0  0  0
    0.8238    4.1309   -0.6219 C   0  0  0  0  0  0  0  0  0  0  0  0
   -0.0407    4.7321   -0.3224 H   0  0  0  0  0  0  0  0  0  0  0  0
    1.7323    4.6557   -0.3121 H   0  0  0  0  0  0  0  0  0  0  0  0
    0.8306    4.0380   -1.7127 H   0  0  0  0  0  0  0  0  0  0  0  0
  1  2  1  0  0  0  0
  2  3  1  0  0  0  0
  2  4  1  0  0  0  0
  2  5  1  0  0  0  0
  5  6  2  0  0  0  0
  5  7  1  0  0  0  0
  7  8  1  0  0  0  0
  7  9  1  0  0  0  0
  9 10  1  0  0  0  0
  9 11  1  0  0  0  0
  9 20  1  0  0  0  0
 11 12  1  0  0  0  0
 11 13  1  0  0  0  0
 11 14  1  0  0  0  0
 14 15  1  0  0  0  0
 14 16  1  0  0  0  0
 14 17  1  0  0  0  0
 17 18  1  0  0  0  0
 17 19  2  0  0  0  0
 20 21  2  0  0  0  0
 20 22  1  0  0  0  0
 22 23  1  0  0  0  0
 22 24  1  0  0  0  0
 24 25  1  0  0  0  0
 24 26  1  0  0  0  0
 24 27  1  0  0  0  0
M  CHG  1  18  -1
M  END
$$$$

  -OEChem-01062216073D

 27 26  0     1  0  0  0  0  0999 V2000
   -3.2183   -2.9018    1.3950 H   0  0  0  0  0  0  0  0  0  0  0  0
   -3.0785   -2.0642    0.7060 C   0  0  0  0  0  0  0  0  0  0  0  0
   -3.9334   -1.3891    0.7916 H   0  0  0  0  0  0  0  0  0  0  0  0
   -3.0299   -2.4530   -0.3144 H   0  0  0  0  0  0  0  0  0  0  0  0
   -1.7954   -1.3221    1.0339 C   0  0  0  0  0  0  0  0  0  0  0  0
   -1.1013   -1.6917    1.9697 O   0  0  0  0  0  0  0  0  0  0  0  0
   -1.4718   -0.1835    0.3272 N   0  0  0  0  0  0  0  0  0  0  0  0
   -2.1204    0.1151   -0.3960 H   0  0  0  0  0  0  0  0  0  0  0  0
   -0.1639    0.4909    0.3678 C   0  0  1  0  0  0  0  0  0  0  0  0
    0.3076    0.3451    1.3451 H   0  0  0  0  0  0  0  0  0  0  0  0
    0.7560   -0.0717   -0.7395 C   0  0  0  0  0  0  0  0  0  0  0  0
    0.2481    0.0213   -1.7060 H   0  0  0  0  0  0  0  0  0  0  0  0
    1.6729    0.5237   -0.7943 H   0  0  0  0  0  0  0  0  0  0  0  0
    1.1710   -1.5360   -0.5359 C   0  0  0  0  0  0  0  0  0  0  0  0
    1.7170   -1.6439    0.4058 H   0  0  0  0  0  0  0  0  0  0  0  0
    0.2913   -2.1825   -0.4914 H   0  0  0  0  0  0  0  0  0  0  0  0
    2.0556   -1.9896   -1.6964 C   0  0  0  0  0  0  0  0  0  0  0  0
    3.2296   -1.5411   -1.7314 O   0  5  0  0  0  0  0  0  0  0  0  0
    1.5447   -2.7298   -2.5731 O   0  0  0  0  0  0  0  0  0  0  0  0
   -0.3043    2.0138    0.1343 C   0  0  0  0  0  0  0  0  0  0  0  0
   -1.4016    2.5307   -0.0582 O   0  0  0  0  0  0  0  0  0  0  0  0
    0.8177    2.8237    0.1368 N   0  0  0  0  0  0  0  0  0  0  0  0
    1.7176    2.3511    0.1704 H   0  0  0  0  0  0  0  0  0  0  0  0
    0.7849    4.2426   -0.1875 C   0  0  0  0  0  0  0  0  0  0  0  0
    0.1225    4.7775    0.5006 H   0  0  0  0  0  0  0  0  0  0  0  0
    1.7884    4.6702   -0.1022 H   0  0  0  0  0  0  0  0  0  0  0  0
    0.4293    4.3927   -1.2120 H   0  0  0  0  0  0  0  0  0  0  0  0
  1  2  1  0  0  0  0
  2  3  1  0  0  0  0
  2  4  1  0  0  0  0
  2  5  1  0  0  0  0
  5  6  2  0  0  0  0
  5  7  1  0  0  0  0
  7  8  1  0  0  0  0
  7  9  1  0  0  0  0
  9 10  1  0  0  0  0
  9 11  1  0  0  0  0
  9 20  1  0  0  0  0
 11 12  1  0  0  0  0
 11 13  1  0  0  0  0
 11 14  1  0  0  0  0
 14 15  1  0  0  0  0
 14 16  1  0  0  0  0
 14 17  1  0  0  0  0
 17 18  1  0  0  0  0
 17 19  2  0  0  0  0
 20 21  2  0  0  0  0
 20 22  1  0  0  0  0
 22 23  1  0  0  0  0
 22 24  1  0  0  0  0
 24 25  1  0  0  0  0
 24 26  1  0  0  0  0
 24 27  1  0  0  0  0
M  CHG  1  18  -1
M  END
$$$$

  -OEChem-01062216073D

 27 26  0     1  0  0  0  0  0999 V2000
   -3.2265   -2.8732    1.4018 H   0  0  0  0  0  0  0  0  0  0  0  0
   -3.0786   -2.0413    0.7075 C   0  0  0  0  0  0  0  0  0  0  0  0
   -3.9243   -1.3547    0.7929 H   0  0  0  0  0  0  0  0  0  0  0  0
   -3.0395   -2.4361   -0.3111 H   0  0  0  0  0  0  0  0  0  0  0  0
   -1.7840   -1.3145    1.0261 C   0  0  0  0  0  0  0  0  0  0  0  0
   -1.0843   -1.6969    1.9525 O   0  0  0  0  0  0  0  0  0  0  0  0
   -1.4547   -0.1777    0.3185 N   0  0  0  0  0  0  0  0  0  0  0  0
   -2.1157    0.1393   -0.3847 H   0  0  0  0  0  0  0  0  0  0  0  0
   -0.1440    0.4928    0.3595 C   0  0  1  0  0  0  0  0  0  0  0  0
    0.3277    0.3518    1.3371 H   0  0  0  0  0  0  0  0  0  0  0  0
    0.7687   -0.0921   -0.7450 C   0  0  0  0  0  0  0  0  0  0  0  0
    0.2622    0.0005   -1.7121 H   0  0  0  0  0  0  0  0  0  0  0  0
    1.6953    0.4866   -0.8026 H   0  0  0  0  0  0  0  0  0  0  0  0
    1.1742   -1.5580   -0.5340 C   0  0  0  0  0  0  0  0  0  0  0  0
    1.7241   -1.6643    0.4055 H   0  0  0  0  0  0  0  0  0  0  0  0
    0.2914   -2.1996   -0.4825 H   0  0  0  0  0  0  0  0  0  0  0  0
    2.0503   -2.0214   -1.6972 C   0  0  0  0  0  0  0  0  0  0  0  0
    3.2198   -1.5630   -1.7531 O   0  5  0  0  0  0  0  0  0  0  0  0
    1.5336   -2.7733   -2.5604 O   0  0  0  0  0  0  0  0  0  0  0  0
   -0.2899    2.0182    0.1225 C   0  0  0  0  0  0  0  0  0  0  0  0
   -1.3895    2.5623    0.1750 O   0  0  0  0  0  0  0  0  0  0  0  0
    0.8093    2.8016   -0.1854 N   0  0  0  0  0  0  0  0  0  0  0  0
    1.6885    2.3131   -0.3384 H   0  0  0  0  0  0  0  0  0  0  0  0
    0.7273    4.2164   -0.5194 C   0  0  0  0  0  0  0  0  0  0  0  0
    0.2665    4.7777    0.2998 H   0  0  0  0  0  0  0  0  0  0  0  0
    1.7297    4.6195   -0.6915 H   0  0  0  0  0  0  0  0  0  0  0  0
    0.1338    4.3612   -1.4277 H   0  0  0  0  0  0  0  0  0  0  0  0
  1  2  1  0  0  0  0
  2  3  1  0  0  0  0
  2  4  1  0  0  0  0
  2  5  1  0  0  0  0
  5  6  2  0  0  0  0
  5  7  1  0  0  0  0
  7  8  1  0  0  0  0
  7  9  1  0  0  0  0
  9 10  1  0  0  0  0
  9 11  1  0  0  0  0
  9 20  1  0  0  0  0
 11 12  1  0  0  0  0
 11 13  1  0  0  0  0
 11 14  1  0  0  0  0
 14 15  1  0  0  0  0
 14 16  1  0  0  0  0
 14 17  1  0  0  0  0
 17 18  1  0  0  0  0
 17 19  2  0  0  0  0
 20 21  2  0  0  0  0
 20 22  1  0  0  0  0
 22 23  1  0  0  0  0
 22 24  1  0  0  0  0
 24 25  1  0  0  0  0
 24 26  1  0  0  0  0
 24 27  1  0  0  0  0
M  CHG  1  18  -1
M  END
$$$$

  -OEChem-01062216073D

 27 26  0     1  0  0  0  0  0999 V2000
   -3.2234   -2.8549    1.4082 H   0  0  0  0  0  0  0  0  0  0  0  0
   -3.0758   -2.0236    0.7133 C   0  0  0  0  0  0  0  0  0  0  0  0
   -3.9176   -1.3330    0.8049 H   0  0  0  0  0  0  0  0  0  0  0  0
   -3.0453   -2.4180   -0.3056 H   0  0  0  0  0  0  0  0  0  0  0  0
   -1.7756   -1.3035    1.0236 C   0  0  0  0  0  0  0  0  0  0  0  0
   -1.0722   -1.6909    1.9450 O   0  0  0  0  0  0  0  0  0  0  0  0
   -1.4443   -0.1703    0.3108 N   0  0  0  0  0  0  0  0  0  0  0  0
   -2.1058    0.1423   -0.3932 H   0  0  0  0  0  0  0  0  0  0  0  0
   -0.1297    0.4940    0.3478 C   0  0  1  0  0  0  0  0  0  0  0  0
    0.3426    0.3601    1.3264 H   0  0  0  0  0  0  0  0  0  0  0  0
    0.7796   -0.1095   -0.7510 C   0  0  0  0  0  0  0  0  0  0  0  0
    0.2775   -0.0189   -1.7205 H   0  0  0  0  0  0  0  0  0  0  0  0
    1.7127    0.4587   -0.8056 H   0  0  0  0  0  0  0  0  0  0  0  0
    1.1784   -1.5758   -0.5313 C   0  0  0  0  0  0  0  0  0  0  0  0
    1.7287   -1.6797    0.4082 H   0  0  0  0  0  0  0  0  0  0  0  0
    0.2927   -2.2130   -0.4763 H   0  0  0  0  0  0  0  0  0  0  0  0
    2.0507   -2.0478   -1.6944 C   0  0  0  0  0  0  0  0  0  0  0  0
    3.2140   -1.5767   -1.7691 O   0  5  0  0  0  0  0  0  0  0  0  0
    1.5322   -2.8129   -2.5449 O   0  0  0  0  0  0  0  0  0  0  0  0
   -0.2827    2.0201    0.1049 C   0  0  0  0  0  0  0  0  0  0  0  0
   -1.3272    2.5953    0.3964 O   0  0  0  0  0  0  0  0  0  0  0  0
    0.7137    2.7686   -0.4993 N   0  0  0  0  0  0  0  0  0  0  0  0
    1.5386    2.2641   -0.8160 H   0  0  0  0  0  0  0  0  0  0  0  0
    0.5822    4.1792   -0.8345 C   0  0  0  0  0  0  0  0  0  0  0  0
    0.3810    4.7698    0.0651 H   0  0  0  0  0  0  0  0  0  0  0  0
    1.5088    4.5444   -1.2871 H   0  0  0  0  0  0  0  0  0  0  0  0
   -0.2347    4.3287   -1.5476 H   0  0  0  0  0  0  0  0  0  0  0  0
  1  2  1  0  0  0  0
  2  3  1  0  0  0  0
  2  4  1  0  0  0  0
  2  5  1  0  0  0  0
  5  6  2  0  0  0  0
  5  7  1  0  0  0  0
  7  8  1  0  0  0  0
  7  9  1  0  0  0  0
  9 10  1  0  0  0  0
  9 11  1  0  0  0  0
  9 20  1  0  0  0  0
 11 12  1  0  0  0  0
 11 13  1  0  0  0  0
 11 14  1  0  0  0  0
 14 15  1  0  0  0  0
 14 16  1  0  0  0  0
 14 17  1  0  0  0  0
 17 18  1  0  0  0  0
 17 19  2  0  0  0  0
 20 21  2  0  0  0  0
 20 22  1  0  0  0  0
 22 23  1  0  0  0  0
 22 24  1  0  0  0  0
 24 25  1  0  0  0  0
 24 26  1  0  0  0  0
 24 27  1  0  0  0  0
M  CHG  1  18  -1
M  END
$$$$

  -OEChem-01062216073D

 27 26  0     1  0  0  0  0  0999 V2000
   -3.1946   -2.8565    1.4181 H   0  0  0  0  0  0  0  0  0  0  0  0
   -3.0528   -2.0303    0.7160 C   0  0  0  0  0  0  0  0  0  0  0  0
   -3.9078   -1.3539    0.7885 H   0  0  0  0  0  0  0  0  0  0  0  0
   -3.0014   -2.4354   -0.2979 H   0  0  0  0  0  0  0  0  0  0  0  0
   -1.7704   -1.2836    1.0368 C   0  0  0  0  0  0  0  0  0  0  0  0
   -1.0728   -1.6495    1.9711 O   0  0  0  0  0  0  0  0  0  0  0  0
   -1.4473   -0.1557    0.3116 N   0  0  0  0  0  0  0  0  0  0  0  0
   -2.0874    0.1075   -0.4304 H   0  0  0  0  0  0  0  0  0  0  0  0
   -0.1297    0.5032    0.3373 C   0  0  1  0  0  0  0  0  0  0  0  0
    0.3472    0.3774    1.3149 H   0  0  0  0  0  0  0  0  0  0  0  0
    0.7727   -0.1152   -0.7585 C   0  0  0  0  0  0  0  0  0  0  0  0
    0.2690   -0.0320   -1.7280 H   0  0  0  0  0  0  0  0  0  0  0  0
    1.7077    0.4513   -0.8161 H   0  0  0  0  0  0  0  0  0  0  0  0
    1.1671   -1.5806   -0.5279 C   0  0  0  0  0  0  0  0  0  0  0  0
    1.7224   -1.6778    0.4094 H   0  0  0  0  0  0  0  0  0  0  0  0
    0.2804   -2.2155   -0.4625 H   0  0  0  0  0  0  0  0  0  0  0  0
    2.0320   -2.0630   -1.6920 C   0  0  0  0  0  0  0  0  0  0  0  0
    3.2027   -1.6115   -1.7666 O   0  5  0  0  0  0  0  0  0  0  0  0
    1.4957   -2.8071   -2.5502 O   0  0  0  0  0  0  0  0  0  0  0  0
   -0.2864    2.0270    0.0858 C   0  0  0  0  0  0  0  0  0  0  0  0
   -1.2098    2.6462    0.6042 O   0  0  0  0  0  0  0  0  0  0  0  0
    0.5396    2.7209   -0.7829 N   0  0  0  0  0  0  0  0  0  0  0  0
    1.2714    2.1876   -1.2471 H   0  0  0  0  0  0  0  0  0  0  0  0
    0.3824    4.1315   -1.1063 C   0  0  0  0  0  0  0  0  0  0  0  0
    0.4699    4.7435   -0.2029 H   0  0  0  0  0  0  0  0  0  0  0  0
    1.1586    4.4427   -1.8117 H   0  0  0  0  0  0  0  0  0  0  0  0
   -0.5952    4.3123   -1.5646 H   0  0  0  0  0  0  0  0  0  0  0  0
  1  2  1  0  0  0  0
  2  3  1  0  0  0  0
  2  4  1  0  0  0  0
  2  5  1  0  0  0  0
  5  6  2  0  0  0  0
  5  7  1  0  0  0  0
  7  8  1  0  0  0  0
  7  9  1  0  0  0  0
  9 10  1  0  0  0  0
  9 11  1  0  0  0  0
  9 20  1  0  0  0  0
 11 12  1  0  0  0  0
 11 13  1  0  0  0  0
 11 14  1  0  0  0  0
 14 15  1  0  0  0  0
 14 16  1  0  0  0  0
 14 17  1  0  0  0  0
 17 18  1  0  0  0  0
 17 19  2  0  0  0  0
 20 21  2  0  0  0  0
 20 22  1  0  0  0  0
 22 23  1  0  0  0  0
 22 24  1  0  0  0  0
 24 25  1  0  0  0  0
 24 26  1  0  0  0  0
 24 27  1  0  0  0  0
M  CHG  1  18  -1
M  END
$$$$

  -OEChem-01062216073D

 27 26  0     1  0  0  0  0  0999 V2000
   -3.1513   -2.8737    1.4493 H   0  0  0  0  0  0  0  0  0  0  0  0
   -3.0139   -2.0649    0.7263 C   0  0  0  0  0  0  0  0  0  0  0  0
   -3.8924   -1.4157    0.7516 H   0  0  0  0  0  0  0  0  0  0  0  0
   -2.9173   -2.4986   -0.2724 H   0  0  0  0  0  0  0  0  0  0  0  0
   -1.7672   -1.2662    1.0626 C   0  0  0  0  0  0  0  0  0  0  0  0
   -1.0783   -1.5920    2.0178 O   0  0  0  0  0  0  0  0  0  0  0  0
   -1.4637   -0.1452    0.3175 N   0  0  0  0  0  0  0  0  0  0  0  0
   -2.0727    0.0419   -0.4719 H   0  0  0  0  0  0  0  0  0  0  0  0
   -0.1480    0.5188    0.3248 C   0  0  1  0  0  0  0  0  0  0  0  0
    0.3366    0.4084    1.3008 H   0  0  0  0  0  0  0  0  0  0  0  0
    0.7495   -0.1123   -0.7668 C   0  0  0  0  0  0  0  0  0  0  0  0
    0.2367   -0.0516   -1.7335 H   0  0  0  0  0  0  0  0  0  0  0  0
    1.6788    0.4629   -0.8419 H   0  0  0  0  0  0  0  0  0  0  0  0
    1.1505   -1.5718   -0.5157 C   0  0  0  0  0  0  0  0  0  0  0  0
    1.7101   -1.6538    0.4207 H   0  0  0  0  0  0  0  0  0  0  0  0
    0.2690   -2.2121   -0.4383 H   0  0  0  0  0  0  0  0  0  0  0  0
    2.0080   -2.0614   -1.6807 C   0  0  0  0  0  0  0  0  0  0  0  0
    3.2466   -1.8646   -1.6171 O   0  5  0  0  0  0  0  0  0  0  0  0
    1.4066   -2.5269   -2.6810 O   0  0  0  0  0  0  0  0  0  0  0  0
   -0.3104    2.0374    0.0575 C   0  0  0  0  0  0  0  0  0  0  0  0
   -1.0434    2.7114    0.7723 O   0  0  0  0  0  0  0  0  0  0  0  0
    0.2829    2.6640   -1.0263 N   0  0  0  0  0  0  0  0  0  0  0  0
    0.8800    2.0916   -1.6187 H   0  0  0  0  0  0  0  0  0  0  0  0
    0.1377    4.0805   -1.3292 C   0  0  0  0  0  0  0  0  0  0  0  0
    0.5065    4.6892   -0.4973 H   0  0  0  0  0  0  0  0  0  0  0  0
    0.7133    4.3334   -2.2245 H   0  0  0  0  0  0  0  0  0  0  0  0
   -0.9130    4.3274   -1.5120 H   0  0  0  0  0  0  0  0  0  0  0  0
  1  2  1  0  0  0  0
  2  3  1  0  0  0  0
  2  4  1  0  0  0  0
  2  5  1  0  0  0  0
  5  6  2  0  0  0  0
  5  7  1  0  0  0  0
  7  8  1  0  0  0  0
  7  9  1  0  0  0  0
  9 10  1  0  0  0  0
  9 11  1  0  0  0  0
  9 20  1  0  0  0  0
 11 12  1  0  0  0  0
 11 13  1  0  0  0  0
 11 14  1  0  0  0  0
 14 15  1  0  0  0  0
 14 16  1  0  0  0  0
 14 17  1  0  0  0  0
 17 18  1  0  0  0  0
 17 19  2  0  0  0  0
 20 21  2  0  0  0  0
 20 22  1  0  0  0  0
 22 23  1  0  0  0  0
 22 24  1  0  0  0  0
 24 25  1  0  0  0  0
 24 26  1  0  0  0  0
 24 27  1  0  0  0  0
M  CHG  1  18  -1
M  END
$$$$

  -OEChem-01062216073D

 27 26  0     1  0  0  0  0  0999 V2000
   -3.2707   -2.8691    1.2452 H   0  0  0  0  0  0  0  0  0  0  0  0
   -3.1255   -2.0047    0.5912 C   0  0  0  0  0  0  0  0  0  0  0  0
   -3.9900   -1.3428    0.6832 H   0  0  0  0  0  0  0  0  0  0  0  0
   -3.0494   -2.3549   -0.4413 H   0  0  0  0  0  0  0  0  0  0  0  0
   -1.8590   -1.2619    0.9775 C   0  0  0  0  0  0  0  0  0  0  0  0
   -1.1997   -1.6452    1.9313 O   0  0  0  0  0  0  0  0  0  0  0  0
   -1.5059   -0.1239    0.2812 N   0  0  0  0  0  0  0  0  0  0  0  0
   -2.0929    0.1139   -0.5112 H   0  0  0  0  0  0  0  0  0  0  0  0
   -0.1701    0.4949    0.3418 C   0  0  1  0  0  0  0  0  0  0  0  0
    0.2921    0.3290    1.3210 H   0  0  0  0  0  0  0  0  0  0  0  0
    0.7306   -0.1078   -0.7608 C   0  0  0  0  0  0  0  0  0  0  0  0
    0.2330    0.0116   -1.7297 H   0  0  0  0  0  0  0  0  0  0  0  0
    1.6698    0.4562   -0.7913 H   0  0  0  0  0  0  0  0  0  0  0  0
    1.0930   -1.5936   -0.5861 C   0  0  0  0  0  0  0  0  0  0  0  0
    1.6234   -1.7308    0.3605 H   0  0  0  0  0  0  0  0  0  0  0  0
    0.1850   -2.1998   -0.5541 H   0  0  0  0  0  0  0  0  0  0  0  0
    1.9680   -2.1209   -1.7330 C   0  0  0  0  0  0  0  0  0  0  0  0
    2.2934   -3.3318   -1.6886 O   0  5  0  0  0  0  0  0  0  0  0  0
    2.2894   -1.3313   -2.6605 O   0  0  0  0  0  0  0  0  0  0  0  0
   -0.2750    2.0251    0.1302 C   0  0  0  0  0  0  0  0  0  0  0  0
   -0.7882    2.7297    0.9912 O   0  0  0  0  0  0  0  0  0  0  0  0
    0.0978    2.6237   -1.0622 N   0  0  0  0  0  0  0  0  0  0  0  0
    0.5657    2.0298   -1.7446 H   0  0  0  0  0  0  0  0  0  0  0  0
    0.0201    4.0556   -1.3108 C   0  0  0  0  0  0  0  0  0  0  0  0
    0.6399    4.6024   -0.5930 H   0  0  0  0  0  0  0  0  0  0  0  0
    0.3774    4.2806   -2.3201 H   0  0  0  0  0  0  0  0  0  0  0  0
   -1.0143    4.4035   -1.2248 H   0  0  0  0  0  0  0  0  0  0  0  0
  1  2  1  0  0  0  0
  2  3  1  0  0  0  0
  2  4  1  0  0  0  0
  2  5  1  0  0  0  0
  5  6  2  0  0  0  0
  5  7  1  0  0  0  0
  7  8  1  0  0  0  0
  7  9  1  0  0  0  0
  9 10  1  0  0  0  0
  9 11  1  0  0  0  0
  9 20  1  0  0  0  0
 11 12  1  0  0  0  0
 11 13  1  0  0  0  0
 11 14  1  0  0  0  0
 14 15  1  0  0  0  0
 14 16  1  0  0  0  0
 14 17  1  0  0  0  0
 17 18  1  0  0  0  0
 17 19  2  0  0  0  0
 20 21  2  0  0  0  0
 20 22  1  0  0  0  0
 22 23  1  0  0  0  0
 22 24  1  0  0  0  0
 24 25  1  0  0  0  0
 24 26  1  0  0  0  0
 24 27  1  0  0  0  0
M  CHG  1  18  -1
M  END
$$$$

  -OEChem-01062216073D

 27 26  0     1  0  0  0  0  0999 V2000
   -3.2055   -2.8978    1.3570 H   0  0  0  0  0  0  0  0  0  0  0  0
   -3.0569   -2.0760    0.6509 C   0  0  0  0  0  0  0  0  0  0  0  0
   -3.9447   -1.4391    0.6590 H   0  0  0  0  0  0  0  0  0  0  0  0
   -2.9240   -2.4928   -0.3508 H   0  0  0  0  0  0  0  0  0  0  0  0
   -1.8314   -1.2674    1.0382 C   0  0  0  0  0  0  0  0  0  0  0  0
   -1.1726   -1.5977    2.0120 O   0  0  0  0  0  0  0  0  0  0  0  0
   -1.5131   -0.1373    0.3122 N   0  0  0  0  0  0  0  0  0  0  0  0
   -2.0799    0.0229   -0.5137 H   0  0  0  0  0  0  0  0  0  0  0  0
   -0.1879    0.5073    0.3468 C   0  0  1  0  0  0  0  0  0  0  0  0
    0.2904    0.3669    1.3226 H   0  0  0  0  0  0  0  0  0  0  0  0
    0.7059   -0.1003   -0.7586 C   0  0  0  0  0  0  0  0  0  0  0  0
    0.1954   -0.0145   -1.7239 H   0  0  0  0  0  0  0  0  0  0  0  0
    1.6349    0.4776   -0.8196 H   0  0  0  0  0  0  0  0  0  0  0  0
    1.0846   -1.5726   -0.5486 C   0  0  0  0  0  0  0  0  0  0  0  0
    1.6342   -1.6898    0.3902 H   0  0  0  0  0  0  0  0  0  0  0  0
    0.1921   -2.2005   -0.4984 H   0  0  0  0  0  0  0  0  0  0  0  0
    1.9419   -2.0456   -1.7212 C   0  0  0  0  0  0  0  0  0  0  0  0
    1.3472   -2.2664   -2.8069 O   0  5  0  0  0  0  0  0  0  0  0  0
    3.1852   -2.1052   -1.5608 O   0  0  0  0  0  0  0  0  0  0  0  0
   -0.3185    2.0287    0.1057 C   0  0  0  0  0  0  0  0  0  0  0  0
   -0.5664    2.7824    1.0386 O   0  0  0  0  0  0  0  0  0  0  0  0
   -0.2633    2.5622   -1.1716 N   0  0  0  0  0  0  0  0  0  0  0  0
    0.0308    1.9319   -1.9138 H   0  0  0  0  0  0  0  0  0  0  0  0
   -0.3364    3.9890   -1.4513 C   0  0  0  0  0  0  0  0  0  0  0  0
    0.4997    4.5144   -0.9786 H   0  0  0  0  0  0  0  0  0  0  0  0
   -0.2904    4.1627   -2.5304 H   0  0  0  0  0  0  0  0  0  0  0  0
   -1.2760    4.4058   -1.0746 H   0  0  0  0  0  0  0  0  0  0  0  0
  1  2  1  0  0  0  0
  2  3  1  0  0  0  0
  2  4  1  0  0  0  0
  2  5  1  0  0  0  0
  5  6  2  0  0  0  0
  5  7  1  0  0  0  0
  7  8  1  0  0  0  0
  7  9  1  0  0  0  0
  9 10  1  0  0  0  0
  9 11  1  0  0  0  0
  9 20  1  0  0  0  0
 11 12  1  0  0  0  0
 11 13  1  0  0  0  0
 11 14  1  0  0  0  0
 14 15  1  0  0  0  0
 14 16  1  0  0  0  0
 14 17  1  0  0  0  0
 17 18  1  0  0  0  0
 17 19  2  0  0  0  0
 20 21  2  0  0  0  0
 20 22  1  0  0  0  0
 22 23  1  0  0  0  0
 22 24  1  0  0  0  0
 24 25  1  0  0  0  0
 24 26  1  0  0  0  0
 24 27  1  0  0  0  0
M  CHG  1  18  -1
M  END
$$$$

  -OEChem-01062216073D

 27 26  0     1  0  0  0  0  0999 V2000
   -3.1527   -2.9520    1.3324 H   0  0  0  0  0  0  0  0  0  0  0  0
   -3.0339   -2.1038    0.6522 C   0  0  0  0  0  0  0  0  0  0  0  0
   -3.9411   -1.4957    0.6834 H   0  0  0  0  0  0  0  0  0  0  0  0
   -2.8925   -2.4854   -0.3625 H   0  0  0  0  0  0  0  0  0  0  0  0
   -1.8335   -1.2685    1.0597 C   0  0  0  0  0  0  0  0  0  0  0  0
   -1.1881   -1.5793    2.0485 O   0  0  0  0  0  0  0  0  0  0  0  0
   -1.5224   -0.1379    0.3314 N   0  0  0  0  0  0  0  0  0  0  0  0
   -2.0747   -0.0013   -0.5084 H   0  0  0  0  0  0  0  0  0  0  0  0
   -0.1992    0.5114    0.3701 C   0  0  1  0  0  0  0  0  0  0  0  0
    0.2847    0.3671    1.3430 H   0  0  0  0  0  0  0  0  0  0  0  0
    0.6878   -0.0814   -0.7475 C   0  0  0  0  0  0  0  0  0  0  0  0
    0.1734    0.0151   -1.7096 H   0  0  0  0  0  0  0  0  0  0  0  0
    1.6148    0.4997   -0.8073 H   0  0  0  0  0  0  0  0  0  0  0  0
    1.0669   -1.5567   -0.5533 C   0  0  0  0  0  0  0  0  0  0  0  0
    1.6202   -1.6804    0.3826 H   0  0  0  0  0  0  0  0  0  0  0  0
    0.1742   -2.1839   -0.5036 H   0  0  0  0  0  0  0  0  0  0  0  0
    1.9178   -2.0259   -1.7324 C   0  0  0  0  0  0  0  0  0  0  0  0
    1.3322   -2.1482   -2.8389 O   0  5  0  0  0  0  0  0  0  0  0  0
    3.1461   -2.2050   -1.5486 O   0  0  0  0  0  0  0  0  0  0  0  0
   -0.3329    2.0300    0.1277 C   0  0  0  0  0  0  0  0  0  0  0  0
   -0.3134    2.8147    1.0677 O   0  0  0  0  0  0  0  0  0  0  0  0
   -0.5826    2.5223   -1.1427 N   0  0  0  0  0  0  0  0  0  0  0  0
   -0.4589    1.8667   -1.9098 H   0  0  0  0  0  0  0  0  0  0  0  0
   -0.6603    3.9440   -1.4463 C   0  0  0  0  0  0  0  0  0  0  0  0
    0.2946    4.4337   -1.2297 H   0  0  0  0  0  0  0  0  0  0  0  0
   -0.8937    4.0889   -2.5051 H   0  0  0  0  0  0  0  0  0  0  0  0
   -1.4463    4.4214   -0.8522 H   0  0  0  0  0  0  0  0  0  0  0  0
  1  2  1  0  0  0  0
  2  3  1  0  0  0  0
  2  4  1  0  0  0  0
  2  5  1  0  0  0  0
  5  6  2  0  0  0  0
  5  7  1  0  0  0  0
  7  8  1  0  0  0  0
  7  9  1  0  0  0  0
  9 10  1  0  0  0  0
  9 11  1  0  0  0  0
  9 20  1  0  0  0  0
 11 12  1  0  0  0  0
 11 13  1  0  0  0  0
 11 14  1  0  0  0  0
 14 15  1  0  0  0  0
 14 16  1  0  0  0  0
 14 17  1  0  0  0  0
 17 18  1  0  0  0  0
 17 19  2  0  0  0  0
 20 21  2  0  0  0  0
 20 22  1  0  0  0  0
 22 23  1  0  0  0  0
 22 24  1  0  0  0  0
 24 25  1  0  0  0  0
 24 26  1  0  0  0  0
 24 27  1  0  0  0  0
M  CHG  1  18  -1
M  END
$$$$

  -OEChem-01062216073D

 27 26  0     1  0  0  0  0  0999 V2000
   -3.1507   -2.9690    1.3496 H   0  0  0  0  0  0  0  0  0  0  0  0
   -3.0240   -2.1297    0.6600 C   0  0  0  0  0  0  0  0  0  0  0  0
   -3.9360   -1.5280    0.6645 H   0  0  0  0  0  0  0  0  0  0  0  0
   -2.8595   -2.5241   -0.3462 H   0  0  0  0  0  0  0  0  0  0  0  0
   -1.8376   -1.2803    1.0799 C   0  0  0  0  0  0  0  0  0  0  0  0
   -1.2052   -1.5764    2.0815 O   0  0  0  0  0  0  0  0  0  0  0  0
   -1.5300   -0.1484    0.3518 N   0  0  0  0  0  0  0  0  0  0  0  0
   -2.0646   -0.0342   -0.5023 H   0  0  0  0  0  0  0  0  0  0  0  0
   -0.2093    0.5077    0.4011 C   0  0  1  0  0  0  0  0  0  0  0  0
    0.2789    0.3564    1.3707 H   0  0  0  0  0  0  0  0  0  0  0  0
    0.6713   -0.0624   -0.7315 C   0  0  0  0  0  0  0  0  0  0  0  0
    0.1548    0.0555   -1.6899 H   0  0  0  0  0  0  0  0  0  0  0  0
    1.5979    0.5203   -0.7837 H   0  0  0  0  0  0  0  0  0  0  0  0
    1.0518   -1.5407   -0.5631 C   0  0  0  0  0  0  0  0  0  0  0  0
    1.6099   -1.6791    0.3679 H   0  0  0  0  0  0  0  0  0  0  0  0
    0.1590   -2.1682   -0.5182 H   0  0  0  0  0  0  0  0  0  0  0  0
    1.8967   -1.9941   -1.7528 C   0  0  0  0  0  0  0  0  0  0  0  0
    1.3031   -2.1033   -2.8566 O   0  5  0  0  0  0  0  0  0  0  0  0
    3.1240   -2.1875   -1.5772 O   0  0  0  0  0  0  0  0  0  0  0  0
   -0.3426    2.0248    0.1578 C   0  0  0  0  0  0  0  0  0  0  0  0
   -0.0578    2.8278    1.0372 O   0  0  0  0  0  0  0  0  0  0  0  0
   -0.8803    2.4949   -1.0291 N   0  0  0  0  0  0  0  0  0  0  0  0
   -0.9428    1.8205   -1.7861 H   0  0  0  0  0  0  0  0  0  0  0  0
   -0.9580    3.9116   -1.3554 C   0  0  0  0  0  0  0  0  0  0  0  0
    0.0443    4.3506   -1.3922 H   0  0  0  0  0  0  0  0  0  0  0  0
   -1.4331    4.0465   -2.3315 H   0  0  0  0  0  0  0  0  0  0  0  0
   -1.5518    4.4456   -0.6065 H   0  0  0  0  0  0  0  0  0  0  0  0
  1  2  1  0  0  0  0
  2  3  1  0  0  0  0
  2  4  1  0  0  0  0
  2  5  1  0  0  0  0
  5  6  2  0  0  0  0
  5  7  1  0  0  0  0
  7  8  1  0  0  0  0
  7  9  1  0  0  0  0
  9 10  1  0  0  0  0
  9 11  1  0  0  0  0
  9 20  1  0  0  0  0
 11 12  1  0  0  0  0
 11 13  1  0  0  0  0
 11 14  1  0  0  0  0
 14 15  1  0  0  0  0
 14 16  1  0  0  0  0
 14 17  1  0  0  0  0
 17 18  1  0  0  0  0
 17 19  2  0  0  0  0
 20 21  2  0  0  0  0
 20 22  1  0  0  0  0
 22 23  1  0  0  0  0
 22 24  1  0  0  0  0
 24 25  1  0  0  0  0
 24 26  1  0  0  0  0
 24 27  1  0  0  0  0
M  CHG  1  18  -1
M  END
$$$$

  -OEChem-01062216073D

 27 26  0     1  0  0  0  0  0999 V2000
   -3.0830   -3.0275    1.3290 H   0  0  0  0  0  0  0  0  0  0  0  0
   -2.9740   -2.1813    0.6449 C   0  0  0  0  0  0  0  0  0  0  0  0
   -3.9123   -1.6220    0.6215 H   0  0  0  0  0  0  0  0  0  0  0  0
   -2.7603   -2.5656   -0.3561 H   0  0  0  0  0  0  0  0  0  0  0  0
   -1.8417   -1.2795    1.1025 C   0  0  0  0  0  0  0  0  0  0  0  0
   -1.2445   -1.5334    2.1366 O   0  0  0  0  0  0  0  0  0  0  0  0
   -1.5452   -0.1477    0.3693 N   0  0  0  0  0  0  0  0  0  0  0  0
   -2.0369   -0.0902   -0.5152 H   0  0  0  0  0  0  0  0  0  0  0  0
   -0.2244    0.5111    0.4284 C   0  0  1  0  0  0  0  0  0  0  0  0
    0.2664    0.3522    1.3956 H   0  0  0  0  0  0  0  0  0  0  0  0
    0.6457   -0.0522   -0.7147 C   0  0  0  0  0  0  0  0  0  0  0  0
    0.1264    0.0830   -1.6696 H   0  0  0  0  0  0  0  0  0  0  0  0
    1.5766    0.5240   -0.7646 H   0  0  0  0  0  0  0  0  0  0  0  0
    1.0182   -1.5349   -0.5590 C   0  0  0  0  0  0  0  0  0  0  0  0
    1.5809   -1.6826    0.3679 H   0  0  0  0  0  0  0  0  0  0  0  0
    0.1227   -2.1583   -0.5130 H   0  0  0  0  0  0  0  0  0  0  0  0
    1.8530   -1.9885   -1.7553 C   0  0  0  0  0  0  0  0  0  0  0  0
    1.2438   -2.1193   -2.8483 O   0  5  0  0  0  0  0  0  0  0  0  0
    3.0841   -2.1701   -1.5940 O   0  0  0  0  0  0  0  0  0  0  0  0
   -0.3407    2.0297    0.1852 C   0  0  0  0  0  0  0  0  0  0  0  0
    0.2072    2.8274    0.9351 O   0  0  0  0  0  0  0  0  0  0  0  0
   -1.1299    2.5137   -0.8451 N   0  0  0  0  0  0  0  0  0  0  0  0
   -1.4199    1.8350   -1.5406 H   0  0  0  0  0  0  0  0  0  0  0  0
   -1.2168    3.9282   -1.1780 C   0  0  0  0  0  0  0  0  0  0  0  0
   -0.2360    4.3106   -1.4783 H   0  0  0  0  0  0  0  0  0  0  0  0
   -1.9168    4.0768   -2.0055 H   0  0  0  0  0  0  0  0  0  0  0  0
   -1.5741    4.5036   -0.3178 H   0  0  0  0  0  0  0  0  0  0  0  0
  1  2  1  0  0  0  0
  2  3  1  0  0  0  0
  2  4  1  0  0  0  0
  2  5  1  0  0  0  0
  5  6  2  0  0  0  0
  5  7  1  0  0  0  0
  7  8  1  0  0  0  0
  7  9  1  0  0  0  0
  9 10  1  0  0  0  0
  9 11  1  0  0  0  0
  9 20  1  0  0  0  0
 11 12  1  0  0  0  0
 11 13  1  0  0  0  0
 11 14  1  0  0  0  0
 14 15  1  0  0  0  0
 14 16  1  0  0  0  0
 14 17  1  0  0  0  0
 17 18  1  0  0  0  0
 17 19  2  0  0  0  0
 20 21  2  0  0  0  0
 20 22  1  0  0  0  0
 22 23  1  0  0  0  0
 22 24  1  0  0  0  0
 24 25  1  0  0  0  0
 24 26  1  0  0  0  0
 24 27  1  0  0  0  0
M  CHG  1  18  -1
M  END
$$$$

  -OEChem-01062216073D

 27 26  0     1  0  0  0  0  0999 V2000
   -3.0055   -3.0831    1.2999 H   0  0  0  0  0  0  0  0  0  0  0  0
   -2.9086   -2.2385    0.6119 C   0  0  0  0  0  0  0  0  0  0  0  0
   -3.8719   -1.7279    0.5404 H   0  0  0  0  0  0  0  0  0  0  0  0
   -2.6312   -2.6209   -0.3743 H   0  0  0  0  0  0  0  0  0  0  0  0
   -1.8445   -1.2766    1.1096 C   0  0  0  0  0  0  0  0  0  0  0  0
   -1.2998   -1.4765    2.1838 O   0  0  0  0  0  0  0  0  0  0  0  0
   -1.5610   -0.1439    0.3718 N   0  0  0  0  0  0  0  0  0  0  0  0
   -1.9832   -0.1650   -0.5500 H   0  0  0  0  0  0  0  0  0  0  0  0
   -0.2394    0.5152    0.4430 C   0  0  1  0  0  0  0  0  0  0  0  0
    0.2489    0.3497    1.4102 H   0  0  0  0  0  0  0  0  0  0  0  0
    0.6268   -0.0518   -0.7016 C   0  0  0  0  0  0  0  0  0  0  0  0
    0.1078    0.0915   -1.6557 H   0  0  0  0  0  0  0  0  0  0  0  0
    1.5621    0.5176   -0.7504 H   0  0  0  0  0  0  0  0  0  0  0  0
    0.9899   -1.5380   -0.5471 C   0  0  0  0  0  0  0  0  0  0  0  0
    1.5523   -1.6896    0.3793 H   0  0  0  0  0  0  0  0  0  0  0  0
    0.0914   -2.1566   -0.5008 H   0  0  0  0  0  0  0  0  0  0  0  0
    1.8213   -2.0006   -1.7418 C   0  0  0  0  0  0  0  0  0  0  0  0
    1.2000   -2.1781   -2.8211 O   0  5  0  0  0  0  0  0  0  0  0  0
    3.0571   -2.1567   -1.5912 O   0  0  0  0  0  0  0  0  0  0  0  0
   -0.3351    2.0376    0.2041 C   0  0  0  0  0  0  0  0  0  0  0  0
    0.4470    2.8048    0.7502 O   0  0  0  0  0  0  0  0  0  0  0  0
   -1.3238    2.5673   -0.6080 N   0  0  0  0  0  0  0  0  0  0  0  0
   -1.9131    1.9076   -1.1009 H   0  0  0  0  0  0  0  0  0  0  0  0
   -1.4294    3.9838   -0.9258 C   0  0  0  0  0  0  0  0  0  0  0  0
   -0.5344    4.3240   -1.4564 H   0  0  0  0  0  0  0  0  0  0  0  0
   -2.2999    4.1619   -1.5637 H   0  0  0  0  0  0  0  0  0  0  0  0
   -1.5455    4.5742   -0.0113 H   0  0  0  0  0  0  0  0  0  0  0  0
  1  2  1  0  0  0  0
  2  3  1  0  0  0  0
  2  4  1  0  0  0  0
  2  5  1  0  0  0  0
  5  6  2  0  0  0  0
  5  7  1  0  0  0  0
  7  8  1  0  0  0  0
  7  9  1  0  0  0  0
  9 10  1  0  0  0  0
  9 11  1  0  0  0  0
  9 20  1  0  0  0  0
 11 12  1  0  0  0  0
 11 13  1  0  0  0  0
 11 14  1  0  0  0  0
 14 15  1  0  0  0  0
 14 16  1  0  0  0  0
 14 17  1  0  0  0  0
 17 18  1  0  0  0  0
 17 19  2  0  0  0  0
 20 21  2  0  0  0  0
 20 22  1  0  0  0  0
 22 23  1  0  0  0  0
 22 24  1  0  0  0  0
 24 25  1  0  0  0  0
 24 26  1  0  0  0  0
 24 27  1  0  0  0  0
M  CHG  1  18  -1
M  END
$$$$

  -OEChem-01062216073D

 27 26  0     1  0  0  0  0  0999 V2000
   -2.9591   -3.0894    1.2599 H   0  0  0  0  0  0  0  0  0  0  0  0
   -2.8749   -2.2401    0.5760 C   0  0  0  0  0  0  0  0  0  0  0  0
   -3.8494   -1.7526    0.4951 H   0  0  0  0  0  0  0  0  0  0  0  0
   -2.5779   -2.6126   -0.4082 H   0  0  0  0  0  0  0  0  0  0  0  0
   -1.8398   -1.2547    1.0887 C   0  0  0  0  0  0  0  0  0  0  0  0
   -1.3345   -1.4191    2.1879 O   0  0  0  0  0  0  0  0  0  0  0  0
   -1.5526   -0.1268    0.3452 N   0  0  0  0  0  0  0  0  0  0  0  0
   -1.9419   -0.1779   -0.5914 H   0  0  0  0  0  0  0  0  0  0  0  0
   -0.2243    0.5207    0.4161 C   0  0  1  0  0  0  0  0  0  0  0  0
    0.2579    0.3589    1.3868 H   0  0  0  0  0  0  0  0  0  0  0  0
    0.6441   -0.0703   -0.7163 C   0  0  0  0  0  0  0  0  0  0  0  0
    0.1317    0.0651   -1.6751 H   0  0  0  0  0  0  0  0  0  0  0  0
    1.5858    0.4878   -0.7696 H   0  0  0  0  0  0  0  0  0  0  0  0
    0.9897   -1.5587   -0.5358 C   0  0  0  0  0  0  0  0  0  0  0  0
    1.5417   -1.7014    0.3981 H   0  0  0  0  0  0  0  0  0  0  0  0
    0.0845   -2.1665   -0.4877 H   0  0  0  0  0  0  0  0  0  0  0  0
    1.8246   -2.0567   -1.7139 C   0  0  0  0  0  0  0  0  0  0  0  0
    1.2115   -2.2443   -2.7959 O   0  5  0  0  0  0  0  0  0  0  0  0
    3.0534   -2.2458   -1.5431 O   0  0  0  0  0  0  0  0  0  0  0  0
   -0.3109    2.0439    0.1733 C   0  0  0  0  0  0  0  0  0  0  0  0
    0.6179    2.7828    0.4725 O   0  0  0  0  0  0  0  0  0  0  0  0
   -1.4520    2.6066   -0.3719 N   0  0  0  0  0  0  0  0  0  0  0  0
   -2.2463    1.9890   -0.4906 H   0  0  0  0  0  0  0  0  0  0  0  0
   -1.6271    4.0372   -0.5771 C   0  0  0  0  0  0  0  0  0  0  0  0
   -0.8427    4.4281   -1.2334 H   0  0  0  0  0  0  0  0  0  0  0  0
   -2.5966    4.2341   -1.0440 H   0  0  0  0  0  0  0  0  0  0  0  0
   -1.5869    4.5686    0.3791 H   0  0  0  0  0  0  0  0  0  0  0  0
  1  2  1  0  0  0  0
  2  3  1  0  0  0  0
  2  4  1  0  0  0  0
  2  5  1  0  0  0  0
  5  6  2  0  0  0  0
  5  7  1  0  0  0  0
  7  8  1  0  0  0  0
  7  9  1  0  0  0  0
  9 10  1  0  0  0  0
  9 11  1  0  0  0  0
  9 20  1  0  0  0  0
 11 12  1  0  0  0  0
 11 13  1  0  0  0  0
 11 14  1  0  0  0  0
 14 15  1  0  0  0  0
 14 16  1  0  0  0  0
 14 17  1  0  0  0  0
 17 18  1  0  0  0  0
 17 19  2  0  0  0  0
 20 21  2  0  0  0  0
 20 22  1  0  0  0  0
 22 23  1  0  0  0  0
 22 24  1  0  0  0  0
 24 25  1  0  0  0  0
 24 26  1  0  0  0  0
 24 27  1  0  0  0  0
M  CHG  1  18  -1
M  END
$$$$

  -OEChem-01062216073D

 27 26  0     1  0  0  0  0  0999 V2000
   -2.9502   -3.0849    1.2274 H   0  0  0  0  0  0  0  0  0  0  0  0
   -2.8683   -2.2306    0.5495 C   0  0  0  0  0  0  0  0  0  0  0  0
   -3.8433   -1.7436    0.4734 H   0  0  0  0  0  0  0  0  0  0  0  0
   -2.5724   -2.5959   -0.4377 H   0  0  0  0  0  0  0  0  0  0  0  0
   -1.8338   -1.2478    1.0679 C   0  0  0  0  0  0  0  0  0  0  0  0
   -1.3383   -1.4087    2.1720 O   0  0  0  0  0  0  0  0  0  0  0  0
   -1.5418   -0.1171    0.3309 N   0  0  0  0  0  0  0  0  0  0  0  0
   -1.9356   -0.1528   -0.6053 H   0  0  0  0  0  0  0  0  0  0  0  0
   -0.2101    0.5240    0.4008 C   0  0  1  0  0  0  0  0  0  0  0  0
    0.2684    0.3627    1.3732 H   0  0  0  0  0  0  0  0  0  0  0  0
    0.6595   -0.0807   -0.7256 C   0  0  0  0  0  0  0  0  0  0  0  0
    0.1503    0.0507   -1.6867 H   0  0  0  0  0  0  0  0  0  0  0  0
    1.6055    0.4695   -0.7806 H   0  0  0  0  0  0  0  0  0  0  0  0
    0.9963   -1.5703   -0.5315 C   0  0  0  0  0  0  0  0  0  0  0  0
    1.5439   -1.7077    0.4058 H   0  0  0  0  0  0  0  0  0  0  0  0
    0.0877   -2.1725   -0.4810 H   0  0  0  0  0  0  0  0  0  0  0  0
    1.8325   -2.0880   -1.7003 C   0  0  0  0  0  0  0  0  0  0  0  0
    1.2210   -2.2976   -2.7792 O   0  5  0  0  0  0  0  0  0  0  0  0
    3.0602   -2.2782   -1.5227 O   0  0  0  0  0  0  0  0  0  0  0  0
   -0.3045    2.0495    0.1652 C   0  0  0  0  0  0  0  0  0  0  0  0
    0.6845    2.7686    0.2206 O   0  0  0  0  0  0  0  0  0  0  0  0
   -1.5336    2.6397   -0.0726 N   0  0  0  0  0  0  0  0  0  0  0  0
   -2.3428    2.0400    0.0485 H   0  0  0  0  0  0  0  0  0  0  0  0
   -1.7263    4.0769   -0.2019 C   0  0  0  0  0  0  0  0  0  0  0  0
   -1.1125    4.4731   -1.0174 H   0  0  0  0  0  0  0  0  0  0  0  0
   -2.7751    4.2966   -0.4221 H   0  0  0  0  0  0  0  0  0  0  0  0
   -1.4513    4.5854    0.7278 H   0  0  0  0  0  0  0  0  0  0  0  0
  1  2  1  0  0  0  0
  2  3  1  0  0  0  0
  2  4  1  0  0  0  0
  2  5  1  0  0  0  0
  5  6  2  0  0  0  0
  5  7  1  0  0  0  0
  7  8  1  0  0  0  0
  7  9  1  0  0  0  0
  9 10  1  0  0  0  0
  9 11  1  0  0  0  0
  9 20  1  0  0  0  0
 11 12  1  0  0  0  0
 11 13  1  0  0  0  0
 11 14  1  0  0  0  0
 14 15  1  0  0  0  0
 14 16  1  0  0  0  0
 14 17  1  0  0  0  0
 17 18  1  0  0  0  0
 17 19  2  0  0  0  0
 20 21  2  0  0  0  0
 20 22  1  0  0  0  0
 22 23  1  0  0  0  0
 22 24  1  0  0  0  0
 24 25  1  0  0  0  0
 24 26  1  0  0  0  0
 24 27  1  0  0  0  0
M  CHG  1  18  -1
M  END
$$$$

  -OEChem-01062216073D

 27 26  0     1  0  0  0  0  0999 V2000
   -2.9637   -3.0652    1.2005 H   0  0  0  0  0  0  0  0  0  0  0  0
   -2.8731   -2.2089    0.5262 C   0  0  0  0  0  0  0  0  0  0  0  0
   -3.8430   -1.7112    0.4529 H   0  0  0  0  0  0  0  0  0  0  0  0
   -2.5817   -2.5729   -0.4629 H   0  0  0  0  0  0  0  0  0  0  0  0
   -1.8272   -1.2398    1.0478 C   0  0  0  0  0  0  0  0  0  0  0  0
   -1.3325   -1.4090    2.1511 O   0  0  0  0  0  0  0  0  0  0  0  0
   -1.5278   -0.1048    0.3213 N   0  0  0  0  0  0  0  0  0  0  0  0
   -1.9357   -0.1159   -0.6098 H   0  0  0  0  0  0  0  0  0  0  0  0
   -0.1916    0.5274    0.3883 C   0  0  1  0  0  0  0  0  0  0  0  0
    0.2857    0.3637    1.3605 H   0  0  0  0  0  0  0  0  0  0  0  0
    0.6782   -0.0882   -0.7340 C   0  0  0  0  0  0  0  0  0  0  0  0
    0.1731    0.0413   -1.6973 H   0  0  0  0  0  0  0  0  0  0  0  0
    1.6292    0.4532   -0.7898 H   0  0  0  0  0  0  0  0  0  0  0  0
    1.0049   -1.5787   -0.5288 C   0  0  0  0  0  0  0  0  0  0  0  0
    1.5479   -1.7129    0.4116 H   0  0  0  0  0  0  0  0  0  0  0  0
    0.0926   -2.1750   -0.4775 H   0  0  0  0  0  0  0  0  0  0  0  0
    1.8414   -2.1117   -1.6903 C   0  0  0  0  0  0  0  0  0  0  0  0
    1.2299   -2.3415   -2.7651 O   0  5  0  0  0  0  0  0  0  0  0  0
    3.0693   -2.2982   -1.5093 O   0  0  0  0  0  0  0  0  0  0  0  0
   -0.2979    2.0555    0.1645 C   0  0  0  0  0  0  0  0  0  0  0  0
    0.6838    2.7593   -0.0334 O   0  0  0  0  0  0  0  0  0  0  0  0
   -1.5344    2.6704    0.2533 N   0  0  0  0  0  0  0  0  0  0  0  0
   -2.3021    2.0768    0.5514 H   0  0  0  0  0  0  0  0  0  0  0  0
   -1.7319    4.1109    0.1795 C   0  0  0  0  0  0  0  0  0  0  0  0
   -1.3482    4.5018   -0.7684 H   0  0  0  0  0  0  0  0  0  0  0  0
   -2.7980    4.3472    0.2437 H   0  0  0  0  0  0  0  0  0  0  0  0
   -1.2141    4.6106    1.0045 H   0  0  0  0  0  0  0  0  0  0  0  0
  1  2  1  0  0  0  0
  2  3  1  0  0  0  0
  2  4  1  0  0  0  0
  2  5  1  0  0  0  0
  5  6  2  0  0  0  0
  5  7  1  0  0  0  0
  7  8  1  0  0  0  0
  7  9  1  0  0  0  0
  9 10  1  0  0  0  0
  9 11  1  0  0  0  0
  9 20  1  0  0  0  0
 11 12  1  0  0  0  0
 11 13  1  0  0  0  0
 11 14  1  0  0  0  0
 14 15  1  0  0  0  0
 14 16  1  0  0  0  0
 14 17  1  0  0  0  0
 17 18  1  0  0  0  0
 17 19  2  0  0  0  0
 20 21  2  0  0  0  0
 20 22  1  0  0  0  0
 22 23  1  0  0  0  0
 22 24  1  0  0  0  0
 24 25  1  0  0  0  0
 24 26  1  0  0  0  0
 24 27  1  0  0  0  0
M  CHG  1  18  -1
M  END
$$$$

  -OEChem-01062216073D

 27 26  0     1  0  0  0  0  0999 V2000
   -2.9795   -3.0414    1.1672 H   0  0  0  0  0  0  0  0  0  0  0  0
   -2.8804   -2.1802    0.5007 C   0  0  0  0  0  0  0  0  0  0  0  0
   -3.8449   -1.6717    0.4327 H   0  0  0  0  0  0  0  0  0  0  0  0
   -2.5933   -2.5380   -0.4919 H   0  0  0  0  0  0  0  0  0  0  0  0
   -1.8235   -1.2271    1.0295 C   0  0  0  0  0  0  0  0  0  0  0  0
   -1.3273   -1.4100    2.1302 O   0  0  0  0  0  0  0  0  0  0  0  0
   -1.5158   -0.0853    0.3177 N   0  0  0  0  0  0  0  0  0  0  0  0
   -1.9420   -0.0662   -0.6051 H   0  0  0  0  0  0  0  0  0  0  0  0
   -0.1727    0.5309    0.3777 C   0  0  1  0  0  0  0  0  0  0  0  0
    0.3049    0.3593    1.3482 H   0  0  0  0  0  0  0  0  0  0  0  0
    0.6975   -0.0934   -0.7408 C   0  0  0  0  0  0  0  0  0  0  0  0
    0.1967    0.0371   -1.7063 H   0  0  0  0  0  0  0  0  0  0  0  0
    1.6528    0.4402   -0.7945 H   0  0  0  0  0  0  0  0  0  0  0  0
    1.0122   -1.5857   -0.5281 C   0  0  0  0  0  0  0  0  0  0  0  0
    1.5493   -1.7201    0.4155 H   0  0  0  0  0  0  0  0  0  0  0  0
    0.0947   -2.1742   -0.4788 H   0  0  0  0  0  0  0  0  0  0  0  0
    1.8498   -2.1330   -1.6821 C   0  0  0  0  0  0  0  0  0  0  0  0
    1.2394   -2.3963   -2.7495 O   0  5  0  0  0  0  0  0  0  0  0  0
    3.0807   -2.2980   -1.4997 O   0  0  0  0  0  0  0  0  0  0  0  0
   -0.2876    2.0618    0.1752 C   0  0  0  0  0  0  0  0  0  0  0  0
    0.6100    2.7469   -0.2975 O   0  0  0  0  0  0  0  0  0  0  0  0
   -1.4414    2.7005    0.5929 N   0  0  0  0  0  0  0  0  0  0  0  0
   -2.1322    2.1154    1.0534 H   0  0  0  0  0  0  0  0  0  0  0  0
   -1.6435    4.1409    0.5354 C   0  0  0  0  0  0  0  0  0  0  0  0
   -1.5528    4.4992   -0.4952 H   0  0  0  0  0  0  0  0  0  0  0  0
   -2.6420    4.3950    0.9028 H   0  0  0  0  0  0  0  0  0  0  0  0
   -0.9032    4.6555    1.1563 H   0  0  0  0  0  0  0  0  0  0  0  0
  1  2  1  0  0  0  0
  2  3  1  0  0  0  0
  2  4  1  0  0  0  0
  2  5  1  0  0  0  0
  5  6  2  0  0  0  0
  5  7  1  0  0  0  0
  7  8  1  0  0  0  0
  7  9  1  0  0  0  0
  9 10  1  0  0  0  0
  9 11  1  0  0  0  0
  9 20  1  0  0  0  0
 11 12  1  0  0  0  0
 11 13  1  0  0  0  0
 11 14  1  0  0  0  0
 14 15  1  0  0  0  0
 14 16  1  0  0  0  0
 14 17  1  0  0  0  0
 17 18  1  0  0  0  0
 17 19  2  0  0  0  0
 20 21  2  0  0  0  0
 20 22  1  0  0  0  0
 22 23  1  0  0  0  0
 22 24  1  0  0  0  0
 24 25  1  0  0  0  0
 24 26  1  0  0  0  0
 24 27  1  0  0  0  0
M  CHG  1  18  -1
M  END
$$$$

  -OEChem-01062216073D

 27 26  0     1  0  0  0  0  0999 V2000
   -3.0112   -3.0072    1.1409 H   0  0  0  0  0  0  0  0  0  0  0  0
   -2.9001   -2.1417    0.4816 C   0  0  0  0  0  0  0  0  0  0  0  0
   -3.8555   -1.6148    0.4237 H   0  0  0  0  0  0  0  0  0  0  0  0
   -2.6252   -2.4955   -0.5159 H   0  0  0  0  0  0  0  0  0  0  0  0
   -1.8229   -1.2133    1.0127 C   0  0  0  0  0  0  0  0  0  0  0  0
   -1.3235   -1.4152    2.1089 O   0  0  0  0  0  0  0  0  0  0  0  0
   -1.5028   -0.0662    0.3164 N   0  0  0  0  0  0  0  0  0  0  0  0
   -1.9420   -0.0176   -0.5991 H   0  0  0  0  0  0  0  0  0  0  0  0
   -0.1523    0.5295    0.3751 C   0  0  1  0  0  0  0  0  0  0  0  0
    0.3232    0.3462    1.3442 H   0  0  0  0  0  0  0  0  0  0  0  0
    0.7199   -0.0975   -0.7405 C   0  0  0  0  0  0  0  0  0  0  0  0
    0.2256    0.0388   -1.7086 H   0  0  0  0  0  0  0  0  0  0  0  0
    1.6793    0.4300   -0.7858 H   0  0  0  0  0  0  0  0  0  0  0  0
    1.0203   -1.5928   -0.5299 C   0  0  0  0  0  0  0  0  0  0  0  0
    1.5501   -1.7352    0.4167 H   0  0  0  0  0  0  0  0  0  0  0  0
    0.0968   -2.1725   -0.4876 H   0  0  0  0  0  0  0  0  0  0  0  0
    1.8609   -2.1449   -1.6795 C   0  0  0  0  0  0  0  0  0  0  0  0
    1.2468   -2.4701   -2.7275 O   0  5  0  0  0  0  0  0  0  0  0  0
    3.1013   -2.2463   -1.5134 O   0  0  0  0  0  0  0  0  0  0  0  0
   -0.2653    2.0625    0.1945 C   0  0  0  0  0  0  0  0  0  0  0  0
    0.4667    2.7204   -0.5339 O   0  0  0  0  0  0  0  0  0  0  0  0
   -1.2491    2.7292    0.9018 N   0  0  0  0  0  0  0  0  0  0  0  0
   -1.8401    2.1570    1.4981 H   0  0  0  0  0  0  0  0  0  0  0  0
   -1.4698    4.1668    0.8371 C   0  0  0  0  0  0  0  0  0  0  0  0
   -1.7129    4.4705   -0.1862 H   0  0  0  0  0  0  0  0  0  0  0  0
   -2.3016    4.4493    1.4890 H   0  0  0  0  0  0  0  0  0  0  0  0
   -0.5749    4.7062    1.1639 H   0  0  0  0  0  0  0  0  0  0  0  0
  1  2  1  0  0  0  0
  2  3  1  0  0  0  0
  2  4  1  0  0  0  0
  2  5  1  0  0  0  0
  5  6  2  0  0  0  0
  5  7  1  0  0  0  0
  7  8  1  0  0  0  0
  7  9  1  0  0  0  0
  9 10  1  0  0  0  0
  9 11  1  0  0  0  0
  9 20  1  0  0  0  0
 11 12  1  0  0  0  0
 11 13  1  0  0  0  0
 11 14  1  0  0  0  0
 14 15  1  0  0  0  0
 14 16  1  0  0  0  0
 14 17  1  0  0  0  0
 17 18  1  0  0  0  0
 17 19  2  0  0  0  0
 20 21  2  0  0  0  0
 20 22  1  0  0  0  0
 22 23  1  0  0  0  0
 22 24  1  0  0  0  0
 24 25  1  0  0  0  0
 24 26  1  0  0  0  0
 24 27  1  0  0  0  0
M  CHG  1  18  -1
M  END
$$$$

  -OEChem-01062216073D

 27 26  0     1  0  0  0  0  0999 V2000
   -3.0613   -2.9641    1.1279 H   0  0  0  0  0  0  0  0  0  0  0  0
   -2.9248   -2.1049    0.4652 C   0  0  0  0  0  0  0  0  0  0  0  0
   -3.8660   -1.5539    0.4002 H   0  0  0  0  0  0  0  0  0  0  0  0
   -2.6543   -2.4701   -0.5294 H   0  0  0  0  0  0  0  0  0  0  0  0
   -1.8270   -1.2011    0.9967 C   0  0  0  0  0  0  0  0  0  0  0  0
   -1.3186   -1.4247    2.0850 O   0  0  0  0  0  0  0  0  0  0  0  0
   -1.4940   -0.0519    0.3105 N   0  0  0  0  0  0  0  0  0  0  0  0
   -1.9450    0.0229   -0.5975 H   0  0  0  0  0  0  0  0  0  0  0  0
   -0.1387    0.5278    0.3666 C   0  0  1  0  0  0  0  0  0  0  0  0
    0.3351    0.3346    1.3345 H   0  0  0  0  0  0  0  0  0  0  0  0
    0.7379   -0.1003   -0.7436 C   0  0  0  0  0  0  0  0  0  0  0  0
    0.2496    0.0351   -1.7149 H   0  0  0  0  0  0  0  0  0  0  0  0
    1.6974    0.4276   -0.7828 H   0  0  0  0  0  0  0  0  0  0  0  0
    1.0282   -1.5966   -0.5289 C   0  0  0  0  0  0  0  0  0  0  0  0
    1.5509   -1.7413    0.4213 H   0  0  0  0  0  0  0  0  0  0  0  0
    0.1001   -2.1695   -0.4903 H   0  0  0  0  0  0  0  0  0  0  0  0
    1.8745   -2.1563   -1.6702 C   0  0  0  0  0  0  0  0  0  0  0  0
    1.2594   -2.6008   -2.6726 O   0  5  0  0  0  0  0  0  0  0  0  0
    3.1239   -2.1346   -1.5455 O   0  0  0  0  0  0  0  0  0  0  0  0
   -0.2432    2.0609    0.1995 C   0  0  0  0  0  0  0  0  0  0  0  0
    0.2493    2.6821   -0.7340 O   0  0  0  0  0  0  0  0  0  0  0  0
   -0.9847    2.7607    1.1336 N   0  0  0  0  0  0  0  0  0  0  0  0
   -1.4368    2.2087    1.8570 H   0  0  0  0  0  0  0  0  0  0  0  0
   -1.2159    4.1968    1.0789 C   0  0  0  0  0  0  0  0  0  0  0  0
   -1.7741    4.4601    0.1748 H   0  0  0  0  0  0  0  0  0  0  0  0
   -1.7942    4.5175    1.9504 H   0  0  0  0  0  0  0  0  0  0  0  0
   -0.2641    4.7378    1.0782 H   0  0  0  0  0  0  0  0  0  0  0  0
  1  2  1  0  0  0  0
  2  3  1  0  0  0  0
  2  4  1  0  0  0  0
  2  5  1  0  0  0  0
  5  6  2  0  0  0  0
  5  7  1  0  0  0  0
  7  8  1  0  0  0  0
  7  9  1  0  0  0  0
  9 10  1  0  0  0  0
  9 11  1  0  0  0  0
  9 20  1  0  0  0  0
 11 12  1  0  0  0  0
 11 13  1  0  0  0  0
 11 14  1  0  0  0  0
 14 15  1  0  0  0  0
 14 16  1  0  0  0  0
 14 17  1  0  0  0  0
 17 18  1  0  0  0  0
 17 19  2  0  0  0  0
 20 21  2  0  0  0  0
 20 22  1  0  0  0  0
 22 23  1  0  0  0  0
 22 24  1  0  0  0  0
 24 25  1  0  0  0  0
 24 26  1  0  0  0  0
 24 27  1  0  0  0  0
M  CHG  1  18  -1
M  END
$$$$

  -OEChem-01062216073D

 27 26  0     1  0  0  0  0  0999 V2000
   -3.1067   -2.9278    1.1297 H   0  0  0  0  0  0  0  0  0  0  0  0
   -2.9494   -2.0782    0.4593 C   0  0  0  0  0  0  0  0  0  0  0  0
   -3.8792   -1.5094    0.3835 H   0  0  0  0  0  0  0  0  0  0  0  0
   -2.6808   -2.4585   -0.5302 H   0  0  0  0  0  0  0  0  0  0  0  0
   -1.8362   -1.1917    0.9880 C   0  0  0  0  0  0  0  0  0  0  0  0
   -1.3197   -1.4320    2.0694 O   0  0  0  0  0  0  0  0  0  0  0  0
   -1.4902   -0.0442    0.3058 N   0  0  0  0  0  0  0  0  0  0  0  0
   -1.9485    0.0528   -0.5965 H   0  0  0  0  0  0  0  0  0  0  0  0
   -0.1313    0.5223    0.3649 C   0  0  1  0  0  0  0  0  0  0  0  0
    0.3386    0.3190    1.3327 H   0  0  0  0  0  0  0  0  0  0  0  0
    0.7511   -0.1018   -0.7415 C   0  0  0  0  0  0  0  0  0  0  0  0
    0.2685    0.0362   -1.7153 H   0  0  0  0  0  0  0  0  0  0  0  0
    1.7103    0.4270   -0.7731 H   0  0  0  0  0  0  0  0  0  0  0  0
    1.0344   -1.5999   -0.5320 C   0  0  0  0  0  0  0  0  0  0  0  0
    1.5500   -1.7532    0.4206 H   0  0  0  0  0  0  0  0  0  0  0  0
    0.1025   -2.1675   -0.5019 H   0  0  0  0  0  0  0  0  0  0  0  0
    1.8882   -2.1569   -1.6695 C   0  0  0  0  0  0  0  0  0  0  0  0
    1.2845   -2.6959   -2.6313 O   0  5  0  0  0  0  0  0  0  0  0  0
    3.1349   -2.0305   -1.5845 O   0  0  0  0  0  0  0  0  0  0  0  0
   -0.2179    2.0551    0.2017 C   0  0  0  0  0  0  0  0  0  0  0  0
   -0.0057    2.6335   -0.8572 O   0  0  0  0  0  0  0  0  0  0  0  0
   -0.6686    2.7965    1.2784 N   0  0  0  0  0  0  0  0  0  0  0  0
   -0.9493    2.2740    2.1031 H   0  0  0  0  0  0  0  0  0  0  0  0
   -0.9064    4.2319    1.2310 C   0  0  0  0  0  0  0  0  0  0  0  0
   -1.7102    4.4634    0.5248 H   0  0  0  0  0  0  0  0  0  0  0  0
   -1.1967    4.5968    2.2208 H   0  0  0  0  0  0  0  0  0  0  0  0
    0.0012    4.7603    0.9213 H   0  0  0  0  0  0  0  0  0  0  0  0
  1  2  1  0  0  0  0
  2  3  1  0  0  0  0
  2  4  1  0  0  0  0
  2  5  1  0  0  0  0
  5  6  2  0  0  0  0
  5  7  1  0  0  0  0
  7  8  1  0  0  0  0
  7  9  1  0  0  0  0
  9 10  1  0  0  0  0
  9 11  1  0  0  0  0
  9 20  1  0  0  0  0
 11 12  1  0  0  0  0
 11 13  1  0  0  0  0
 11 14  1  0  0  0  0
 14 15  1  0  0  0  0
 14 16  1  0  0  0  0
 14 17  1  0  0  0  0
 17 18  1  0  0  0  0
 17 19  2  0  0  0  0
 20 21  2  0  0  0  0
 20 22  1  0  0  0  0
 22 23  1  0  0  0  0
 22 24  1  0  0  0  0
 24 25  1  0  0  0  0
 24 26  1  0  0  0  0
 24 27  1  0  0  0  0
M  CHG  1  18  -1
M  END
$$$$

  -OEChem-01062216073D

 27 26  0     1  0  0  0  0  0999 V2000
   -3.1768   -2.8762    1.1573 H   0  0  0  0  0  0  0  0  0  0  0  0
   -2.9892   -2.0437    0.4737 C   0  0  0  0  0  0  0  0  0  0  0  0
   -3.8958   -1.4391    0.3943 H   0  0  0  0  0  0  0  0  0  0  0  0
   -2.7407   -2.4479   -0.5114 H   0  0  0  0  0  0  0  0  0  0  0  0
   -1.8395   -1.1944    0.9839 C   0  0  0  0  0  0  0  0  0  0  0  0
   -1.2994   -1.4645    2.0469 O   0  0  0  0  0  0  0  0  0  0  0  0
   -1.4807   -0.0509    0.3020 N   0  0  0  0  0  0  0  0  0  0  0  0
   -1.9539    0.0736   -0.5895 H   0  0  0  0  0  0  0  0  0  0  0  0
   -0.1218    0.5117    0.3623 C   0  0  1  0  0  0  0  0  0  0  0  0
    0.3450    0.3028    1.3302 H   0  0  0  0  0  0  0  0  0  0  0  0
    0.7653   -0.1033   -0.7431 C   0  0  0  0  0  0  0  0  0  0  0  0
    0.2852    0.0378   -1.7177 H   0  0  0  0  0  0  0  0  0  0  0  0
    1.7225    0.4292   -0.7692 H   0  0  0  0  0  0  0  0  0  0  0  0
    1.0493   -1.6017   -0.5394 C   0  0  0  0  0  0  0  0  0  0  0  0
    1.5626   -1.7584    0.4138 H   0  0  0  0  0  0  0  0  0  0  0  0
    0.1165   -2.1688   -0.5129 H   0  0  0  0  0  0  0  0  0  0  0  0
    1.9090   -2.1523   -1.6758 C   0  0  0  0  0  0  0  0  0  0  0  0
    1.3257   -2.7966   -2.5837 O   0  5  0  0  0  0  0  0  0  0  0  0
    3.1408   -1.9080   -1.6471 O   0  0  0  0  0  0  0  0  0  0  0  0
   -0.1976    2.0430    0.1937 C   0  0  0  0  0  0  0  0  0  0  0  0
   -0.2908    2.5792   -0.9043 O   0  0  0  0  0  0  0  0  0  0  0  0
   -0.3349    2.8265    1.3250 N   0  0  0  0  0  0  0  0  0  0  0  0
   -0.3908    2.3389    2.2140 H   0  0  0  0  0  0  0  0  0  0  0  0
   -0.5737    4.2620    1.2876 C   0  0  0  0  0  0  0  0  0  0  0  0
   -1.5188    4.4796    0.7799 H   0  0  0  0  0  0  0  0  0  0  0  0
   -0.6261    4.6606    2.3050 H   0  0  0  0  0  0  0  0  0  0  0  0
    0.2384    4.7710    0.7585 H   0  0  0  0  0  0  0  0  0  0  0  0
  1  2  1  0  0  0  0
  2  3  1  0  0  0  0
  2  4  1  0  0  0  0
  2  5  1  0  0  0  0
  5  6  2  0  0  0  0
  5  7  1  0  0  0  0
  7  8  1  0  0  0  0
  7  9  1  0  0  0  0
  9 10  1  0  0  0  0
  9 11  1  0  0  0  0
  9 20  1  0  0  0  0
 11 12  1  0  0  0  0
 11 13  1  0  0  0  0
 11 14  1  0  0  0  0
 14 15  1  0  0  0  0
 14 16  1  0  0  0  0
 14 17  1  0  0  0  0
 17 18  1  0  0  0  0
 17 19  2  0  0  0  0
 20 21  2  0  0  0  0
 20 22  1  0  0  0  0
 22 23  1  0  0  0  0
 22 24  1  0  0  0  0
 24 25  1  0  0  0  0
 24 26  1  0  0  0  0
 24 27  1  0  0  0  0
M  CHG  1  18  -1
M  END
$$$$

  -OEChem-01062216073D

 27 26  0     1  0  0  0  0  0999 V2000
   -3.2480   -2.8409    1.1914 H   0  0  0  0  0  0  0  0  0  0  0  0
   -3.0272   -2.0361    0.4848 C   0  0  0  0  0  0  0  0  0  0  0  0
   -3.9135   -1.4061    0.3781 H   0  0  0  0  0  0  0  0  0  0  0  0
   -2.7832   -2.4773   -0.4853 H   0  0  0  0  0  0  0  0  0  0  0  0
   -1.8544   -1.2088    0.9798 C   0  0  0  0  0  0  0  0  0  0  0  0
   -1.2951   -1.5024    2.0267 O   0  0  0  0  0  0  0  0  0  0  0  0
   -1.4874   -0.0682    0.2973 N   0  0  0  0  0  0  0  0  0  0  0  0
   -1.9775    0.0858   -0.5803 H   0  0  0  0  0  0  0  0  0  0  0  0
   -0.1323    0.5015    0.3599 C   0  0  1  0  0  0  0  0  0  0  0  0
    0.3280    0.2930    1.3306 H   0  0  0  0  0  0  0  0  0  0  0  0
    0.7663   -0.0991   -0.7422 C   0  0  0  0  0  0  0  0  0  0  0  0
    0.2902    0.0427   -1.7186 H   0  0  0  0  0  0  0  0  0  0  0  0
    1.7182    0.4429   -0.7604 H   0  0  0  0  0  0  0  0  0  0  0  0
    1.0641   -1.5952   -0.5442 C   0  0  0  0  0  0  0  0  0  0  0  0
    1.5749   -1.7517    0.4103 H   0  0  0  0  0  0  0  0  0  0  0  0
    0.1353   -2.1695   -0.5236 H   0  0  0  0  0  0  0  0  0  0  0  0
    1.9362   -2.1325   -1.6783 C   0  0  0  0  0  0  0  0  0  0  0  0
    1.3847   -2.8603   -2.5415 O   0  5  0  0  0  0  0  0  0  0  0  0
    3.1452   -1.7908   -1.6949 O   0  0  0  0  0  0  0  0  0  0  0  0
   -0.2026    2.0315    0.1822 C   0  0  0  0  0  0  0  0  0  0  0  0
   -0.5686    2.5378   -0.8729 O   0  0  0  0  0  0  0  0  0  0  0  0
   -0.0282    2.8497    1.2837 N   0  0  0  0  0  0  0  0  0  0  0  0
    0.1702    2.3954    2.1698 H   0  0  0  0  0  0  0  0  0  0  0  0
   -0.2098    4.2938    1.2519 C   0  0  0  0  0  0  0  0  0  0  0  0
   -1.2510    4.5430    1.0235 H   0  0  0  0  0  0  0  0  0  0  0  0
    0.0460    4.7265    2.2236 H   0  0  0  0  0  0  0  0  0  0  0  0
    0.4375    4.7444    0.4924 H   0  0  0  0  0  0  0  0  0  0  0  0
  1  2  1  0  0  0  0
  2  3  1  0  0  0  0
  2  4  1  0  0  0  0
  2  5  1  0  0  0  0
  5  6  2  0  0  0  0
  5  7  1  0  0  0  0
  7  8  1  0  0  0  0
  7  9  1  0  0  0  0
  9 10  1  0  0  0  0
  9 11  1  0  0  0  0
  9 20  1  0  0  0  0
 11 12  1  0  0  0  0
 11 13  1  0  0  0  0
 11 14  1  0  0  0  0
 14 15  1  0  0  0  0
 14 16  1  0  0  0  0
 14 17  1  0  0  0  0
 17 18  1  0  0  0  0
 17 19  2  0  0  0  0
 20 21  2  0  0  0  0
 20 22  1  0  0  0  0
 22 23  1  0  0  0  0
 22 24  1  0  0  0  0
 24 25  1  0  0  0  0
 24 26  1  0  0  0  0
 24 27  1  0  0  0  0
M  CHG  1  18  -1
M  END
$$$$

  -OEChem-01062216073D

 27 26  0     1  0  0  0  0  0999 V2000
   -3.2635   -2.8625    1.2039 H   0  0  0  0  0  0  0  0  0  0  0  0
   -3.0685   -2.0371    0.5138 C   0  0  0  0  0  0  0  0  0  0  0  0
   -3.9518   -1.3956    0.4704 H   0  0  0  0  0  0  0  0  0  0  0  0
   -2.8764   -2.4489   -0.4805 H   0  0  0  0  0  0  0  0  0  0  0  0
   -1.8650   -1.2370    0.9787 C   0  0  0  0  0  0  0  0  0  0  0  0
   -1.2753   -1.5568    2.0008 O   0  0  0  0  0  0  0  0  0  0  0  0
   -1.5005   -0.0961    0.2959 N   0  0  0  0  0  0  0  0  0  0  0  0
   -2.0218    0.0954   -0.5560 H   0  0  0  0  0  0  0  0  0  0  0  0
   -0.1535    0.4923    0.3571 C   0  0  1  0  0  0  0  0  0  0  0  0
    0.3022    0.2896    1.3311 H   0  0  0  0  0  0  0  0  0  0  0  0
    0.7589   -0.0886   -0.7418 C   0  0  0  0  0  0  0  0  0  0  0  0
    0.2828    0.0477   -1.7192 H   0  0  0  0  0  0  0  0  0  0  0  0
    1.7010    0.4706   -0.7558 H   0  0  0  0  0  0  0  0  0  0  0  0
    1.0826   -1.5792   -0.5460 C   0  0  0  0  0  0  0  0  0  0  0  0
    1.5917   -1.7294    0.4102 H   0  0  0  0  0  0  0  0  0  0  0  0
    0.1629   -2.1686   -0.5303 H   0  0  0  0  0  0  0  0  0  0  0  0
    1.9690   -2.0969   -1.6784 C   0  0  0  0  0  0  0  0  0  0  0  0
    1.4541   -2.8863   -2.5092 O   0  5  0  0  0  0  0  0  0  0  0  0
    3.1513   -1.6734   -1.7290 O   0  0  0  0  0  0  0  0  0  0  0  0
   -0.2302    2.0206    0.1719 C   0  0  0  0  0  0  0  0  0  0  0  0
   -0.8303    2.5134   -0.7779 O   0  0  0  0  0  0  0  0  0  0  0  0
    0.2363    2.8563    1.1704 N   0  0  0  0  0  0  0  0  0  0  0  0
    0.7162    2.4217    1.9523 H   0  0  0  0  0  0  0  0  0  0  0  0
    0.1473    4.3081    1.1121 C   0  0  0  0  0  0  0  0  0  0  0  0
   -0.8986    4.6251    1.0487 H   0  0  0  0  0  0  0  0  0  0  0  0
    0.5879    4.7479    2.0116 H   0  0  0  0  0  0  0  0  0  0  0  0
    0.6875    4.6894    0.2395 H   0  0  0  0  0  0  0  0  0  0  0  0
  1  2  1  0  0  0  0
  2  3  1  0  0  0  0
  2  4  1  0  0  0  0
  2  5  1  0  0  0  0
  5  6  2  0  0  0  0
  5  7  1  0  0  0  0
  7  8  1  0  0  0  0
  7  9  1  0  0  0  0
  9 10  1  0  0  0  0
  9 11  1  0  0  0  0
  9 20  1  0  0  0  0
 11 12  1  0  0  0  0
 11 13  1  0  0  0  0
 11 14  1  0  0  0  0
 14 15  1  0  0  0  0
 14 16  1  0  0  0  0
 14 17  1  0  0  0  0
 17 18  1  0  0  0  0
 17 19  2  0  0  0  0
 20 21  2  0  0  0  0
 20 22  1  0  0  0  0
 22 23  1  0  0  0  0
 22 24  1  0  0  0  0
 24 25  1  0  0  0  0
 24 26  1  0  0  0  0
 24 27  1  0  0  0  0
M  CHG  1  18  -1
M  END
$$$$

  -OEChem-01062216073D

 27 26  0     1  0  0  0  0  0999 V2000
   -3.1493   -2.9688    1.2066 H   0  0  0  0  0  0  0  0  0  0  0  0
   -3.0707   -2.0556    0.6103 C   0  0  0  0  0  0  0  0  0  0  0  0
   -3.9638   -1.4474    0.7723 H   0  0  0  0  0  0  0  0  0  0  0  0
   -3.0120   -2.3310   -0.4459 H   0  0  0  0  0  0  0  0  0  0  0  0
   -1.8313   -1.2744    1.0079 C   0  0  0  0  0  0  0  0  0  0  0  0
   -1.1884   -1.6090    1.9921 O   0  0  0  0  0  0  0  0  0  0  0  0
   -1.4957   -0.1326    0.3123 N   0  0  0  0  0  0  0  0  0  0  0  0
   -2.0720    0.0948   -0.4943 H   0  0  0  0  0  0  0  0  0  0  0  0
   -0.1663    0.4957    0.3469 C   0  0  1  0  0  0  0  0  0  0  0  0
    0.3024    0.3168    1.3192 H   0  0  0  0  0  0  0  0  0  0  0  0
    0.7528   -0.0610   -0.7587 C   0  0  0  0  0  0  0  0  0  0  0  0
    0.2530    0.0584   -1.7266 H   0  0  0  0  0  0  0  0  0  0  0  0
    1.6754    0.5286   -0.7913 H   0  0  0  0  0  0  0  0  0  0  0  0
    1.1337   -1.5424   -0.5629 C   0  0  0  0  0  0  0  0  0  0  0  0
    1.6480   -1.6567    0.3958 H   0  0  0  0  0  0  0  0  0  0  0  0
    0.2295   -2.1544   -0.5392 H   0  0  0  0  0  0  0  0  0  0  0  0
    2.0305   -2.0953   -1.6787 C   0  0  0  0  0  0  0  0  0  0  0  0
    2.1787   -1.4254   -2.7326 O   0  5  0  0  0  0  0  0  0  0  0  0
    2.5700   -3.2085   -1.4644 O   0  0  0  0  0  0  0  0  0  0  0  0
   -0.2811    2.0198    0.1449 C   0  0  0  0  0  0  0  0  0  0  0  0
   -1.0981    2.4945   -0.6385 O   0  0  0  0  0  0  0  0  0  0  0  0
    0.4419    2.8754    0.9560 N   0  0  0  0  0  0  0  0  0  0  0  0
    1.1348    2.4558    1.5679 H   0  0  0  0  0  0  0  0  0  0  0  0
    0.3876    4.3255    0.8413 C   0  0  0  0  0  0  0  0  0  0  0  0
   -0.6332    4.6851    1.0063 H   0  0  0  0  0  0  0  0  0  0  0  0
    1.0406    4.7853    1.5888 H   0  0  0  0  0  0  0  0  0  0  0  0
    0.7194    4.6434   -0.1525 H   0  0  0  0  0  0  0  0  0  0  0  0
  1  2  1  0  0  0  0
  2  3  1  0  0  0  0
  2  4  1  0  0  0  0
  2  5  1  0  0  0  0
  5  6  2  0  0  0  0
  5  7  1  0  0  0  0
  7  8  1  0  0  0  0
  7  9  1  0  0  0  0
  9 10  1  0  0  0  0
  9 11  1  0  0  0  0
  9 20  1  0  0  0  0
 11 12  1  0  0  0  0
 11 13  1  0  0  0  0
 11 14  1  0  0  0  0
 14 15  1  0  0  0  0
 14 16  1  0  0  0  0
 14 17  1  0  0  0  0
 17 18  1  0  0  0  0
 17 19  2  0  0  0  0
 20 21  2  0  0  0  0
 20 22  1  0  0  0  0
 22 23  1  0  0  0  0
 22 24  1  0  0  0  0
 24 25  1  0  0  0  0
 24 26  1  0  0  0  0
 24 27  1  0  0  0  0
M  CHG  1  18  -1
M  END
$$$$

  -OEChem-01062216073D

 27 26  0     1  0  0  0  0  0999 V2000
   -3.1830   -2.9358    1.3747 H   0  0  0  0  0  0  0  0  0  0  0  0
   -3.0574   -2.0891    0.6941 C   0  0  0  0  0  0  0  0  0  0  0  0
   -3.9350   -1.4423    0.7681 H   0  0  0  0  0  0  0  0  0  0  0  0
   -2.9783   -2.4687   -0.3279 H   0  0  0  0  0  0  0  0  0  0  0  0
   -1.8045   -1.3090    1.0504 C   0  0  0  0  0  0  0  0  0  0  0  0
   -1.1303   -1.6439    2.0137 O   0  0  0  0  0  0  0  0  0  0  0  0
   -1.4882   -0.1726    0.3373 N   0  0  0  0  0  0  0  0  0  0  0  0
   -2.0990    0.0670   -0.4396 H   0  0  0  0  0  0  0  0  0  0  0  0
   -0.1737    0.4876    0.3561 C   0  0  1  0  0  0  0  0  0  0  0  0
    0.3036    0.3344    1.3290 H   0  0  0  0  0  0  0  0  0  0  0  0
    0.7445   -0.0674   -0.7500 C   0  0  0  0  0  0  0  0  0  0  0  0
    0.2369    0.0232   -1.7167 H   0  0  0  0  0  0  0  0  0  0  0  0
    1.6559    0.5389   -0.8002 H   0  0  0  0  0  0  0  0  0  0  0  0
    1.1557   -1.5320   -0.5377 C   0  0  0  0  0  0  0  0  0  0  0  0
    1.6979   -1.6353    0.4067 H   0  0  0  0  0  0  0  0  0  0  0  0
    0.2731   -2.1744   -0.4905 H   0  0  0  0  0  0  0  0  0  0  0  0
    2.0425   -2.0022   -1.6893 C   0  0  0  0  0  0  0  0  0  0  0  0
    3.2375   -1.6123   -1.6915 O   0  5  0  0  0  0  0  0  0  0  0  0
    1.5173   -2.7107   -2.5839 O   0  0  0  0  0  0  0  0  0  0  0  0
   -0.3092    2.0068    0.1277 C   0  0  0  0  0  0  0  0  0  0  0  0
   -1.2673    2.4740   -0.4819 O   0  0  0  0  0  0  0  0  0  0  0  0
    0.6133    2.8694    0.6910 N   0  0  0  0  0  0  0  0  0  0  0  0
    1.4422    2.4479    1.1001 H   0  0  0  0  0  0  0  0  0  0  0  0
    0.5864    4.3107    0.4880 C   0  0  0  0  0  0  0  0  0  0  0  0
   -0.3614    4.7297    0.8412 H   0  0  0  0  0  0  0  0  0  0  0  0
    1.4007    4.7837    1.0447 H   0  0  0  0  0  0  0  0  0  0  0  0
    0.7062    4.5499   -0.5735 H   0  0  0  0  0  0  0  0  0  0  0  0
  1  2  1  0  0  0  0
  2  3  1  0  0  0  0
  2  4  1  0  0  0  0
  2  5  1  0  0  0  0
  5  6  2  0  0  0  0
  5  7  1  0  0  0  0
  7  8  1  0  0  0  0
  7  9  1  0  0  0  0
  9 10  1  0  0  0  0
  9 11  1  0  0  0  0
  9 20  1  0  0  0  0
 11 12  1  0  0  0  0
 11 13  1  0  0  0  0
 11 14  1  0  0  0  0
 14 15  1  0  0  0  0
 14 16  1  0  0  0  0
 14 17  1  0  0  0  0
 17 18  1  0  0  0  0
 17 19  2  0  0  0  0
 20 21  2  0  0  0  0
 20 22  1  0  0  0  0
 22 23  1  0  0  0  0
 22 24  1  0  0  0  0
 24 25  1  0  0  0  0
 24 26  1  0  0  0  0
 24 27  1  0  0  0  0
M  CHG  1  18  -1
M  END
$$$$

  -OEChem-01062216073D

 27 26  0     1  0  0  0  0  0999 V2000
   -3.2316   -2.8942    1.4153 H   0  0  0  0  0  0  0  0  0  0  0  0
   -3.0811   -2.0738    0.7082 C   0  0  0  0  0  0  0  0  0  0  0  0
   -3.9371   -1.3969    0.7644 H   0  0  0  0  0  0  0  0  0  0  0  0
   -3.0172   -2.4870   -0.3019 H   0  0  0  0  0  0  0  0  0  0  0  0
   -1.8028   -1.3239    1.0381 C   0  0  0  0  0  0  0  0  0  0  0  0
   -1.1130   -1.6813    1.9818 O   0  0  0  0  0  0  0  0  0  0  0  0
   -1.4838   -0.1860    0.3287 N   0  0  0  0  0  0  0  0  0  0  0  0
   -2.1205    0.0915   -0.4138 H   0  0  0  0  0  0  0  0  0  0  0  0
   -0.1753    0.4861    0.3587 C   0  0  1  0  0  0  0  0  0  0  0  0
    0.2969    0.3385    1.3351 H   0  0  0  0  0  0  0  0  0  0  0  0
    0.7503   -0.0649   -0.7453 C   0  0  0  0  0  0  0  0  0  0  0  0
    0.2441    0.0244   -1.7130 H   0  0  0  0  0  0  0  0  0  0  0  0
    1.6597    0.5434   -0.7950 H   0  0  0  0  0  0  0  0  0  0  0  0
    1.1721   -1.5266   -0.5376 C   0  0  0  0  0  0  0  0  0  0  0  0
    1.7146   -1.6284    0.4066 H   0  0  0  0  0  0  0  0  0  0  0  0
    0.2956   -2.1778   -0.4935 H   0  0  0  0  0  0  0  0  0  0  0  0
    2.0645   -1.9814   -1.6914 C   0  0  0  0  0  0  0  0  0  0  0  0
    3.2494   -1.5616   -1.6999 O   0  5  0  0  0  0  0  0  0  0  0  0
    1.5519   -2.6999   -2.5852 O   0  0  0  0  0  0  0  0  0  0  0  0
   -0.3138    2.0059    0.1271 C   0  0  0  0  0  0  0  0  0  0  0  0
   -1.3640    2.4970   -0.2783 O   0  0  0  0  0  0  0  0  0  0  0  0
    0.7472    2.8417    0.4248 N   0  0  0  0  0  0  0  0  0  0  0  0
    1.6343    2.3915    0.6345 H   0  0  0  0  0  0  0  0  0  0  0  0
    0.7346    4.2734    0.1628 C   0  0  0  0  0  0  0  0  0  0  0  0
   -0.0926    4.7535    0.6955 H   0  0  0  0  0  0  0  0  0  0  0  0
    1.6712    4.7251    0.5028 H   0  0  0  0  0  0  0  0  0  0  0  0
    0.6252    4.4650   -0.9095 H   0  0  0  0  0  0  0  0  0  0  0  0
  1  2  1  0  0  0  0
  2  3  1  0  0  0  0
  2  4  1  0  0  0  0
  2  5  1  0  0  0  0
  5  6  2  0  0  0  0
  5  7  1  0  0  0  0
  7  8  1  0  0  0  0
  7  9  1  0  0  0  0
  9 10  1  0  0  0  0
  9 11  1  0  0  0  0
  9 20  1  0  0  0  0
 11 12  1  0  0  0  0
 11 13  1  0  0  0  0
 11 14  1  0  0  0  0
 14 15  1  0  0  0  0
 14 16  1  0  0  0  0
 14 17  1  0  0  0  0
 17 18  1  0  0  0  0
 17 19  2  0  0  0  0
 20 21  2  0  0  0  0
 20 22  1  0  0  0  0
 22 23  1  0  0  0  0
 22 24  1  0  0  0  0
 24 25  1  0  0  0  0
 24 26  1  0  0  0  0
 24 27  1  0  0  0  0
M  CHG  1  18  -1
M  END
$$$$

  -OEChem-01062216073D

 27 26  0     1  0  0  0  0  0999 V2000
   -3.1906   -2.9317    1.3356 H   0  0  0  0  0  0  0  0  0  0  0  0
   -3.0791   -2.0607    0.6839 C   0  0  0  0  0  0  0  0  0  0  0  0
   -3.9125   -1.3768    0.8614 H   0  0  0  0  0  0  0  0  0  0  0  0
   -3.1053   -2.3941   -0.3568 H   0  0  0  0  0  0  0  0  0  0  0  0
   -1.7626   -1.3586    0.9647 C   0  0  0  0  0  0  0  0  0  0  0  0
   -1.0140   -1.7947    1.8274 O   0  0  0  0  0  0  0  0  0  0  0  0
   -1.4519   -0.2069    0.2737 N   0  0  0  0  0  0  0  0  0  0  0  0
   -2.1414    0.1443   -0.3843 H   0  0  0  0  0  0  0  0  0  0  0  0
   -0.1539    0.4848    0.3280 C   0  0  1  0  0  0  0  0  0  0  0  0
    0.4333    0.1307    1.1811 H   0  0  0  0  0  0  0  0  0  0  0  0
    0.6196    0.1941   -0.9731 C   0  0  0  0  0  0  0  0  0  0  0  0
    0.0011    0.4753   -1.8327 H   0  0  0  0  0  0  0  0  0  0  0  0
    1.5272    0.8051   -1.0089 H   0  0  0  0  0  0  0  0  0  0  0  0
    1.0385   -1.2771   -1.1115 C   0  0  0  0  0  0  0  0  0  0  0  0
    1.6930   -1.5587   -0.2817 H   0  0  0  0  0  0  0  0  0  0  0  0
    0.1618   -1.9301   -1.0830 H   0  0  0  0  0  0  0  0  0  0  0  0
    1.7766   -1.4876   -2.4326 C   0  0  0  0  0  0  0  0  0  0  0  0
    2.9316   -1.0007   -2.5288 O   0  5  0  0  0  0  0  0  0  0  0  0
    1.1713   -2.0860   -3.3562 O   0  0  0  0  0  0  0  0  0  0  0  0
   -0.3101    2.0146    0.4863 C   0  0  0  0  0  0  0  0  0  0  0  0
   -1.4169    2.5424    0.5483 O   0  0  0  0  0  0  0  0  0  0  0  0
    0.8133    2.8195    0.5551 N   0  0  0  0  0  0  0  0  0  0  0  0
    1.7066    2.3680    0.3745 H   0  0  0  0  0  0  0  0  0  0  0  0
    0.7587    4.2738    0.5886 C   0  0  0  0  0  0  0  0  0  0  0  0
    0.1758    4.6165    1.4496 H   0  0  0  0  0  0  0  0  0  0  0  0
    1.7691    4.6853    0.6712 H   0  0  0  0  0  0  0  0  0  0  0  0
    0.2997    4.6600   -0.3272 H   0  0  0  0  0  0  0  0  0  0  0  0
  1  2  1  0  0  0  0
  2  3  1  0  0  0  0
  2  4  1  0  0  0  0
  2  5  1  0  0  0  0
  5  6  2  0  0  0  0
  5  7  1  0  0  0  0
  7  8  1  0  0  0  0
  7  9  1  0  0  0  0
  9 10  1  0  0  0  0
  9 11  1  0  0  0  0
  9 20  1  0  0  0  0
 11 12  1  0  0  0  0
 11 13  1  0  0  0  0
 11 14  1  0  0  0  0
 14 15  1  0  0  0  0
 14 16  1  0  0  0  0
 14 17  1  0  0  0  0
 17 18  1  0  0  0  0
 17 19  2  0  0  0  0
 20 21  2  0  0  0  0
 20 22  1  0  0  0  0
 22 23  1  0  0  0  0
 22 24  1  0  0  0  0
 24 25  1  0  0  0  0
 24 26  1  0  0  0  0
 24 27  1  0  0  0  0
M  CHG  1  18  -1
M  END
$$$$

  -OEChem-01062216073D

 27 26  0     1  0  0  0  0  0999 V2000
   -3.2077   -2.8958    1.3523 H   0  0  0  0  0  0  0  0  0  0  0  0
   -3.0924   -2.0214    0.7060 C   0  0  0  0  0  0  0  0  0  0  0  0
   -3.8985   -1.3152    0.9195 H   0  0  0  0  0  0  0  0  0  0  0  0
   -3.1645   -2.3418   -0.3365 H   0  0  0  0  0  0  0  0  0  0  0  0
   -1.7466   -1.3616    0.9483 C   0  0  0  0  0  0  0  0  0  0  0  0
   -0.9832   -1.8285    1.7812 O   0  0  0  0  0  0  0  0  0  0  0  0
   -1.4287   -0.2106    0.2595 N   0  0  0  0  0  0  0  0  0  0  0  0
   -2.1388    0.1775   -0.3537 H   0  0  0  0  0  0  0  0  0  0  0  0
   -0.1287    0.4777    0.3188 C   0  0  1  0  0  0  0  0  0  0  0  0
    0.4577    0.1272    1.1741 H   0  0  0  0  0  0  0  0  0  0  0  0
    0.6426    0.1736   -0.9834 C   0  0  0  0  0  0  0  0  0  0  0  0
    0.0264    0.4571   -1.8437 H   0  0  0  0  0  0  0  0  0  0  0  0
    1.5578    0.7720   -1.0227 H   0  0  0  0  0  0  0  0  0  0  0  0
    1.0547   -1.2997   -1.1201 C   0  0  0  0  0  0  0  0  0  0  0  0
    1.7093   -1.5839   -0.2911 H   0  0  0  0  0  0  0  0  0  0  0  0
    0.1755   -1.9490   -1.0912 H   0  0  0  0  0  0  0  0  0  0  0  0
    1.7885   -1.5104   -2.4437 C   0  0  0  0  0  0  0  0  0  0  0  0
    2.9466   -1.0312   -2.5409 O   0  5  0  0  0  0  0  0  0  0  0  0
    1.1723   -2.0898   -3.3721 O   0  0  0  0  0  0  0  0  0  0  0  0
   -0.2994    2.0091    0.4773 C   0  0  0  0  0  0  0  0  0  0  0  0
   -1.3855    2.4981    0.7749 O   0  0  0  0  0  0  0  0  0  0  0  0
    0.7618    2.8676    0.2483 N   0  0  0  0  0  0  0  0  0  0  0  0
    1.6175    2.4493   -0.1085 H   0  0  0  0  0  0  0  0  0  0  0  0
    0.6433    4.3185    0.2592 C   0  0  0  0  0  0  0  0  0  0  0  0
    0.2711    4.6655    1.2286 H   0  0  0  0  0  0  0  0  0  0  0  0
    1.6211    4.7762    0.0817 H   0  0  0  0  0  0  0  0  0  0  0  0
   -0.0439    4.6519   -0.5252 H   0  0  0  0  0  0  0  0  0  0  0  0
  1  2  1  0  0  0  0
  2  3  1  0  0  0  0
  2  4  1  0  0  0  0
  2  5  1  0  0  0  0
  5  6  2  0  0  0  0
  5  7  1  0  0  0  0
  7  8  1  0  0  0  0
  7  9  1  0  0  0  0
  9 10  1  0  0  0  0
  9 11  1  0  0  0  0
  9 20  1  0  0  0  0
 11 12  1  0  0  0  0
 11 13  1  0  0  0  0
 11 14  1  0  0  0  0
 14 15  1  0  0  0  0
 14 16  1  0  0  0  0
 14 17  1  0  0  0  0
 17 18  1  0  0  0  0
 17 19  2  0  0  0  0
 20 21  2  0  0  0  0
 20 22  1  0  0  0  0
 22 23  1  0  0  0  0
 22 24  1  0  0  0  0
 24 25  1  0  0  0  0
 24 26  1  0  0  0  0
 24 27  1  0  0  0  0
M  CHG  1  18  -1
M  END
$$$$

  -OEChem-01062216073D

 27 26  0     1  0  0  0  0  0999 V2000
   -3.1927   -2.8838    1.3640 H   0  0  0  0  0  0  0  0  0  0  0  0
   -3.0814   -2.0142    0.7104 C   0  0  0  0  0  0  0  0  0  0  0  0
   -3.8911   -1.3104    0.9175 H   0  0  0  0  0  0  0  0  0  0  0  0
   -3.1510   -2.3444   -0.3292 H   0  0  0  0  0  0  0  0  0  0  0  0
   -1.7395   -1.3453    0.9492 C   0  0  0  0  0  0  0  0  0  0  0  0
   -0.9745   -1.8038    1.7852 O   0  0  0  0  0  0  0  0  0  0  0  0
   -1.4266   -0.1983    0.2503 N   0  0  0  0  0  0  0  0  0  0  0  0
   -2.1292    0.1643   -0.3858 H   0  0  0  0  0  0  0  0  0  0  0  0
   -0.1240    0.4873    0.3007 C   0  0  1  0  0  0  0  0  0  0  0  0
    0.4639    0.1458    1.1587 H   0  0  0  0  0  0  0  0  0  0  0  0
    0.6434    0.1599   -0.9993 C   0  0  0  0  0  0  0  0  0  0  0  0
    0.0294    0.4371   -1.8631 H   0  0  0  0  0  0  0  0  0  0  0  0
    1.5646    0.7485   -1.0431 H   0  0  0  0  0  0  0  0  0  0  0  0
    1.0508   -1.3159   -1.1202 C   0  0  0  0  0  0  0  0  0  0  0  0
    1.7079   -1.5918   -0.2903 H   0  0  0  0  0  0  0  0  0  0  0  0
    0.1695   -1.9619   -1.0806 H   0  0  0  0  0  0  0  0  0  0  0  0
    1.7799   -1.5443   -2.4440 C   0  0  0  0  0  0  0  0  0  0  0  0
    2.9118   -1.0135   -2.5765 O   0  5  0  0  0  0  0  0  0  0  0  0
    1.1817   -2.1885   -3.3408 O   0  0  0  0  0  0  0  0  0  0  0  0
   -0.2995    2.0209    0.4519 C   0  0  0  0  0  0  0  0  0  0  0  0
   -1.2979    2.4867    0.9924 O   0  0  0  0  0  0  0  0  0  0  0  0
    0.6272    2.9109   -0.0643 N   0  0  0  0  0  0  0  0  0  0  0  0
    1.4081    2.5134   -0.5811 H   0  0  0  0  0  0  0  0  0  0  0  0
    0.4759    4.3582   -0.0217 C   0  0  0  0  0  0  0  0  0  0  0  0
    0.3709    4.7023    1.0123 H   0  0  0  0  0  0  0  0  0  0  0  0
    1.3560    4.8401   -0.4578 H   0  0  0  0  0  0  0  0  0  0  0  0
   -0.4072    4.6669   -0.5902 H   0  0  0  0  0  0  0  0  0  0  0  0
  1  2  1  0  0  0  0
  2  3  1  0  0  0  0
  2  4  1  0  0  0  0
  2  5  1  0  0  0  0
  5  6  2  0  0  0  0
  5  7  1  0  0  0  0
  7  8  1  0  0  0  0
  7  9  1  0  0  0  0
  9 10  1  0  0  0  0
  9 11  1  0  0  0  0
  9 20  1  0  0  0  0
 11 12  1  0  0  0  0
 11 13  1  0  0  0  0
 11 14  1  0  0  0  0
 14 15  1  0  0  0  0
 14 16  1  0  0  0  0
 14 17  1  0  0  0  0
 17 18  1  0  0  0  0
 17 19  2  0  0  0  0
 20 21  2  0  0  0  0
 20 22  1  0  0  0  0
 22 23  1  0  0  0  0
 22 24  1  0  0  0  0
 24 25  1  0  0  0  0
 24 26  1  0  0  0  0
 24 27  1  0  0  0  0
M  CHG  1  18  -1
M  END
$$$$

  -OEChem-01062216073D

 27 26  0     1  0  0  0  0  0999 V2000
   -3.1581   -2.8923    1.3719 H   0  0  0  0  0  0  0  0  0  0  0  0
   -3.0379   -2.0468    0.6890 C   0  0  0  0  0  0  0  0  0  0  0  0
   -3.8836   -1.3667    0.8172 H   0  0  0  0  0  0  0  0  0  0  0  0
   -3.0323   -2.4218   -0.3377 H   0  0  0  0  0  0  0  0  0  0  0  0
   -1.7371   -1.3185    0.9776 C   0  0  0  0  0  0  0  0  0  0  0  0
   -0.9900   -1.7376    1.8494 O   0  0  0  0  0  0  0  0  0  0  0  0
   -1.4347   -0.1763    0.2653 N   0  0  0  0  0  0  0  0  0  0  0  0
   -2.0945    0.1020   -0.4533 H   0  0  0  0  0  0  0  0  0  0  0  0
   -0.1300    0.5065    0.3017 C   0  0  1  0  0  0  0  0  0  0  0  0
    0.4653    0.1723    1.1577 H   0  0  0  0  0  0  0  0  0  0  0  0
    0.6238    0.1602   -1.0010 C   0  0  0  0  0  0  0  0  0  0  0  0
    0.0055    0.4317   -1.8638 H   0  0  0  0  0  0  0  0  0  0  0  0
    1.5482    0.7443   -1.0537 H   0  0  0  0  0  0  0  0  0  0  0  0
    1.0239   -1.3180   -1.1105 C   0  0  0  0  0  0  0  0  0  0  0  0
    1.6875   -1.5890   -0.2842 H   0  0  0  0  0  0  0  0  0  0  0  0
    0.1410   -1.9606   -1.0568 H   0  0  0  0  0  0  0  0  0  0  0  0
    1.7381   -1.5575   -2.4400 C   0  0  0  0  0  0  0  0  0  0  0  0
    2.8836   -1.0595   -2.5793 O   0  5  0  0  0  0  0  0  0  0  0  0
    1.1071   -2.1655   -3.3396 O   0  0  0  0  0  0  0  0  0  0  0  0
   -0.3051    2.0411    0.4443 C   0  0  0  0  0  0  0  0  0  0  0  0
   -1.1487    2.5031    1.2051 O   0  0  0  0  0  0  0  0  0  0  0  0
    0.4239    2.9339   -0.3236 N   0  0  0  0  0  0  0  0  0  0  0  0
    1.0943    2.5379   -0.9784 H   0  0  0  0  0  0  0  0  0  0  0  0
    0.2568    4.3789   -0.2728 C   0  0  0  0  0  0  0  0  0  0  0  0
    0.4697    4.7535    0.7336 H   0  0  0  0  0  0  0  0  0  0  0  0
    0.9446    4.8605   -0.9743 H   0  0  0  0  0  0  0  0  0  0  0  0
   -0.7666    4.6554   -0.5461 H   0  0  0  0  0  0  0  0  0  0  0  0
  1  2  1  0  0  0  0
  2  3  1  0  0  0  0
  2  4  1  0  0  0  0
  2  5  1  0  0  0  0
  5  6  2  0  0  0  0
  5  7  1  0  0  0  0
  7  8  1  0  0  0  0
  7  9  1  0  0  0  0
  9 10  1  0  0  0  0
  9 11  1  0  0  0  0
  9 20  1  0  0  0  0
 11 12  1  0  0  0  0
 11 13  1  0  0  0  0
 11 14  1  0  0  0  0
 14 15  1  0  0  0  0
 14 16  1  0  0  0  0
 14 17  1  0  0  0  0
 17 18  1  0  0  0  0
 17 19  2  0  0  0  0
 20 21  2  0  0  0  0
 20 22  1  0  0  0  0
 22 23  1  0  0  0  0
 22 24  1  0  0  0  0
 24 25  1  0  0  0  0
 24 26  1  0  0  0  0
 24 27  1  0  0  0  0
M  CHG  1  18  -1
M  END
$$$$

  -OEChem-01062216073D

 27 26  0     1  0  0  0  0  0999 V2000
   -3.1349   -2.8980    1.3952 H   0  0  0  0  0  0  0  0  0  0  0  0
   -3.0156   -2.0622    0.7002 C   0  0  0  0  0  0  0  0  0  0  0  0
   -3.8736   -1.3934    0.8021 H   0  0  0  0  0  0  0  0  0  0  0  0
   -2.9862   -2.4539   -0.3198 H   0  0  0  0  0  0  0  0  0  0  0  0
   -1.7317   -1.3088    0.9991 C   0  0  0  0  0  0  0  0  0  0  0  0
   -0.9899   -1.7068    1.8848 O   0  0  0  0  0  0  0  0  0  0  0  0
   -1.4389   -0.1716    0.2747 N   0  0  0  0  0  0  0  0  0  0  0  0
   -2.0759    0.0579   -0.4808 H   0  0  0  0  0  0  0  0  0  0  0  0
   -0.1355    0.5138    0.3008 C   0  0  1  0  0  0  0  0  0  0  0  0
    0.4641    0.1901    1.1582 H   0  0  0  0  0  0  0  0  0  0  0  0
    0.6158    0.1620   -1.0015 C   0  0  0  0  0  0  0  0  0  0  0  0
   -0.0066    0.4226   -1.8650 H   0  0  0  0  0  0  0  0  0  0  0  0
    1.5361    0.7535   -1.0591 H   0  0  0  0  0  0  0  0  0  0  0  0
    1.0200   -1.3147   -1.1030 C   0  0  0  0  0  0  0  0  0  0  0  0
    1.6846   -1.5805   -0.2755 H   0  0  0  0  0  0  0  0  0  0  0  0
    0.1415   -1.9630   -1.0487 H   0  0  0  0  0  0  0  0  0  0  0  0
    1.7294   -1.5514   -2.4343 C   0  0  0  0  0  0  0  0  0  0  0  0
    2.9737   -1.3879   -2.4714 O   0  5  0  0  0  0  0  0  0  0  0  0
    1.0074   -1.7899   -3.4346 O   0  0  0  0  0  0  0  0  0  0  0  0
   -0.3210    2.0465    0.4322 C   0  0  0  0  0  0  0  0  0  0  0  0
   -0.9650    2.5148    1.3639 O   0  0  0  0  0  0  0  0  0  0  0  0
    0.1528    2.9235   -0.5295 N   0  0  0  0  0  0  0  0  0  0  0  0
    0.6728    2.5194   -1.3046 H   0  0  0  0  0  0  0  0  0  0  0  0
   -0.0387    4.3656   -0.4827 C   0  0  0  0  0  0  0  0  0  0  0  0
    0.4169    4.7831    0.4207 H   0  0  0  0  0  0  0  0  0  0  0  0
    0.4283    4.8334   -1.3543 H   0  0  0  0  0  0  0  0  0  0  0  0
   -1.1056    4.6106   -0.4885 H   0  0  0  0  0  0  0  0  0  0  0  0
  1  2  1  0  0  0  0
  2  3  1  0  0  0  0
  2  4  1  0  0  0  0
  2  5  1  0  0  0  0
  5  6  2  0  0  0  0
  5  7  1  0  0  0  0
  7  8  1  0  0  0  0
  7  9  1  0  0  0  0
  9 10  1  0  0  0  0
  9 11  1  0  0  0  0
  9 20  1  0  0  0  0
 11 12  1  0  0  0  0
 11 13  1  0  0  0  0
 11 14  1  0  0  0  0
 14 15  1  0  0  0  0
 14 16  1  0  0  0  0
 14 17  1  0  0  0  0
 17 18  1  0  0  0  0
 17 19  2  0  0  0  0
 20 21  2  0  0  0  0
 20 22  1  0  0  0  0
 22 23  1  0  0  0  0
 22 24  1  0  0  0  0
 24 25  1  0  0  0  0
 24 26  1  0  0  0  0
 24 27  1  0  0  0  0
M  CHG  1  18  -1
M  END
$$$$

  -OEChem-01062216073D

 27 26  0     1  0  0  0  0  0999 V2000
   -3.2699   -2.8728    1.2222 H   0  0  0  0  0  0  0  0  0  0  0  0
   -3.1327   -1.9964    0.5826 C   0  0  0  0  0  0  0  0  0  0  0  0
   -3.9797   -1.3206    0.7238 H   0  0  0  0  0  0  0  0  0  0  0  0
   -3.1049   -2.3234   -0.4599 H   0  0  0  0  0  0  0  0  0  0  0  0
   -1.8370   -1.2871    0.9343 C   0  0  0  0  0  0  0  0  0  0  0  0
   -1.1324   -1.7271    1.8297 O   0  0  0  0  0  0  0  0  0  0  0  0
   -1.4933   -0.1398    0.2485 N   0  0  0  0  0  0  0  0  0  0  0  0
   -2.0997    0.1218   -0.5213 H   0  0  0  0  0  0  0  0  0  0  0  0
   -0.1644    0.4919    0.3150 C   0  0  1  0  0  0  0  0  0  0  0  0
    0.4126    0.1150    1.1663 H   0  0  0  0  0  0  0  0  0  0  0  0
    0.5900    0.1686   -0.9912 C   0  0  0  0  0  0  0  0  0  0  0  0
   -0.0172    0.4858   -1.8463 H   0  0  0  0  0  0  0  0  0  0  0  0
    1.5252    0.7396   -1.0107 H   0  0  0  0  0  0  0  0  0  0  0  0
    0.9476   -1.3187   -1.1652 C   0  0  0  0  0  0  0  0  0  0  0  0
    1.5854   -1.6392   -0.3363 H   0  0  0  0  0  0  0  0  0  0  0  0
    0.0391   -1.9260   -1.1430 H   0  0  0  0  0  0  0  0  0  0  0  0
    1.6745   -1.5976   -2.4885 C   0  0  0  0  0  0  0  0  0  0  0  0
    1.9945   -2.7886   -2.7187 O   0  5  0  0  0  0  0  0  0  0  0  0
    1.8858   -0.6383   -3.2766 O   0  0  0  0  0  0  0  0  0  0  0  0
   -0.2888    2.0244    0.4924 C   0  0  0  0  0  0  0  0  0  0  0  0
   -0.6890    2.4946    1.5506 O   0  0  0  0  0  0  0  0  0  0  0  0
   -0.0466    2.8951   -0.5576 N   0  0  0  0  0  0  0  0  0  0  0  0
    0.3362    2.4881   -1.4088 H   0  0  0  0  0  0  0  0  0  0  0  0
   -0.1350    4.3438   -0.4479 C   0  0  0  0  0  0  0  0  0  0  0  0
    0.5847    4.7157    0.2883 H   0  0  0  0  0  0  0  0  0  0  0  0
    0.0861    4.8064   -1.4143 H   0  0  0  0  0  0  0  0  0  0  0  0
   -1.1426    4.6450   -0.1437 H   0  0  0  0  0  0  0  0  0  0  0  0
  1  2  1  0  0  0  0
  2  3  1  0  0  0  0
  2  4  1  0  0  0  0
  2  5  1  0  0  0  0
  5  6  2  0  0  0  0
  5  7  1  0  0  0  0
  7  8  1  0  0  0  0
  7  9  1  0  0  0  0
  9 10  1  0  0  0  0
  9 11  1  0  0  0  0
  9 20  1  0  0  0  0
 11 12  1  0  0  0  0
 11 13  1  0  0  0  0
 11 14  1  0  0  0  0
 14 15  1  0  0  0  0
 14 16  1  0  0  0  0
 14 17  1  0  0  0  0
 17 18  1  0  0  0  0
 17 19  2  0  0  0  0
 20 21  2  0  0  0  0
 20 22  1  0  0  0  0
 22 23  1  0  0  0  0
 22 24  1  0  0  0  0
 24 25  1  0  0  0  0
 24 26  1  0  0  0  0
 24 27  1  0  0  0  0
M  CHG  1  18  -1
M  END
$$$$

  -OEChem-01062216073D

 27 26  0     1  0  0  0  0  0999 V2000
   -3.2042   -2.9104    1.3074 H   0  0  0  0  0  0  0  0  0  0  0  0
   -3.0661   -2.0679    0.6239 C   0  0  0  0  0  0  0  0  0  0  0  0
   -3.9353   -1.4097    0.6953 H   0  0  0  0  0  0  0  0  0  0  0  0
   -2.9904   -2.4518   -0.3969 H   0  0  0  0  0  0  0  0  0  0  0  0
   -1.8045   -1.3023    0.9819 C   0  0  0  0  0  0  0  0  0  0  0  0
   -1.1024   -1.6946    1.9010 O   0  0  0  0  0  0  0  0  0  0  0  0
   -1.4912   -0.1598    0.2735 N   0  0  0  0  0  0  0  0  0  0  0  0
   -2.0739    0.0296   -0.5352 H   0  0  0  0  0  0  0  0  0  0  0  0
   -0.1748    0.5001    0.3246 C   0  0  1  0  0  0  0  0  0  0  0  0
    0.4164    0.1468    1.1768 H   0  0  0  0  0  0  0  0  0  0  0  0
    0.5725    0.1716   -0.9841 C   0  0  0  0  0  0  0  0  0  0  0  0
   -0.0458    0.4563   -1.8426 H   0  0  0  0  0  0  0  0  0  0  0  0
    1.4952    0.7611   -1.0265 H   0  0  0  0  0  0  0  0  0  0  0  0
    0.9478   -1.3099   -1.1237 C   0  0  0  0  0  0  0  0  0  0  0  0
    1.6030   -1.6102   -0.3005 H   0  0  0  0  0  0  0  0  0  0  0  0
    0.0556   -1.9406   -1.0896 H   0  0  0  0  0  0  0  0  0  0  0  0
    1.6562   -1.5294   -2.4588 C   0  0  0  0  0  0  0  0  0  0  0  0
    0.9306   -1.5819   -3.4840 O   0  5  0  0  0  0  0  0  0  0  0  0
    2.9107   -1.5598   -2.4664 O   0  0  0  0  0  0  0  0  0  0  0  0
   -0.3265    2.0302    0.4763 C   0  0  0  0  0  0  0  0  0  0  0  0
   -0.4598    2.5357    1.5839 O   0  0  0  0  0  0  0  0  0  0  0  0
   -0.4083    2.8522   -0.6353 N   0  0  0  0  0  0  0  0  0  0  0  0
   -0.2088    2.4215   -1.5344 H   0  0  0  0  0  0  0  0  0  0  0  0
   -0.5178    4.3016   -0.5593 C   0  0  0  0  0  0  0  0  0  0  0  0
    0.3568    4.7256   -0.0556 H   0  0  0  0  0  0  0  0  0  0  0  0
   -0.5787    4.7257   -1.5659 H   0  0  0  0  0  0  0  0  0  0  0  0
   -1.4190    4.5893   -0.0082 H   0  0  0  0  0  0  0  0  0  0  0  0
  1  2  1  0  0  0  0
  2  3  1  0  0  0  0
  2  4  1  0  0  0  0
  2  5  1  0  0  0  0
  5  6  2  0  0  0  0
  5  7  1  0  0  0  0
  7  8  1  0  0  0  0
  7  9  1  0  0  0  0
  9 10  1  0  0  0  0
  9 11  1  0  0  0  0
  9 20  1  0  0  0  0
 11 12  1  0  0  0  0
 11 13  1  0  0  0  0
 11 14  1  0  0  0  0
 14 15  1  0  0  0  0
 14 16  1  0  0  0  0
 14 17  1  0  0  0  0
 17 18  1  0  0  0  0
 17 19  2  0  0  0  0
 20 21  2  0  0  0  0
 20 22  1  0  0  0  0
 22 23  1  0  0  0  0
 22 24  1  0  0  0  0
 24 25  1  0  0  0  0
 24 26  1  0  0  0  0
 24 27  1  0  0  0  0
M  CHG  1  18  -1
M  END
$$$$

  -OEChem-01062216073D

 27 26  0     1  0  0  0  0  0999 V2000
   -3.1600   -2.9643    1.2862 H   0  0  0  0  0  0  0  0  0  0  0  0
   -3.0351   -2.1108    0.6140 C   0  0  0  0  0  0  0  0  0  0  0  0
   -3.9279   -1.4833    0.6705 H   0  0  0  0  0  0  0  0  0  0  0  0
   -2.9223   -2.4820   -0.4080 H   0  0  0  0  0  0  0  0  0  0  0  0
   -1.8088   -1.3066    1.0076 C   0  0  0  0  0  0  0  0  0  0  0  0
   -1.1284   -1.6685    1.9547 O   0  0  0  0  0  0  0  0  0  0  0  0
   -1.5027   -0.1639    0.2962 N   0  0  0  0  0  0  0  0  0  0  0  0
   -2.0579   -0.0134   -0.5396 H   0  0  0  0  0  0  0  0  0  0  0  0
   -0.1884    0.5010    0.3531 C   0  0  1  0  0  0  0  0  0  0  0  0
    0.4084    0.1446    1.2003 H   0  0  0  0  0  0  0  0  0  0  0  0
    0.5500    0.1911   -0.9637 C   0  0  0  0  0  0  0  0  0  0  0  0
   -0.0720    0.4875   -1.8150 H   0  0  0  0  0  0  0  0  0  0  0  0
    1.4707    0.7839   -1.0033 H   0  0  0  0  0  0  0  0  0  0  0  0
    0.9261   -1.2893   -1.1221 C   0  0  0  0  0  0  0  0  0  0  0  0
    1.5850   -1.5967   -0.3045 H   0  0  0  0  0  0  0  0  0  0  0  0
    0.0342   -1.9201   -1.0905 H   0  0  0  0  0  0  0  0  0  0  0  0
    1.6265   -1.5009   -2.4631 C   0  0  0  0  0  0  0  0  0  0  0  0
    0.9104   -1.4129   -3.4932 O   0  5  0  0  0  0  0  0  0  0  0  0
    2.8656   -1.6975   -2.4662 O   0  0  0  0  0  0  0  0  0  0  0  0
   -0.3443    2.0292    0.5017 C   0  0  0  0  0  0  0  0  0  0  0  0
   -0.1959    2.5715    1.5895 O   0  0  0  0  0  0  0  0  0  0  0  0
   -0.7289    2.8039   -0.5799 N   0  0  0  0  0  0  0  0  0  0  0  0
   -0.7218    2.3461   -1.4872 H   0  0  0  0  0  0  0  0  0  0  0  0
   -0.8286    4.2552   -0.5293 C   0  0  0  0  0  0  0  0  0  0  0  0
    0.1457    4.6975   -0.2980 H   0  0  0  0  0  0  0  0  0  0  0  0
   -1.1656    4.6419   -1.4957 H   0  0  0  0  0  0  0  0  0  0  0  0
   -1.5487    4.5635    0.2355 H   0  0  0  0  0  0  0  0  0  0  0  0
  1  2  1  0  0  0  0
  2  3  1  0  0  0  0
  2  4  1  0  0  0  0
  2  5  1  0  0  0  0
  5  6  2  0  0  0  0
  5  7  1  0  0  0  0
  7  8  1  0  0  0  0
  7  9  1  0  0  0  0
  9 10  1  0  0  0  0
  9 11  1  0  0  0  0
  9 20  1  0  0  0  0
 11 12  1  0  0  0  0
 11 13  1  0  0  0  0
 11 14  1  0  0  0  0
 14 15  1  0  0  0  0
 14 16  1  0  0  0  0
 14 17  1  0  0  0  0
 17 18  1  0  0  0  0
 17 19  2  0  0  0  0
 20 21  2  0  0  0  0
 20 22  1  0  0  0  0
 22 23  1  0  0  0  0
 22 24  1  0  0  0  0
 24 25  1  0  0  0  0
 24 26  1  0  0  0  0
 24 27  1  0  0  0  0
M  CHG  1  18  -1
M  END
$$$$

  -OEChem-01062216073D

 27 26  0     1  0  0  0  0  0999 V2000
   -3.0945   -3.0289    1.2465 H   0  0  0  0  0  0  0  0  0  0  0  0
   -2.9958   -2.1561    0.5950 C   0  0  0  0  0  0  0  0  0  0  0  0
   -3.9168   -1.5705    0.6466 H   0  0  0  0  0  0  0  0  0  0  0  0
   -2.8470   -2.5000   -0.4320 H   0  0  0  0  0  0  0  0  0  0  0  0
   -1.8150   -1.3064    1.0294 C   0  0  0  0  0  0  0  0  0  0  0  0
   -1.1692   -1.6293    2.0139 O   0  0  0  0  0  0  0  0  0  0  0  0
   -1.5144   -0.1637    0.3155 N   0  0  0  0  0  0  0  0  0  0  0  0
   -2.0289   -0.0616   -0.5530 H   0  0  0  0  0  0  0  0  0  0  0  0
   -0.1988    0.4996    0.3833 C   0  0  1  0  0  0  0  0  0  0  0  0
    0.4007    0.1354    1.2256 H   0  0  0  0  0  0  0  0  0  0  0  0
    0.5294    0.2062   -0.9420 C   0  0  0  0  0  0  0  0  0  0  0  0
   -0.0946    0.5213   -1.7852 H   0  0  0  0  0  0  0  0  0  0  0  0
    1.4538    0.7938   -0.9778 H   0  0  0  0  0  0  0  0  0  0  0  0
    0.8959   -1.2756   -1.1189 C   0  0  0  0  0  0  0  0  0  0  0  0
    1.5563   -1.5952   -0.3071 H   0  0  0  0  0  0  0  0  0  0  0  0
    0.0001   -1.9010   -1.0894 H   0  0  0  0  0  0  0  0  0  0  0  0
    1.5877   -1.4845   -2.4649 C   0  0  0  0  0  0  0  0  0  0  0  0
    0.8739   -1.3473   -3.4915 O   0  5  0  0  0  0  0  0  0  0  0  0
    2.8138   -1.7499   -2.4741 O   0  0  0  0  0  0  0  0  0  0  0  0
   -0.3465    2.0276    0.5319 C   0  0  0  0  0  0  0  0  0  0  0  0
    0.0715    2.6065    1.5266 O   0  0  0  0  0  0  0  0  0  0  0  0
   -1.0061    2.7609   -0.4401 N   0  0  0  0  0  0  0  0  0  0  0  0
   -1.2027    2.2772   -1.3108 H   0  0  0  0  0  0  0  0  0  0  0  0
   -1.1137    4.2123   -0.4072 C   0  0  0  0  0  0  0  0  0  0  0  0
   -0.1208    4.6704   -0.4599 H   0  0  0  0  0  0  0  0  0  0  0  0
   -1.7052    4.5643   -1.2576 H   0  0  0  0  0  0  0  0  0  0  0  0
   -1.6069    4.5394    0.5140 H   0  0  0  0  0  0  0  0  0  0  0  0
  1  2  1  0  0  0  0
  2  3  1  0  0  0  0
  2  4  1  0  0  0  0
  2  5  1  0  0  0  0
  5  6  2  0  0  0  0
  5  7  1  0  0  0  0
  7  8  1  0  0  0  0
  7  9  1  0  0  0  0
  9 10  1  0  0  0  0
  9 11  1  0  0  0  0
  9 20  1  0  0  0  0
 11 12  1  0  0  0  0
 11 13  1  0  0  0  0
 11 14  1  0  0  0  0
 14 15  1  0  0  0  0
 14 16  1  0  0  0  0
 14 17  1  0  0  0  0
 17 18  1  0  0  0  0
 17 19  2  0  0  0  0
 20 21  2  0  0  0  0
 20 22  1  0  0  0  0
 22 23  1  0  0  0  0
 22 24  1  0  0  0  0
 24 25  1  0  0  0  0
 24 26  1  0  0  0  0
 24 27  1  0  0  0  0
M  CHG  1  18  -1
M  END
$$$$

  -OEChem-01062216073D

 27 26  0     1  0  0  0  0  0999 V2000
   -3.0279   -3.0909    1.2086 H   0  0  0  0  0  0  0  0  0  0  0  0
   -2.9404   -2.2174    0.5565 C   0  0  0  0  0  0  0  0  0  0  0  0
   -3.8916   -1.6798    0.5559 H   0  0  0  0  0  0  0  0  0  0  0  0
   -2.7215   -2.5591   -0.4587 H   0  0  0  0  0  0  0  0  0  0  0  0
   -1.8277   -1.3073    1.0447 C   0  0  0  0  0  0  0  0  0  0  0  0
   -1.2311   -1.5811    2.0741 O   0  0  0  0  0  0  0  0  0  0  0  0
   -1.5352   -0.1629    0.3297 N   0  0  0  0  0  0  0  0  0  0  0  0
   -1.9917   -0.1226   -0.5759 H   0  0  0  0  0  0  0  0  0  0  0  0
   -0.2177    0.4982    0.4131 C   0  0  1  0  0  0  0  0  0  0  0  0
    0.3811    0.1233    1.2512 H   0  0  0  0  0  0  0  0  0  0  0  0
    0.5027    0.2135   -0.9176 C   0  0  0  0  0  0  0  0  0  0  0  0
   -0.1212    0.5444   -1.7549 H   0  0  0  0  0  0  0  0  0  0  0  0
    1.4314    0.7944   -0.9509 H   0  0  0  0  0  0  0  0  0  0  0  0
    0.8588   -1.2699   -1.1080 C   0  0  0  0  0  0  0  0  0  0  0  0
    1.5214   -1.5999   -0.3022 H   0  0  0  0  0  0  0  0  0  0  0  0
   -0.0400   -1.8908   -1.0791 H   0  0  0  0  0  0  0  0  0  0  0  0
    1.5432   -1.4748   -2.4575 C   0  0  0  0  0  0  0  0  0  0  0  0
    0.8087   -1.3975   -3.4754 O   0  5  0  0  0  0  0  0  0  0  0  0
    2.7802   -1.6821   -2.4789 O   0  0  0  0  0  0  0  0  0  0  0  0
   -0.3464    2.0275    0.5663 C   0  0  0  0  0  0  0  0  0  0  0  0
    0.3224    2.6337    1.3935 O   0  0  0  0  0  0  0  0  0  0  0  0
   -1.2356    2.7376   -0.2223 N   0  0  0  0  0  0  0  0  0  0  0  0
   -1.6802    2.2246   -0.9754 H   0  0  0  0  0  0  0  0  0  0  0  0
   -1.3338    4.1899   -0.2065 C   0  0  0  0  0  0  0  0  0  0  0  0
   -0.3871    4.6400   -0.5224 H   0  0  0  0  0  0  0  0  0  0  0  0
   -2.1215    4.5202   -0.8899 H   0  0  0  0  0  0  0  0  0  0  0  0
   -1.5783    4.5471    0.7991 H   0  0  0  0  0  0  0  0  0  0  0  0
  1  2  1  0  0  0  0
  2  3  1  0  0  0  0
  2  4  1  0  0  0  0
  2  5  1  0  0  0  0
  5  6  2  0  0  0  0
  5  7  1  0  0  0  0
  7  8  1  0  0  0  0
  7  9  1  0  0  0  0
  9 10  1  0  0  0  0
  9 11  1  0  0  0  0
  9 20  1  0  0  0  0
 11 12  1  0  0  0  0
 11 13  1  0  0  0  0
 11 14  1  0  0  0  0
 14 15  1  0  0  0  0
 14 16  1  0  0  0  0
 14 17  1  0  0  0  0
 17 18  1  0  0  0  0
 17 19  2  0  0  0  0
 20 21  2  0  0  0  0
 20 22  1  0  0  0  0
 22 23  1  0  0  0  0
 22 24  1  0  0  0  0
 24 25  1  0  0  0  0
 24 26  1  0  0  0  0
 24 27  1  0  0  0  0
M  CHG  1  18  -1
M  END
$$$$

  -OEChem-01062216073D

 27 26  0     1  0  0  0  0  0999 V2000
   -3.0144   -3.0942    1.1898 H   0  0  0  0  0  0  0  0  0  0  0  0
   -2.9117   -2.2329    0.5236 C   0  0  0  0  0  0  0  0  0  0  0  0
   -3.8679   -1.7061    0.4769 H   0  0  0  0  0  0  0  0  0  0  0  0
   -2.6517   -2.5921   -0.4758 H   0  0  0  0  0  0  0  0  0  0  0  0
   -1.8277   -1.3003    1.0343 C   0  0  0  0  0  0  0  0  0  0  0  0
   -1.2690   -1.5430    2.0924 O   0  0  0  0  0  0  0  0  0  0  0  0
   -1.5343   -0.1555    0.3202 N   0  0  0  0  0  0  0  0  0  0  0  0
   -1.9484   -0.1526   -0.6073 H   0  0  0  0  0  0  0  0  0  0  0  0
   -0.2121    0.4974    0.4131 C   0  0  1  0  0  0  0  0  0  0  0  0
    0.3811    0.1147    1.2514 H   0  0  0  0  0  0  0  0  0  0  0  0
    0.5094    0.2091   -0.9164 C   0  0  0  0  0  0  0  0  0  0  0  0
   -0.1097    0.5481   -1.7543 H   0  0  0  0  0  0  0  0  0  0  0  0
    1.4433    0.7818   -0.9470 H   0  0  0  0  0  0  0  0  0  0  0  0
    0.8527   -1.2786   -1.1043 C   0  0  0  0  0  0  0  0  0  0  0  0
    1.5095   -1.6124   -0.2953 H   0  0  0  0  0  0  0  0  0  0  0  0
   -0.0510   -1.8919   -1.0764 H   0  0  0  0  0  0  0  0  0  0  0  0
    1.5397   -1.4991   -2.4501 C   0  0  0  0  0  0  0  0  0  0  0  0
    0.8055   -1.4393   -3.4694 O   0  5  0  0  0  0  0  0  0  0  0  0
    2.7749   -1.7186   -2.4665 O   0  0  0  0  0  0  0  0  0  0  0  0
   -0.3237    2.0279    0.5719 C   0  0  0  0  0  0  0  0  0  0  0  0
    0.5354    2.6603    1.1724 O   0  0  0  0  0  0  0  0  0  0  0  0
   -1.3935    2.7146    0.0252 N   0  0  0  0  0  0  0  0  0  0  0  0
   -2.0874    2.1628   -0.4654 H   0  0  0  0  0  0  0  0  0  0  0  0
   -1.5473    4.1603    0.0932 C   0  0  0  0  0  0  0  0  0  0  0  0
   -0.7021    4.6575   -0.3935 H   0  0  0  0  0  0  0  0  0  0  0  0
   -2.4671    4.4641   -0.4149 H   0  0  0  0  0  0  0  0  0  0  0  0
   -1.6014    4.4910    1.1354 H   0  0  0  0  0  0  0  0  0  0  0  0
  1  2  1  0  0  0  0
  2  3  1  0  0  0  0
  2  4  1  0  0  0  0
  2  5  1  0  0  0  0
  5  6  2  0  0  0  0
  5  7  1  0  0  0  0
  7  8  1  0  0  0  0
  7  9  1  0  0  0  0
  9 10  1  0  0  0  0
  9 11  1  0  0  0  0
  9 20  1  0  0  0  0
 11 12  1  0  0  0  0
 11 13  1  0  0  0  0
 11 14  1  0  0  0  0
 14 15  1  0  0  0  0
 14 16  1  0  0  0  0
 14 17  1  0  0  0  0
 17 18  1  0  0  0  0
 17 19  2  0  0  0  0
 20 21  2  0  0  0  0
 20 22  1  0  0  0  0
 22 23  1  0  0  0  0
 22 24  1  0  0  0  0
 24 25  1  0  0  0  0
 24 26  1  0  0  0  0
 24 27  1  0  0  0  0
M  CHG  1  18  -1
M  END
$$$$

  -OEChem-01062216073D

 27 26  0     1  0  0  0  0  0999 V2000
   -2.9650   -3.1072    1.1418 H   0  0  0  0  0  0  0  0  0  0  0  0
   -2.8855   -2.2324    0.4904 C   0  0  0  0  0  0  0  0  0  0  0  0
   -3.8548   -1.7299    0.4520 H   0  0  0  0  0  0  0  0  0  0  0  0
   -2.6164   -2.5681   -0.5147 H   0  0  0  0  0  0  0  0  0  0  0  0
   -1.8267   -1.2805    1.0171 C   0  0  0  0  0  0  0  0  0  0  0  0
   -1.2977   -1.4973    2.0958 O   0  0  0  0  0  0  0  0  0  0  0  0
   -1.5292   -0.1378    0.3012 N   0  0  0  0  0  0  0  0  0  0  0  0
   -1.9253   -0.1456   -0.6351 H   0  0  0  0  0  0  0  0  0  0  0  0
   -0.2018    0.5057    0.3974 C   0  0  1  0  0  0  0  0  0  0  0  0
    0.3856    0.1217    1.2388 H   0  0  0  0  0  0  0  0  0  0  0  0
    0.5207    0.1998   -0.9280 C   0  0  0  0  0  0  0  0  0  0  0  0
   -0.0930    0.5379   -1.7703 H   0  0  0  0  0  0  0  0  0  0  0  0
    1.4609    0.7618   -0.9625 H   0  0  0  0  0  0  0  0  0  0  0  0
    0.8483   -1.2943   -1.0977 C   0  0  0  0  0  0  0  0  0  0  0  0
    1.4976   -1.6254   -0.2815 H   0  0  0  0  0  0  0  0  0  0  0  0
   -0.0623   -1.8971   -1.0665 H   0  0  0  0  0  0  0  0  0  0  0  0
    1.5375   -1.5421   -2.4376 C   0  0  0  0  0  0  0  0  0  0  0  0
    0.8080   -1.4882   -3.4606 O   0  5  0  0  0  0  0  0  0  0  0  0
    2.7678   -1.7886   -2.4446 O   0  0  0  0  0  0  0  0  0  0  0  0
   -0.3043    2.0373    0.5564 C   0  0  0  0  0  0  0  0  0  0  0  0
    0.6585    2.7002    0.9199 O   0  0  0  0  0  0  0  0  0  0  0  0
   -1.4954    2.6877    0.2886 N   0  0  0  0  0  0  0  0  0  0  0  0
   -2.2948    2.0953    0.0939 H   0  0  0  0  0  0  0  0  0  0  0  0
   -1.6903    4.1203    0.4559 C   0  0  0  0  0  0  0  0  0  0  0  0
   -0.9805    4.6776   -0.1641 H   0  0  0  0  0  0  0  0  0  0  0  0
   -2.7041    4.3993    0.1541 H   0  0  0  0  0  0  0  0  0  0  0  0
   -1.5472    4.4062    1.5029 H   0  0  0  0  0  0  0  0  0  0  0  0
  1  2  1  0  0  0  0
  2  3  1  0  0  0  0
  2  4  1  0  0  0  0
  2  5  1  0  0  0  0
  5  6  2  0  0  0  0
  5  7  1  0  0  0  0
  7  8  1  0  0  0  0
  7  9  1  0  0  0  0
  9 10  1  0  0  0  0
  9 11  1  0  0  0  0
  9 20  1  0  0  0  0
 11 12  1  0  0  0  0
 11 13  1  0  0  0  0
 11 14  1  0  0  0  0
 14 15  1  0  0  0  0
 14 16  1  0  0  0  0
 14 17  1  0  0  0  0
 17 18  1  0  0  0  0
 17 19  2  0  0  0  0
 20 21  2  0  0  0  0
 20 22  1  0  0  0  0
 22 23  1  0  0  0  0
 22 24  1  0  0  0  0
 24 25  1  0  0  0  0
 24 26  1  0  0  0  0
 24 27  1  0  0  0  0
M  CHG  1  18  -1
M  END
$$$$

  -OEChem-01062216073D

 27 26  0     1  0  0  0  0  0999 V2000
   -2.9737   -3.0899    1.1254 H   0  0  0  0  0  0  0  0  0  0  0  0
   -2.8878   -2.2170    0.4721 C   0  0  0  0  0  0  0  0  0  0  0  0
   -3.8539   -1.7083    0.4311 H   0  0  0  0  0  0  0  0  0  0  0  0
   -2.6199   -2.5569   -0.5320 H   0  0  0  0  0  0  0  0  0  0  0  0
   -1.8228   -1.2717    0.9986 C   0  0  0  0  0  0  0  0  0  0  0  0
   -1.3022   -1.4842    2.0824 O   0  0  0  0  0  0  0  0  0  0  0  0
   -1.5202   -0.1276    0.2878 N   0  0  0  0  0  0  0  0  0  0  0  0
   -1.9225   -0.1208   -0.6462 H   0  0  0  0  0  0  0  0  0  0  0  0
   -0.1898    0.5106    0.3826 C   0  0  1  0  0  0  0  0  0  0  0  0
    0.3938    0.1271    1.2268 H   0  0  0  0  0  0  0  0  0  0  0  0
    0.5355    0.1916   -0.9400 C   0  0  0  0  0  0  0  0  0  0  0  0
   -0.0742    0.5270   -1.7861 H   0  0  0  0  0  0  0  0  0  0  0  0
    1.4795    0.7467   -0.9774 H   0  0  0  0  0  0  0  0  0  0  0  0
    0.8570   -1.3054   -1.0985 C   0  0  0  0  0  0  0  0  0  0  0  0
    1.5024   -1.6338   -0.2781 H   0  0  0  0  0  0  0  0  0  0  0  0
   -0.0564   -1.9038   -1.0654 H   0  0  0  0  0  0  0  0  0  0  0  0
    1.5489   -1.5689   -2.4342 C   0  0  0  0  0  0  0  0  0  0  0  0
    0.8186   -1.5458   -3.4578 O   0  5  0  0  0  0  0  0  0  0  0  0
    2.7820   -1.8017   -2.4366 O   0  0  0  0  0  0  0  0  0  0  0  0
   -0.2960    2.0430    0.5480 C   0  0  0  0  0  0  0  0  0  0  0  0
    0.7003    2.7429    0.6741 O   0  0  0  0  0  0  0  0  0  0  0  0
   -1.5388    2.6489    0.5907 N   0  0  0  0  0  0  0  0  0  0  0  0
   -2.3364    2.0220    0.6100 H   0  0  0  0  0  0  0  0  0  0  0  0
   -1.7388    4.0689    0.8398 C   0  0  0  0  0  0  0  0  0  0  0  0
   -1.2207    4.6666    0.0830 H   0  0  0  0  0  0  0  0  0  0  0  0
   -2.8049    4.3106    0.7995 H   0  0  0  0  0  0  0  0  0  0  0  0
   -1.3569    4.3412    1.8290 H   0  0  0  0  0  0  0  0  0  0  0  0
  1  2  1  0  0  0  0
  2  3  1  0  0  0  0
  2  4  1  0  0  0  0
  2  5  1  0  0  0  0
  5  6  2  0  0  0  0
  5  7  1  0  0  0  0
  7  8  1  0  0  0  0
  7  9  1  0  0  0  0
  9 10  1  0  0  0  0
  9 11  1  0  0  0  0
  9 20  1  0  0  0  0
 11 12  1  0  0  0  0
 11 13  1  0  0  0  0
 11 14  1  0  0  0  0
 14 15  1  0  0  0  0
 14 16  1  0  0  0  0
 14 17  1  0  0  0  0
 17 18  1  0  0  0  0
 17 19  2  0  0  0  0
 20 21  2  0  0  0  0
 20 22  1  0  0  0  0
 22 23  1  0  0  0  0
 22 24  1  0  0  0  0
 24 25  1  0  0  0  0
 24 26  1  0  0  0  0
 24 27  1  0  0  0  0
M  CHG  1  18  -1
M  END
$$$$

  -OEChem-01062216073D

 27 26  0     1  0  0  0  0  0999 V2000
   -2.9438   -3.0942    1.0694 H   0  0  0  0  0  0  0  0  0  0  0  0
   -2.8808   -2.1997    0.4433 C   0  0  0  0  0  0  0  0  0  0  0  0
   -3.8538   -1.7028    0.4345 H   0  0  0  0  0  0  0  0  0  0  0  0
   -2.6262   -2.5044   -0.5755 H   0  0  0  0  0  0  0  0  0  0  0  0
   -1.8188   -1.2573    0.9807 C   0  0  0  0  0  0  0  0  0  0  0  0
   -1.3062   -1.4702    2.0684 O   0  0  0  0  0  0  0  0  0  0  0  0
   -1.5121   -0.1087    0.2797 N   0  0  0  0  0  0  0  0  0  0  0  0
   -1.9237   -0.0833   -0.6501 H   0  0  0  0  0  0  0  0  0  0  0  0
   -0.1774    0.5203    0.3714 C   0  0  1  0  0  0  0  0  0  0  0  0
    0.4033    0.1324    1.2153 H   0  0  0  0  0  0  0  0  0  0  0  0
    0.5475    0.1871   -0.9497 C   0  0  0  0  0  0  0  0  0  0  0  0
   -0.0587    0.5213   -1.7989 H   0  0  0  0  0  0  0  0  0  0  0  0
    1.4968    0.7326   -0.9914 H   0  0  0  0  0  0  0  0  0  0  0  0
    0.8565   -1.3145   -1.0940 C   0  0  0  0  0  0  0  0  0  0  0  0
    1.4976   -1.6407   -0.2695 H   0  0  0  0  0  0  0  0  0  0  0  0
   -0.0619   -1.9046   -1.0570 H   0  0  0  0  0  0  0  0  0  0  0  0
    1.5479   -1.5989   -2.4253 C   0  0  0  0  0  0  0  0  0  0  0  0
    0.8161   -1.6078   -3.4478 O   0  5  0  0  0  0  0  0  0  0  0  0
    2.7833   -1.8193   -2.4241 O   0  0  0  0  0  0  0  0  0  0  0  0
   -0.2879    2.0522    0.5517 C   0  0  0  0  0  0  0  0  0  0  0  0
    0.6777    2.7946    0.4281 O   0  0  0  0  0  0  0  0  0  0  0  0
   -1.5007    2.6085    0.9159 N   0  0  0  0  0  0  0  0  0  0  0  0
   -2.2474    1.9499    1.1153 H   0  0  0  0  0  0  0  0  0  0  0  0
   -1.6893    4.0204    1.2150 C   0  0  0  0  0  0  0  0  0  0  0  0
   -1.4156    4.6338    0.3505 H   0  0  0  0  0  0  0  0  0  0  0  0
   -2.7376    4.2167    1.4585 H   0  0  0  0  0  0  0  0  0  0  0  0
   -1.0719    4.3154    2.0697 H   0  0  0  0  0  0  0  0  0  0  0  0
  1  2  1  0  0  0  0
  2  3  1  0  0  0  0
  2  4  1  0  0  0  0
  2  5  1  0  0  0  0
  5  6  2  0  0  0  0
  5  7  1  0  0  0  0
  7  8  1  0  0  0  0
  7  9  1  0  0  0  0
  9 10  1  0  0  0  0
  9 11  1  0  0  0  0
  9 20  1  0  0  0  0
 11 12  1  0  0  0  0
 11 13  1  0  0  0  0
 11 14  1  0  0  0  0
 14 15  1  0  0  0  0
 14 16  1  0  0  0  0
 14 17  1  0  0  0  0
 17 18  1  0  0  0  0
 17 19  2  0  0  0  0
 20 21  2  0  0  0  0
 20 22  1  0  0  0  0
 22 23  1  0  0  0  0
 22 24  1  0  0  0  0
 24 25  1  0  0  0  0
 24 26  1  0  0  0  0
 24 27  1  0  0  0  0
M  CHG  1  18  -1
M  END
$$$$

  -OEChem-01062216073D

 27 26  0     1  0  0  0  0  0999 V2000
   -2.9920   -3.0414    1.0747 H   0  0  0  0  0  0  0  0  0  0  0  0
   -2.8937   -2.1625    0.4314 C   0  0  0  0  0  0  0  0  0  0  0  0
   -3.8514   -1.6375    0.3996 H   0  0  0  0  0  0  0  0  0  0  0  0
   -2.6351   -2.4951   -0.5776 H   0  0  0  0  0  0  0  0  0  0  0  0
   -1.8112   -1.2405    0.9631 C   0  0  0  0  0  0  0  0  0  0  0  0
   -1.2935   -1.4642    2.0464 O   0  0  0  0  0  0  0  0  0  0  0  0
   -1.4988   -0.0870    0.2737 N   0  0  0  0  0  0  0  0  0  0  0  0
   -1.9295   -0.0354   -0.6463 H   0  0  0  0  0  0  0  0  0  0  0  0
   -0.1580    0.5282    0.3559 C   0  0  1  0  0  0  0  0  0  0  0  0
    0.4218    0.1341    1.1970 H   0  0  0  0  0  0  0  0  0  0  0  0
    0.5682    0.1865   -0.9630 C   0  0  0  0  0  0  0  0  0  0  0  0
   -0.0329    0.5223   -1.8150 H   0  0  0  0  0  0  0  0  0  0  0  0
    1.5223    0.7236   -1.0036 H   0  0  0  0  0  0  0  0  0  0  0  0
    0.8650   -1.3184   -1.0986 C   0  0  0  0  0  0  0  0  0  0  0  0
    1.4993   -1.6462   -0.2695 H   0  0  0  0  0  0  0  0  0  0  0  0
   -0.0591   -1.8995   -1.0616 H   0  0  0  0  0  0  0  0  0  0  0  0
    1.5587   -1.6200   -2.4250 C   0  0  0  0  0  0  0  0  0  0  0  0
    0.8283   -1.6589   -3.4476 O   0  5  0  0  0  0  0  0  0  0  0  0
    2.7967   -1.8261   -2.4182 O   0  0  0  0  0  0  0  0  0  0  0  0
   -0.2739    2.0578    0.5560 C   0  0  0  0  0  0  0  0  0  0  0  0
    0.5830    2.8473    0.1799 O   0  0  0  0  0  0  0  0  0  0  0  0
   -1.3724    2.5567    1.2317 N   0  0  0  0  0  0  0  0  0  0  0  0
   -2.0231    1.8650    1.5926 H   0  0  0  0  0  0  0  0  0  0  0  0
   -1.5616    3.9621    1.5599 C   0  0  0  0  0  0  0  0  0  0  0  0
   -1.5753    4.5695    0.6491 H   0  0  0  0  0  0  0  0  0  0  0  0
   -2.5130    4.1004    2.0819 H   0  0  0  0  0  0  0  0  0  0  0  0
   -0.7542    4.3149    2.2096 H   0  0  0  0  0  0  0  0  0  0  0  0
  1  2  1  0  0  0  0
  2  3  1  0  0  0  0
  2  4  1  0  0  0  0
  2  5  1  0  0  0  0
  5  6  2  0  0  0  0
  5  7  1  0  0  0  0
  7  8  1  0  0  0  0
  7  9  1  0  0  0  0
  9 10  1  0  0  0  0
  9 11  1  0  0  0  0
  9 20  1  0  0  0  0
 11 12  1  0  0  0  0
 11 13  1  0  0  0  0
 11 14  1  0  0  0  0
 14 15  1  0  0  0  0
 14 16  1  0  0  0  0
 14 17  1  0  0  0  0
 17 18  1  0  0  0  0
 17 19  2  0  0  0  0
 20 21  2  0  0  0  0
 20 22  1  0  0  0  0
 22 23  1  0  0  0  0
 22 24  1  0  0  0  0
 24 25  1  0  0  0  0
 24 26  1  0  0  0  0
 24 27  1  0  0  0  0
M  CHG  1  18  -1
M  END
$$$$

  -OEChem-01062216073D

 27 26  0     1  0  0  0  0  0999 V2000
   -3.0008   -3.0147    1.0440 H   0  0  0  0  0  0  0  0  0  0  0  0
   -2.9067   -2.1244    0.4161 C   0  0  0  0  0  0  0  0  0  0  0  0
   -3.8617   -1.5938    0.4071 H   0  0  0  0  0  0  0  0  0  0  0  0
   -2.6635   -2.4391   -0.6024 H   0  0  0  0  0  0  0  0  0  0  0  0
   -1.8122   -1.2186    0.9503 C   0  0  0  0  0  0  0  0  0  0  0  0
   -1.2936   -1.4525    2.0315 O   0  0  0  0  0  0  0  0  0  0  0  0
   -1.4910   -0.0625    0.2707 N   0  0  0  0  0  0  0  0  0  0  0  0
   -1.9349    0.0116   -0.6414 H   0  0  0  0  0  0  0  0  0  0  0  0
   -0.1432    0.5343    0.3453 C   0  0  1  0  0  0  0  0  0  0  0  0
    0.4335    0.1316    1.1847 H   0  0  0  0  0  0  0  0  0  0  0  0
    0.5863    0.1840   -0.9693 C   0  0  0  0  0  0  0  0  0  0  0  0
   -0.0078    0.5226   -1.8251 H   0  0  0  0  0  0  0  0  0  0  0  0
    1.5449    0.7133   -1.0050 H   0  0  0  0  0  0  0  0  0  0  0  0
    0.8683   -1.3243   -1.0979 C   0  0  0  0  0  0  0  0  0  0  0  0
    1.4957   -1.6556   -0.2649 H   0  0  0  0  0  0  0  0  0  0  0  0
   -0.0621   -1.8954   -1.0616 H   0  0  0  0  0  0  0  0  0  0  0  0
    1.5660   -1.6397   -2.4190 C   0  0  0  0  0  0  0  0  0  0  0  0
    0.8312   -1.7633   -3.4315 O   0  5  0  0  0  0  0  0  0  0  0  0
    2.8148   -1.7673   -2.4175 O   0  0  0  0  0  0  0  0  0  0  0  0
   -0.2554    2.0606    0.5625 C   0  0  0  0  0  0  0  0  0  0  0  0
    0.4168    2.8833   -0.0462 O   0  0  0  0  0  0  0  0  0  0  0  0
   -1.1570    2.5173    1.5059 N   0  0  0  0  0  0  0  0  0  0  0  0
   -1.6838    1.8048    2.0040 H   0  0  0  0  0  0  0  0  0  0  0  0
   -1.3458    3.9204    1.8430 C   0  0  0  0  0  0  0  0  0  0  0  0
   -1.6895    4.4808    0.9677 H   0  0  0  0  0  0  0  0  0  0  0  0
   -2.0949    4.0188    2.6341 H   0  0  0  0  0  0  0  0  0  0  0  0
   -0.4075    4.3584    2.1982 H   0  0  0  0  0  0  0  0  0  0  0  0
  1  2  1  0  0  0  0
  2  3  1  0  0  0  0
  2  4  1  0  0  0  0
  2  5  1  0  0  0  0
  5  6  2  0  0  0  0
  5  7  1  0  0  0  0
  7  8  1  0  0  0  0
  7  9  1  0  0  0  0
  9 10  1  0  0  0  0
  9 11  1  0  0  0  0
  9 20  1  0  0  0  0
 11 12  1  0  0  0  0
 11 13  1  0  0  0  0
 11 14  1  0  0  0  0
 14 15  1  0  0  0  0
 14 16  1  0  0  0  0
 14 17  1  0  0  0  0
 17 18  1  0  0  0  0
 17 19  2  0  0  0  0
 20 21  2  0  0  0  0
 20 22  1  0  0  0  0
 22 23  1  0  0  0  0
 22 24  1  0  0  0  0
 24 25  1  0  0  0  0
 24 26  1  0  0  0  0
 24 27  1  0  0  0  0
M  CHG  1  18  -1
M  END
$$$$

  -OEChem-01062216073D

 27 26  0     1  0  0  0  0  0999 V2000
   -3.0556   -2.9551    1.0677 H   0  0  0  0  0  0  0  0  0  0  0  0
   -2.9302   -2.0803    0.4236 C   0  0  0  0  0  0  0  0  0  0  0  0
   -3.8676   -1.5194    0.3998 H   0  0  0  0  0  0  0  0  0  0  0  0
   -2.6927   -2.4212   -0.5878 H   0  0  0  0  0  0  0  0  0  0  0  0
   -1.8094   -1.1999    0.9462 C   0  0  0  0  0  0  0  0  0  0  0  0
   -1.2783   -1.4511    2.0180 O   0  0  0  0  0  0  0  0  0  0  0  0
   -1.4759   -0.0442    0.2724 N   0  0  0  0  0  0  0  0  0  0  0  0
   -1.9324    0.0537   -0.6311 H   0  0  0  0  0  0  0  0  0  0  0  0
   -0.1212    0.5328    0.3411 C   0  0  1  0  0  0  0  0  0  0  0  0
    0.4550    0.1194    1.1753 H   0  0  0  0  0  0  0  0  0  0  0  0
    0.6081    0.1813   -0.9731 C   0  0  0  0  0  0  0  0  0  0  0  0
    0.0173    0.5257   -1.8290 H   0  0  0  0  0  0  0  0  0  0  0  0
    1.5699    0.7053   -1.0056 H   0  0  0  0  0  0  0  0  0  0  0  0
    0.8744   -1.3291   -1.1060 C   0  0  0  0  0  0  0  0  0  0  0  0
    1.4953   -1.6710   -0.2727 H   0  0  0  0  0  0  0  0  0  0  0  0
   -0.0630   -1.8893   -1.0736 H   0  0  0  0  0  0  0  0  0  0  0  0
    1.5730   -1.6471   -2.4258 C   0  0  0  0  0  0  0  0  0  0  0  0
    0.8380   -1.8345   -3.4281 O   0  5  0  0  0  0  0  0  0  0  0  0
    2.8270   -1.7056   -2.4331 O   0  0  0  0  0  0  0  0  0  0  0  0
   -0.2218    2.0565    0.5690 C   0  0  0  0  0  0  0  0  0  0  0  0
    0.2072    2.8925   -0.2164 O   0  0  0  0  0  0  0  0  0  0  0  0
   -0.8614    2.4918    1.7146 N   0  0  0  0  0  0  0  0  0  0  0  0
   -1.2566    1.7696    2.3114 H   0  0  0  0  0  0  0  0  0  0  0  0
   -1.0775    3.8928    2.0444 C   0  0  0  0  0  0  0  0  0  0  0  0
   -1.7029    4.3725    1.2847 H   0  0  0  0  0  0  0  0  0  0  0  0
   -1.5805    3.9772    3.0121 H   0  0  0  0  0  0  0  0  0  0  0  0
   -0.1218    4.4236    2.1043 H   0  0  0  0  0  0  0  0  0  0  0  0
  1  2  1  0  0  0  0
  2  3  1  0  0  0  0
  2  4  1  0  0  0  0
  2  5  1  0  0  0  0
  5  6  2  0  0  0  0
  5  7  1  0  0  0  0
  7  8  1  0  0  0  0
  7  9  1  0  0  0  0
  9 10  1  0  0  0  0
  9 11  1  0  0  0  0
  9 20  1  0  0  0  0
 11 12  1  0  0  0  0
 11 13  1  0  0  0  0
 11 14  1  0  0  0  0
 14 15  1  0  0  0  0
 14 16  1  0  0  0  0
 14 17  1  0  0  0  0
 17 18  1  0  0  0  0
 17 19  2  0  0  0  0
 20 21  2  0  0  0  0
 20 22  1  0  0  0  0
 22 23  1  0  0  0  0
 22 24  1  0  0  0  0
 24 25  1  0  0  0  0
 24 26  1  0  0  0  0
 24 27  1  0  0  0  0
M  CHG  1  18  -1
M  END
$$$$

  -OEChem-01062216073D

 27 26  0     1  0  0  0  0  0999 V2000
   -3.1253   -2.8978    1.0957 H   0  0  0  0  0  0  0  0  0  0  0  0
   -2.9665   -2.0402    0.4360 C   0  0  0  0  0  0  0  0  0  0  0  0
   -3.8815   -1.4438    0.4032 H   0  0  0  0  0  0  0  0  0  0  0  0
   -2.7439   -2.4075   -0.5695 H   0  0  0  0  0  0  0  0  0  0  0  0
   -1.8114   -1.1947    0.9414 C   0  0  0  0  0  0  0  0  0  0  0  0
   -1.2534   -1.4796    1.9914 O   0  0  0  0  0  0  0  0  0  0  0  0
   -1.4652   -0.0409    0.2707 N   0  0  0  0  0  0  0  0  0  0  0  0
   -1.9429    0.0894   -0.6176 H   0  0  0  0  0  0  0  0  0  0  0  0
   -0.1081    0.5268    0.3346 C   0  0  1  0  0  0  0  0  0  0  0  0
    0.4670    0.1057    1.1654 H   0  0  0  0  0  0  0  0  0  0  0  0
    0.6249    0.1789   -0.9773 C   0  0  0  0  0  0  0  0  0  0  0  0
    0.0370    0.5249   -1.8347 H   0  0  0  0  0  0  0  0  0  0  0  0
    1.5861    0.7040   -1.0043 H   0  0  0  0  0  0  0  0  0  0  0  0
    0.8875   -1.3316   -1.1130 C   0  0  0  0  0  0  0  0  0  0  0  0
    1.5065   -1.6775   -0.2798 H   0  0  0  0  0  0  0  0  0  0  0  0
   -0.0523   -1.8884   -1.0822 H   0  0  0  0  0  0  0  0  0  0  0  0
    1.5908   -1.6489   -2.4306 C   0  0  0  0  0  0  0  0  0  0  0  0
    0.8653   -1.9794   -3.4022 O   0  5  0  0  0  0  0  0  0  0  0  0
    2.8423   -1.5520   -2.4682 O   0  0  0  0  0  0  0  0  0  0  0  0
   -0.1958    2.0495    0.5639 C   0  0  0  0  0  0  0  0  0  0  0  0
   -0.0558    2.8744   -0.3310 O   0  0  0  0  0  0  0  0  0  0  0  0
   -0.5302    2.4931    1.8299 N   0  0  0  0  0  0  0  0  0  0  0  0
   -0.7529    1.7762    2.5154 H   0  0  0  0  0  0  0  0  0  0  0  0
   -0.7579    3.8917    2.1624 C   0  0  0  0  0  0  0  0  0  0  0  0
   -1.6013    4.2890    1.5886 H   0  0  0  0  0  0  0  0  0  0  0  0
   -0.9845    3.9922    3.2280 H   0  0  0  0  0  0  0  0  0  0  0  0
    0.1337    4.4875    1.9412 H   0  0  0  0  0  0  0  0  0  0  0  0
  1  2  1  0  0  0  0
  2  3  1  0  0  0  0
  2  4  1  0  0  0  0
  2  5  1  0  0  0  0
  5  6  2  0  0  0  0
  5  7  1  0  0  0  0
  7  8  1  0  0  0  0
  7  9  1  0  0  0  0
  9 10  1  0  0  0  0
  9 11  1  0  0  0  0
  9 20  1  0  0  0  0
 11 12  1  0  0  0  0
 11 13  1  0  0  0  0
 11 14  1  0  0  0  0
 14 15  1  0  0  0  0
 14 16  1  0  0  0  0
 14 17  1  0  0  0  0
 17 18  1  0  0  0  0
 17 19  2  0  0  0  0
 20 21  2  0  0  0  0
 20 22  1  0  0  0  0
 22 23  1  0  0  0  0
 22 24  1  0  0  0  0
 24 25  1  0  0  0  0
 24 26  1  0  0  0  0
 24 27  1  0  0  0  0
M  CHG  1  18  -1
M  END
$$$$

  -OEChem-01062216073D

 27 26  0     1  0  0  0  0  0999 V2000
   -3.1539   -2.8832    1.1071 H   0  0  0  0  0  0  0  0  0  0  0  0
   -2.9913   -2.0278    0.4459 C   0  0  0  0  0  0  0  0  0  0  0  0
   -3.8989   -1.4201    0.4227 H   0  0  0  0  0  0  0  0  0  0  0  0
   -2.7839   -2.3976   -0.5619 H   0  0  0  0  0  0  0  0  0  0  0  0
   -1.8203   -1.1973    0.9392 C   0  0  0  0  0  0  0  0  0  0  0  0
   -1.2423   -1.5026    1.9730 O   0  0  0  0  0  0  0  0  0  0  0  0
   -1.4691   -0.0471    0.2652 N   0  0  0  0  0  0  0  0  0  0  0  0
   -1.9596    0.1012   -0.6132 H   0  0  0  0  0  0  0  0  0  0  0  0
   -0.1140    0.5223    0.3278 C   0  0  1  0  0  0  0  0  0  0  0  0
    0.4592    0.0995    1.1591 H   0  0  0  0  0  0  0  0  0  0  0  0
    0.6269    0.1790   -0.9797 C   0  0  0  0  0  0  0  0  0  0  0  0
    0.0407    0.5220   -1.8396 H   0  0  0  0  0  0  0  0  0  0  0  0
    1.5852    0.7096   -1.0022 H   0  0  0  0  0  0  0  0  0  0  0  0
    0.8964   -1.3300   -1.1151 C   0  0  0  0  0  0  0  0  0  0  0  0
    1.5125   -1.6744   -0.2793 H   0  0  0  0  0  0  0  0  0  0  0  0
   -0.0416   -1.8903   -1.0891 H   0  0  0  0  0  0  0  0  0  0  0  0
    1.6084   -1.6419   -2.4292 C   0  0  0  0  0  0  0  0  0  0  0  0
    0.8959   -2.0027   -3.3993 O   0  5  0  0  0  0  0  0  0  0  0  0
    2.8564   -1.5062   -2.4654 O   0  0  0  0  0  0  0  0  0  0  0  0
   -0.1902    2.0464    0.5482 C   0  0  0  0  0  0  0  0  0  0  0  0
   -0.3380    2.8402   -0.3738 O   0  0  0  0  0  0  0  0  0  0  0  0
   -0.2048    2.5233    1.8459 N   0  0  0  0  0  0  0  0  0  0  0  0
   -0.2181    1.8267    2.5855 H   0  0  0  0  0  0  0  0  0  0  0  0
   -0.4006    3.9244    2.1883 C   0  0  0  0  0  0  0  0  0  0  0  0
   -1.3981    4.2564    1.8833 H   0  0  0  0  0  0  0  0  0  0  0  0
   -0.3021    4.0639    3.2689 H   0  0  0  0  0  0  0  0  0  0  0  0
    0.3489    4.5488    1.6911 H   0  0  0  0  0  0  0  0  0  0  0  0
  1  2  1  0  0  0  0
  2  3  1  0  0  0  0
  2  4  1  0  0  0  0
  2  5  1  0  0  0  0
  5  6  2  0  0  0  0
  5  7  1  0  0  0  0
  7  8  1  0  0  0  0
  7  9  1  0  0  0  0
  9 10  1  0  0  0  0
  9 11  1  0  0  0  0
  9 20  1  0  0  0  0
 11 12  1  0  0  0  0
 11 13  1  0  0  0  0
 11 14  1  0  0  0  0
 14 15  1  0  0  0  0
 14 16  1  0  0  0  0
 14 17  1  0  0  0  0
 17 18  1  0  0  0  0
 17 19  2  0  0  0  0
 20 21  2  0  0  0  0
 20 22  1  0  0  0  0
 22 23  1  0  0  0  0
 22 24  1  0  0  0  0
 24 25  1  0  0  0  0
 24 26  1  0  0  0  0
 24 27  1  0  0  0  0
M  CHG  1  18  -1
M  END
$$$$

  -OEChem-01062216073D

 27 26  0     1  0  0  0  0  0999 V2000
   -3.2451   -2.8245    1.1717 H   0  0  0  0  0  0  0  0  0  0  0  0
   -3.0447   -2.0021    0.4795 C   0  0  0  0  0  0  0  0  0  0  0  0
   -3.9199   -1.3488    0.4437 H   0  0  0  0  0  0  0  0  0  0  0  0
   -2.8671   -2.4160   -0.5168 H   0  0  0  0  0  0  0  0  0  0  0  0
   -1.8265   -1.2179    0.9333 C   0  0  0  0  0  0  0  0  0  0  0  0
   -1.2110   -1.5660    1.9313 O   0  0  0  0  0  0  0  0  0  0  0  0
   -1.4665   -0.0703    0.2593 N   0  0  0  0  0  0  0  0  0  0  0  0
   -1.9907    0.1256   -0.5896 H   0  0  0  0  0  0  0  0  0  0  0  0
   -0.1157    0.5077    0.3210 C   0  0  1  0  0  0  0  0  0  0  0  0
    0.4549    0.0864    1.1540 H   0  0  0  0  0  0  0  0  0  0  0  0
    0.6353    0.1796   -0.9827 C   0  0  0  0  0  0  0  0  0  0  0  0
    0.0498    0.5215   -1.8432 H   0  0  0  0  0  0  0  0  0  0  0  0
    1.5874    0.7215   -0.9962 H   0  0  0  0  0  0  0  0  0  0  0  0
    0.9223   -1.3253   -1.1272 C   0  0  0  0  0  0  0  0  0  0  0  0
    1.5389   -1.6698   -0.2920 H   0  0  0  0  0  0  0  0  0  0  0  0
   -0.0117   -1.8930   -1.1061 H   0  0  0  0  0  0  0  0  0  0  0  0
    1.6457   -1.6239   -2.4394 C   0  0  0  0  0  0  0  0  0  0  0  0
    0.9878   -2.1881   -3.3491 O   0  5  0  0  0  0  0  0  0  0  0  0
    2.8466   -1.2683   -2.5373 O   0  0  0  0  0  0  0  0  0  0  0  0
   -0.1928    2.0326    0.5314 C   0  0  0  0  0  0  0  0  0  0  0  0
   -0.6230    2.7823   -0.3383 O   0  0  0  0  0  0  0  0  0  0  0  0
    0.1020    2.5575    1.7765 N   0  0  0  0  0  0  0  0  0  0  0  0
    0.3443    1.8963    2.5083 H   0  0  0  0  0  0  0  0  0  0  0  0
   -0.0564    3.9642    2.1160 C   0  0  0  0  0  0  0  0  0  0  0  0
   -1.1087    4.2583    2.0473 H   0  0  0  0  0  0  0  0  0  0  0  0
    0.2890    4.1451    3.1382 H   0  0  0  0  0  0  0  0  0  0  0  0
    0.5320    4.5902    1.4371 H   0  0  0  0  0  0  0  0  0  0  0  0
  1  2  1  0  0  0  0
  2  3  1  0  0  0  0
  2  4  1  0  0  0  0
  2  5  1  0  0  0  0
  5  6  2  0  0  0  0
  5  7  1  0  0  0  0
  7  8  1  0  0  0  0
  7  9  1  0  0  0  0
  9 10  1  0  0  0  0
  9 11  1  0  0  0  0
  9 20  1  0  0  0  0
 11 12  1  0  0  0  0
 11 13  1  0  0  0  0
 11 14  1  0  0  0  0
 14 15  1  0  0  0  0
 14 16  1  0  0  0  0
 14 17  1  0  0  0  0
 17 18  1  0  0  0  0
 17 19  2  0  0  0  0
 20 21  2  0  0  0  0
 20 22  1  0  0  0  0
 22 23  1  0  0  0  0
 22 24  1  0  0  0  0
 24 25  1  0  0  0  0
 24 26  1  0  0  0  0
 24 27  1  0  0  0  0
M  CHG  1  18  -1
M  END
$$$$

  -OEChem-01062216073D

 27 26  0     1  0  0  0  0  0999 V2000
   -3.1941   -2.9213    1.0967 H   0  0  0  0  0  0  0  0  0  0  0  0
   -3.0866   -2.0066    0.5073 C   0  0  0  0  0  0  0  0  0  0  0  0
   -3.9708   -1.3825    0.6564 H   0  0  0  0  0  0  0  0  0  0  0  0
   -3.0141   -2.2772   -0.5495 H   0  0  0  0  0  0  0  0  0  0  0  0
   -1.8399   -1.2514    0.9315 C   0  0  0  0  0  0  0  0  0  0  0  0
   -1.1966   -1.6297    1.9005 O   0  0  0  0  0  0  0  0  0  0  0  0
   -1.4808   -0.1037    0.2574 N   0  0  0  0  0  0  0  0  0  0  0  0
   -2.0384    0.1329   -0.5590 H   0  0  0  0  0  0  0  0  0  0  0  0
   -0.1396    0.4962    0.3204 C   0  0  1  0  0  0  0  0  0  0  0  0
    0.4270    0.0828    1.1599 H   0  0  0  0  0  0  0  0  0  0  0  0
    0.6277    0.1836   -0.9761 C   0  0  0  0  0  0  0  0  0  0  0  0
    0.0424    0.5158   -1.8407 H   0  0  0  0  0  0  0  0  0  0  0  0
    1.5695    0.7431   -0.9820 H   0  0  0  0  0  0  0  0  0  0  0  0
    0.9451   -1.3148   -1.1197 C   0  0  0  0  0  0  0  0  0  0  0  0
    1.5612   -1.6489   -0.2799 H   0  0  0  0  0  0  0  0  0  0  0  0
    0.0219   -1.9003   -1.1074 H   0  0  0  0  0  0  0  0  0  0  0  0
    1.6851   -1.5929   -2.4271 C   0  0  0  0  0  0  0  0  0  0  0  0
    1.0504   -2.1723   -3.3435 O   0  5  0  0  0  0  0  0  0  0  0  0
    2.8748   -1.1986   -2.5162 O   0  0  0  0  0  0  0  0  0  0  0  0
   -0.2254    2.0222    0.5196 C   0  0  0  0  0  0  0  0  0  0  0  0
   -0.8844    2.7255   -0.2392 O   0  0  0  0  0  0  0  0  0  0  0  0
    0.3492    2.6020    1.6363 N   0  0  0  0  0  0  0  0  0  0  0  0
    0.8618    1.9910    2.2646 H   0  0  0  0  0  0  0  0  0  0  0  0
    0.2836    4.0265    1.9291 C   0  0  0  0  0  0  0  0  0  0  0  0
   -0.7564    4.3442    2.0554 H   0  0  0  0  0  0  0  0  0  0  0  0
    0.8271    4.2456    2.8530 H   0  0  0  0  0  0  0  0  0  0  0  0
    0.7350    4.6052    1.1166 H   0  0  0  0  0  0  0  0  0  0  0  0
  1  2  1  0  0  0  0
  2  3  1  0  0  0  0
  2  4  1  0  0  0  0
  2  5  1  0  0  0  0
  5  6  2  0  0  0  0
  5  7  1  0  0  0  0
  7  8  1  0  0  0  0
  7  9  1  0  0  0  0
  9 10  1  0  0  0  0
  9 11  1  0  0  0  0
  9 20  1  0  0  0  0
 11 12  1  0  0  0  0
 11 13  1  0  0  0  0
 11 14  1  0  0  0  0
 14 15  1  0  0  0  0
 14 16  1  0  0  0  0
 14 17  1  0  0  0  0
 17 18  1  0  0  0  0
 17 19  2  0  0  0  0
 20 21  2  0  0  0  0
 20 22  1  0  0  0  0
 22 23  1  0  0  0  0
 22 24  1  0  0  0  0
 24 25  1  0  0  0  0
 24 26  1  0  0  0  0
 24 27  1  0  0  0  0
M  CHG  1  18  -1
M  END
$$$$

  -OEChem-01062216073D

 27 26  0     1  0  0  0  0  0999 V2000
   -3.1636   -2.9542    1.1884 H   0  0  0  0  0  0  0  0  0  0  0  0
   -3.0770   -2.0378    0.5982 C   0  0  0  0  0  0  0  0  0  0  0  0
   -3.9409   -1.4007    0.8028 H   0  0  0  0  0  0  0  0  0  0  0  0
   -3.0714   -2.3027   -0.4623 H   0  0  0  0  0  0  0  0  0  0  0  0
   -1.7960   -1.3040    0.9517 C   0  0  0  0  0  0  0  0  0  0  0  0
   -1.0973   -1.7037    1.8719 O   0  0  0  0  0  0  0  0  0  0  0  0
   -1.4695   -0.1508    0.2712 N   0  0  0  0  0  0  0  0  0  0  0  0
   -2.0926    0.1358   -0.4791 H   0  0  0  0  0  0  0  0  0  0  0  0
   -0.1500    0.4966    0.3114 C   0  0  1  0  0  0  0  0  0  0  0  0
    0.4345    0.1087    1.1511 H   0  0  0  0  0  0  0  0  0  0  0  0
    0.6187    0.2131   -0.9905 C   0  0  0  0  0  0  0  0  0  0  0  0
    0.0069    0.5245   -1.8445 H   0  0  0  0  0  0  0  0  0  0  0  0
    1.5368    0.8102   -1.0080 H   0  0  0  0  0  0  0  0  0  0  0  0
    0.9984   -1.2738   -1.1430 C   0  0  0  0  0  0  0  0  0  0  0  0
    1.6261   -1.5706   -0.2977 H   0  0  0  0  0  0  0  0  0  0  0  0
    0.0937   -1.8866   -1.1251 H   0  0  0  0  0  0  0  0  0  0  0  0
    1.7465   -1.5863   -2.4455 C   0  0  0  0  0  0  0  0  0  0  0  0
    1.8304   -0.6984   -3.3317 O   0  5  0  0  0  0  0  0  0  0  0  0
    2.2354   -2.7381   -2.5466 O   0  0  0  0  0  0  0  0  0  0  0  0
   -0.2798    2.0212    0.4994 C   0  0  0  0  0  0  0  0  0  0  0  0
   -1.1626    2.6579   -0.0676 O   0  0  0  0  0  0  0  0  0  0  0  0
    0.5343    2.6718    1.4086 N   0  0  0  0  0  0  0  0  0  0  0  0
    1.2697    2.1248    1.8450 H   0  0  0  0  0  0  0  0  0  0  0  0
    0.4809    4.1059    1.6520 C   0  0  0  0  0  0  0  0  0  0  0  0
   -0.5074    4.3942    2.0245 H   0  0  0  0  0  0  0  0  0  0  0  0
    1.2281    4.3876    2.3997 H   0  0  0  0  0  0  0  0  0  0  0  0
    0.6878    4.6584    0.7297 H   0  0  0  0  0  0  0  0  0  0  0  0
  1  2  1  0  0  0  0
  2  3  1  0  0  0  0
  2  4  1  0  0  0  0
  2  5  1  0  0  0  0
  5  6  2  0  0  0  0
  5  7  1  0  0  0  0
  7  8  1  0  0  0  0
  7  9  1  0  0  0  0
  9 10  1  0  0  0  0
  9 11  1  0  0  0  0
  9 20  1  0  0  0  0
 11 12  1  0  0  0  0
 11 13  1  0  0  0  0
 11 14  1  0  0  0  0
 14 15  1  0  0  0  0
 14 16  1  0  0  0  0
 14 17  1  0  0  0  0
 17 18  1  0  0  0  0
 17 19  2  0  0  0  0
 20 21  2  0  0  0  0
 20 22  1  0  0  0  0
 22 23  1  0  0  0  0
 22 24  1  0  0  0  0
 24 25  1  0  0  0  0
 24 26  1  0  0  0  0
 24 27  1  0  0  0  0
M  CHG  1  18  -1
M  END
$$$$

  -OEChem-01062216073D

 27 26  0     1  0  0  0  0  0999 V2000
   -3.1741   -2.9418    1.3381 H   0  0  0  0  0  0  0  0  0  0  0  0
   -3.0591   -2.0833    0.6706 C   0  0  0  0  0  0  0  0  0  0  0  0
   -3.9122   -1.4138    0.8047 H   0  0  0  0  0  0  0  0  0  0  0  0
   -3.0440   -2.4406   -0.3624 H   0  0  0  0  0  0  0  0  0  0  0  0
   -1.7676   -1.3469    0.9783 C   0  0  0  0  0  0  0  0  0  0  0  0
   -1.0356   -1.7496    1.8710 O   0  0  0  0  0  0  0  0  0  0  0  0
   -1.4643   -0.1958    0.2834 N   0  0  0  0  0  0  0  0  0  0  0  0
   -2.1215    0.1033   -0.4318 H   0  0  0  0  0  0  0  0  0  0  0  0
   -0.1616    0.4864    0.3154 C   0  0  1  0  0  0  0  0  0  0  0  0
    0.4313    0.1242    1.1611 H   0  0  0  0  0  0  0  0  0  0  0  0
    0.6089    0.2035   -0.9849 C   0  0  0  0  0  0  0  0  0  0  0  0
   -0.0098    0.4850   -1.8442 H   0  0  0  0  0  0  0  0  0  0  0  0
    1.5132    0.8210   -1.0143 H   0  0  0  0  0  0  0  0  0  0  0  0
    1.0224   -1.2703   -1.1176 C   0  0  0  0  0  0  0  0  0  0  0  0
    1.6723   -1.5516   -0.2840 H   0  0  0  0  0  0  0  0  0  0  0  0
    0.1415   -1.9175   -1.0881 H   0  0  0  0  0  0  0  0  0  0  0  0
    1.7616   -1.4987   -2.4346 C   0  0  0  0  0  0  0  0  0  0  0  0
    2.9496   -1.0948   -2.5060 O   0  5  0  0  0  0  0  0  0  0  0  0
    1.1307   -2.0426   -3.3747 O   0  0  0  0  0  0  0  0  0  0  0  0
   -0.3123    2.0122    0.4799 C   0  0  0  0  0  0  0  0  0  0  0  0
   -1.3213    2.5981    0.0981 O   0  0  0  0  0  0  0  0  0  0  0  0
    0.6760    2.7301    1.1284 N   0  0  0  0  0  0  0  0  0  0  0  0
    1.5330    2.2320    1.3505 H   0  0  0  0  0  0  0  0  0  0  0  0
    0.6426    4.1766    1.2874 C   0  0  0  0  0  0  0  0  0  0  0  0
   -0.2566    4.4819    1.8322 H   0  0  0  0  0  0  0  0  0  0  0  0
    1.5176    4.5125    1.8516 H   0  0  0  0  0  0  0  0  0  0  0  0
    0.6492    4.6687    0.3095 H   0  0  0  0  0  0  0  0  0  0  0  0
  1  2  1  0  0  0  0
  2  3  1  0  0  0  0
  2  4  1  0  0  0  0
  2  5  1  0  0  0  0
  5  6  2  0  0  0  0
  5  7  1  0  0  0  0
  7  8  1  0  0  0  0
  7  9  1  0  0  0  0
  9 10  1  0  0  0  0
  9 11  1  0  0  0  0
  9 20  1  0  0  0  0
 11 12  1  0  0  0  0
 11 13  1  0  0  0  0
 11 14  1  0  0  0  0
 14 15  1  0  0  0  0
 14 16  1  0  0  0  0
 14 17  1  0  0  0  0
 17 18  1  0  0  0  0
 17 19  2  0  0  0  0
 20 21  2  0  0  0  0
 20 22  1  0  0  0  0
 22 23  1  0  0  0  0
 22 24  1  0  0  0  0
 24 25  1  0  0  0  0
 24 26  1  0  0  0  0
 24 27  1  0  0  0  0
M  CHG  1  18  -1
M  END
$$$$

  -OEChem-01062216073D

 27 26  0     1  0  0  0  0  0999 V2000
   -3.2087   -2.9201    1.3609 H   0  0  0  0  0  0  0  0  0  0  0  0
   -3.0879   -2.0629    0.6930 C   0  0  0  0  0  0  0  0  0  0  0  0
   -3.9171   -1.3698    0.8538 H   0  0  0  0  0  0  0  0  0  0  0  0
   -3.1123   -2.4161   -0.3411 H   0  0  0  0  0  0  0  0  0  0  0  0
   -1.7677   -1.3650    0.9661 C   0  0  0  0  0  0  0  0  0  0  0  0
   -1.0187   -1.7975    1.8302 O   0  0  0  0  0  0  0  0  0  0  0  0
   -1.4588   -0.2135    0.2745 N   0  0  0  0  0  0  0  0  0  0  0  0
   -2.1444    0.1312   -0.3916 H   0  0  0  0  0  0  0  0  0  0  0  0
   -0.1608    0.4773    0.3203 C   0  0  1  0  0  0  0  0  0  0  0  0
    0.4264    0.1213    1.1724 H   0  0  0  0  0  0  0  0  0  0  0  0
    0.6199    0.1997   -0.9767 C   0  0  0  0  0  0  0  0  0  0  0  0
    0.0038    0.4805   -1.8381 H   0  0  0  0  0  0  0  0  0  0  0  0
    1.5217    0.8206   -1.0016 H   0  0  0  0  0  0  0  0  0  0  0  0
    1.0455   -1.2693   -1.1169 C   0  0  0  0  0  0  0  0  0  0  0  0
    1.6937   -1.5521   -0.2824 H   0  0  0  0  0  0  0  0  0  0  0  0
    0.1700   -1.9241   -1.0975 H   0  0  0  0  0  0  0  0  0  0  0  0
    1.7925   -1.4757   -2.4333 C   0  0  0  0  0  0  0  0  0  0  0  0
    2.9740   -1.0515   -2.4962 O   0  5  0  0  0  0  0  0  0  0  0  0
    1.1709   -2.0113   -3.3842 O   0  0  0  0  0  0  0  0  0  0  0  0
   -0.3183    2.0043    0.4799 C   0  0  0  0  0  0  0  0  0  0  0  0
   -1.4021    2.5575    0.3151 O   0  0  0  0  0  0  0  0  0  0  0  0
    0.7743    2.7674    0.8494 N   0  0  0  0  0  0  0  0  0  0  0  0
    1.6749    2.2963    0.8573 H   0  0  0  0  0  0  0  0  0  0  0  0
    0.7433    4.2200    0.9378 C   0  0  0  0  0  0  0  0  0  0  0  0
   -0.0147    4.5444    1.6580 H   0  0  0  0  0  0  0  0  0  0  0  0
    1.7160    4.5963    1.2684 H   0  0  0  0  0  0  0  0  0  0  0  0
    0.5147    4.6577   -0.0393 H   0  0  0  0  0  0  0  0  0  0  0  0
  1  2  1  0  0  0  0
  2  3  1  0  0  0  0
  2  4  1  0  0  0  0
  2  5  1  0  0  0  0
  5  6  2  0  0  0  0
  5  7  1  0  0  0  0
  7  8  1  0  0  0  0
  7  9  1  0  0  0  0
  9 10  1  0  0  0  0
  9 11  1  0  0  0  0
  9 20  1  0  0  0  0
 11 12  1  0  0  0  0
 11 13  1  0  0  0  0
 11 14  1  0  0  0  0
 14 15  1  0  0  0  0
 14 16  1  0  0  0  0
 14 17  1  0  0  0  0
 17 18  1  0  0  0  0
 17 19  2  0  0  0  0
 20 21  2  0  0  0  0
 20 22  1  0  0  0  0
 22 23  1  0  0  0  0
 22 24  1  0  0  0  0
 24 25  1  0  0  0  0
 24 26  1  0  0  0  0
 24 27  1  0  0  0  0
M  CHG  1  18  -1
M  END
$$$$

  -OEChem-01062216073D

 27 26  0     1  0  0  0  0  0999 V2000
   -3.2151   -2.9087    1.3264 H   0  0  0  0  0  0  0  0  0  0  0  0
   -3.1225   -2.0020    0.7222 C   0  0  0  0  0  0  0  0  0  0  0  0
   -3.8815   -1.2843    1.0431 H   0  0  0  0  0  0  0  0  0  0  0  0
   -3.2939   -2.2586   -0.3264 H   0  0  0  0  0  0  0  0  0  0  0  0
   -1.7388   -1.3986    0.8852 C   0  0  0  0  0  0  0  0  0  0  0  0
   -0.9333   -1.9241    1.6403 O   0  0  0  0  0  0  0  0  0  0  0  0
   -1.4286   -0.2387    0.2086 N   0  0  0  0  0  0  0  0  0  0  0  0
   -2.1744    0.2079   -0.3165 H   0  0  0  0  0  0  0  0  0  0  0  0
   -0.1360    0.4608    0.2824 C   0  0  1  0  0  0  0  0  0  0  0  0
    0.5482   -0.0641    0.9568 H   0  0  0  0  0  0  0  0  0  0  0  0
    0.4854    0.4927   -1.1261 C   0  0  0  0  0  0  0  0  0  0  0  0
   -0.2261    0.9404   -1.8288 H   0  0  0  0  0  0  0  0  0  0  0  0
    1.3825    1.1201   -1.1228 H   0  0  0  0  0  0  0  0  0  0  0  0
    0.8851   -0.9039   -1.6257 C   0  0  0  0  0  0  0  0  0  0  0  0
    1.6277   -1.3426   -0.9530 H   0  0  0  0  0  0  0  0  0  0  0  0
    0.0152   -1.5669   -1.6418 H   0  0  0  0  0  0  0  0  0  0  0  0
    1.4718   -0.8094   -3.0330 C   0  0  0  0  0  0  0  0  0  0  0  0
    2.6166   -0.3024   -3.1444 O   0  5  0  0  0  0  0  0  0  0  0  0
    0.7627   -1.1982   -3.9938 O   0  0  0  0  0  0  0  0  0  0  0  0
   -0.2794    1.9045    0.8155 C   0  0  0  0  0  0  0  0  0  0  0  0
   -1.3748    2.3697    1.1178 O   0  0  0  0  0  0  0  0  0  0  0  0
    0.8407    2.7055    0.9495 N   0  0  0  0  0  0  0  0  0  0  0  0
    1.7133    2.3336    0.5835 H   0  0  0  0  0  0  0  0  0  0  0  0
    0.7848    4.1062    1.3420 C   0  0  0  0  0  0  0  0  0  0  0  0
    0.3107    4.2102    2.3232 H   0  0  0  0  0  0  0  0  0  0  0  0
    1.7958    4.5199    1.4021 H   0  0  0  0  0  0  0  0  0  0  0  0
    0.2150    4.6863    0.6090 H   0  0  0  0  0  0  0  0  0  0  0  0
  1  2  1  0  0  0  0
  2  3  1  0  0  0  0
  2  4  1  0  0  0  0
  2  5  1  0  0  0  0
  5  6  2  0  0  0  0
  5  7  1  0  0  0  0
  7  8  1  0  0  0  0
  7  9  1  0  0  0  0
  9 10  1  0  0  0  0
  9 11  1  0  0  0  0
  9 20  1  0  0  0  0
 11 12  1  0  0  0  0
 11 13  1  0  0  0  0
 11 14  1  0  0  0  0
 14 15  1  0  0  0  0
 14 16  1  0  0  0  0
 14 17  1  0  0  0  0
 17 18  1  0  0  0  0
 17 19  2  0  0  0  0
 20 21  2  0  0  0  0
 20 22  1  0  0  0  0
 22 23  1  0  0  0  0
 22 24  1  0  0  0  0
 24 25  1  0  0  0  0
 24 26  1  0  0  0  0
 24 27  1  0  0  0  0
M  CHG  1  18  -1
M  END
$$$$

  -OEChem-01062216073D

 27 26  0     1  0  0  0  0  0999 V2000
   -3.1856   -2.9229    1.3011 H   0  0  0  0  0  0  0  0  0  0  0  0
   -3.1043   -2.0041    0.7138 C   0  0  0  0  0  0  0  0  0  0  0  0
   -3.8750   -1.3037    1.0448 H   0  0  0  0  0  0  0  0  0  0  0  0
   -3.2681   -2.2440   -0.3399 H   0  0  0  0  0  0  0  0  0  0  0  0
   -1.7300   -1.3840    0.8935 C   0  0  0  0  0  0  0  0  0  0  0  0
   -0.9284   -1.9004    1.6590 O   0  0  0  0  0  0  0  0  0  0  0  0
   -1.4212   -0.2268    0.2107 N   0  0  0  0  0  0  0  0  0  0  0  0
   -2.1572    0.1947   -0.3470 H   0  0  0  0  0  0  0  0  0  0  0  0
   -0.1279    0.4730    0.2829 C   0  0  1  0  0  0  0  0  0  0  0  0
    0.5586   -0.0458    0.9596 H   0  0  0  0  0  0  0  0  0  0  0  0
    0.4827    0.4823   -1.1330 C   0  0  0  0  0  0  0  0  0  0  0  0
   -0.2316    0.9255   -1.8358 H   0  0  0  0  0  0  0  0  0  0  0  0
    1.3856    1.1002   -1.1477 H   0  0  0  0  0  0  0  0  0  0  0  0
    0.8756   -0.9197   -1.6217 C   0  0  0  0  0  0  0  0  0  0  0  0
    1.6248   -1.3521   -0.9523 H   0  0  0  0  0  0  0  0  0  0  0  0
    0.0056   -1.5827   -1.6240 H   0  0  0  0  0  0  0  0  0  0  0  0
    1.4488   -0.8351   -3.0353 C   0  0  0  0  0  0  0  0  0  0  0  0
    2.5861   -0.3155   -3.1642 O   0  5  0  0  0  0  0  0  0  0  0  0
    0.7305   -1.2334   -3.9851 O   0  0  0  0  0  0  0  0  0  0  0  0
   -0.2735    1.9218    0.8108 C   0  0  0  0  0  0  0  0  0  0  0  0
   -1.3143    2.3072    1.3353 O   0  0  0  0  0  0  0  0  0  0  0  0
    0.7590    2.8318    0.6641 N   0  0  0  0  0  0  0  0  0  0  0  0
    1.5699    2.5217    0.1343 H   0  0  0  0  0  0  0  0  0  0  0  0
    0.6643    4.2330    1.0468 C   0  0  0  0  0  0  0  0  0  0  0  0
    0.4200    4.3240    2.1101 H   0  0  0  0  0  0  0  0  0  0  0  0
    1.6197    4.7355    0.8685 H   0  0  0  0  0  0  0  0  0  0  0  0
   -0.1093    4.7383    0.4597 H   0  0  0  0  0  0  0  0  0  0  0  0
  1  2  1  0  0  0  0
  2  3  1  0  0  0  0
  2  4  1  0  0  0  0
  2  5  1  0  0  0  0
  5  6  2  0  0  0  0
  5  7  1  0  0  0  0
  7  8  1  0  0  0  0
  7  9  1  0  0  0  0
  9 10  1  0  0  0  0
  9 11  1  0  0  0  0
  9 20  1  0  0  0  0
 11 12  1  0  0  0  0
 11 13  1  0  0  0  0
 11 14  1  0  0  0  0
 14 15  1  0  0  0  0
 14 16  1  0  0  0  0
 14 17  1  0  0  0  0
 17 18  1  0  0  0  0
 17 19  2  0  0  0  0
 20 21  2  0  0  0  0
 20 22  1  0  0  0  0
 22 23  1  0  0  0  0
 22 24  1  0  0  0  0
 24 25  1  0  0  0  0
 24 26  1  0  0  0  0
 24 27  1  0  0  0  0
M  CHG  1  18  -1
M  END
$$$$

  -OEChem-01062216073D

 27 26  0     1  0  0  0  0  0999 V2000
   -3.1832   -2.8944    1.3256 H   0  0  0  0  0  0  0  0  0  0  0  0
   -3.0956   -1.9895    0.7180 C   0  0  0  0  0  0  0  0  0  0  0  0
   -3.8663   -1.2797    1.0282 H   0  0  0  0  0  0  0  0  0  0  0  0
   -3.2530   -2.2529   -0.3310 H   0  0  0  0  0  0  0  0  0  0  0  0
   -1.7208   -1.3696    0.8930 C   0  0  0  0  0  0  0  0  0  0  0  0
   -0.9162   -1.8882    1.6534 O   0  0  0  0  0  0  0  0  0  0  0  0
   -1.4141   -0.2146    0.2052 N   0  0  0  0  0  0  0  0  0  0  0  0
   -2.1455    0.1926   -0.3681 H   0  0  0  0  0  0  0  0  0  0  0  0
   -0.1181    0.4811    0.2703 C   0  0  1  0  0  0  0  0  0  0  0  0
    0.5709   -0.0325    0.9485 H   0  0  0  0  0  0  0  0  0  0  0  0
    0.4869    0.4719   -1.1487 C   0  0  0  0  0  0  0  0  0  0  0  0
   -0.2254    0.9148   -1.8535 H   0  0  0  0  0  0  0  0  0  0  0  0
    1.3968    1.0794   -1.1692 H   0  0  0  0  0  0  0  0  0  0  0  0
    0.8724   -0.9359   -1.6273 C   0  0  0  0  0  0  0  0  0  0  0  0
    1.6225   -1.3661   -0.9575 H   0  0  0  0  0  0  0  0  0  0  0  0
   -0.0007   -1.5949   -1.6207 H   0  0  0  0  0  0  0  0  0  0  0  0
    1.4397   -0.8647   -3.0446 C   0  0  0  0  0  0  0  0  0  0  0  0
    2.5507   -0.2956   -3.1918 O   0  5  0  0  0  0  0  0  0  0  0  0
    0.7391   -1.3215   -3.9811 O   0  0  0  0  0  0  0  0  0  0  0  0
   -0.2726    1.9312    0.7979 C   0  0  0  0  0  0  0  0  0  0  0  0
   -1.2009    2.2357    1.5403 O   0  0  0  0  0  0  0  0  0  0  0  0
    0.5914    2.9377    0.4009 N   0  0  0  0  0  0  0  0  0  0  0  0
    1.3114    2.6873   -0.2727 H   0  0  0  0  0  0  0  0  0  0  0  0
    0.4545    4.3310    0.7996 C   0  0  0  0  0  0  0  0  0  0  0  0
    0.4830    4.4217    1.8903 H   0  0  0  0  0  0  0  0  0  0  0  0
    1.2749    4.9226    0.3828 H   0  0  0  0  0  0  0  0  0  0  0  0
   -0.4914    4.7429    0.4335 H   0  0  0  0  0  0  0  0  0  0  0  0
  1  2  1  0  0  0  0
  2  3  1  0  0  0  0
  2  4  1  0  0  0  0
  2  5  1  0  0  0  0
  5  6  2  0  0  0  0
  5  7  1  0  0  0  0
  7  8  1  0  0  0  0
  7  9  1  0  0  0  0
  9 10  1  0  0  0  0
  9 11  1  0  0  0  0
  9 20  1  0  0  0  0
 11 12  1  0  0  0  0
 11 13  1  0  0  0  0
 11 14  1  0  0  0  0
 14 15  1  0  0  0  0
 14 16  1  0  0  0  0
 14 17  1  0  0  0  0
 17 18  1  0  0  0  0
 17 19  2  0  0  0  0
 20 21  2  0  0  0  0
 20 22  1  0  0  0  0
 22 23  1  0  0  0  0
 22 24  1  0  0  0  0
 24 25  1  0  0  0  0
 24 26  1  0  0  0  0
 24 27  1  0  0  0  0
M  CHG  1  18  -1
M  END
$$$$

  -OEChem-01062216073D

 27 26  0     1  0  0  0  0  0999 V2000
   -3.1573   -2.9044    1.3281 H   0  0  0  0  0  0  0  0  0  0  0  0
   -3.0633   -2.0217    0.6895 C   0  0  0  0  0  0  0  0  0  0  0  0
   -3.8766   -1.3298    0.9218 H   0  0  0  0  0  0  0  0  0  0  0  0
   -3.1449   -2.3325   -0.3552 H   0  0  0  0  0  0  0  0  0  0  0  0
   -1.7243   -1.3445    0.9223 C   0  0  0  0  0  0  0  0  0  0  0  0
   -0.9360   -1.8253    1.7233 O   0  0  0  0  0  0  0  0  0  0  0  0
   -1.4245   -0.1946    0.2221 N   0  0  0  0  0  0  0  0  0  0  0  0
   -2.1157    0.1332   -0.4442 H   0  0  0  0  0  0  0  0  0  0  0  0
   -0.1277    0.5009    0.2743 C   0  0  1  0  0  0  0  0  0  0  0  0
    0.5650   -0.0052    0.9547 H   0  0  0  0  0  0  0  0  0  0  0  0
    0.4676    0.4726   -1.1485 C   0  0  0  0  0  0  0  0  0  0  0  0
   -0.2463    0.9095   -1.8555 H   0  0  0  0  0  0  0  0  0  0  0  0
    1.3796    1.0775   -1.1758 H   0  0  0  0  0  0  0  0  0  0  0  0
    0.8491   -0.9396   -1.6162 C   0  0  0  0  0  0  0  0  0  0  0  0
    1.6056   -1.3633   -0.9493 H   0  0  0  0  0  0  0  0  0  0  0  0
   -0.0230   -1.5996   -1.5965 H   0  0  0  0  0  0  0  0  0  0  0  0
    1.4046   -0.8774   -3.0385 C   0  0  0  0  0  0  0  0  0  0  0  0
    2.5199   -0.3215   -3.2005 O   0  5  0  0  0  0  0  0  0  0  0  0
    0.6812   -1.3162   -3.9663 O   0  0  0  0  0  0  0  0  0  0  0  0
   -0.2825    1.9548    0.7920 C   0  0  0  0  0  0  0  0  0  0  0  0
   -1.0320    2.2092    1.7286 O   0  0  0  0  0  0  0  0  0  0  0  0
    0.3569    3.0174    0.1751 N   0  0  0  0  0  0  0  0  0  0  0  0
    0.9468    2.7991   -0.6243 H   0  0  0  0  0  0  0  0  0  0  0  0
    0.2160    4.4057    0.5902 C   0  0  0  0  0  0  0  0  0  0  0  0
    0.5467    4.5304    1.6263 H   0  0  0  0  0  0  0  0  0  0  0  0
    0.8265    5.0517   -0.0478 H   0  0  0  0  0  0  0  0  0  0  0  0
   -0.8279    4.7256    0.5093 H   0  0  0  0  0  0  0  0  0  0  0  0
  1  2  1  0  0  0  0
  2  3  1  0  0  0  0
  2  4  1  0  0  0  0
  2  5  1  0  0  0  0
  5  6  2  0  0  0  0
  5  7  1  0  0  0  0
  7  8  1  0  0  0  0
  7  9  1  0  0  0  0
  9 10  1  0  0  0  0
  9 11  1  0  0  0  0
  9 20  1  0  0  0  0
 11 12  1  0  0  0  0
 11 13  1  0  0  0  0
 11 14  1  0  0  0  0
 14 15  1  0  0  0  0
 14 16  1  0  0  0  0
 14 17  1  0  0  0  0
 17 18  1  0  0  0  0
 17 19  2  0  0  0  0
 20 21  2  0  0  0  0
 20 22  1  0  0  0  0
 22 23  1  0  0  0  0
 22 24  1  0  0  0  0
 24 25  1  0  0  0  0
 24 26  1  0  0  0  0
 24 27  1  0  0  0  0
M  CHG  1  18  -1
M  END
$$$$

  -OEChem-01062216073D

 27 26  0     1  0  0  0  0  0999 V2000
   -3.1292   -2.9140    1.3457 H   0  0  0  0  0  0  0  0  0  0  0  0
   -3.0275   -2.0512    0.6815 C   0  0  0  0  0  0  0  0  0  0  0  0
   -3.8663   -1.3726    0.8545 H   0  0  0  0  0  0  0  0  0  0  0  0
   -3.0558   -2.3984   -0.3546 H   0  0  0  0  0  0  0  0  0  0  0  0
   -1.7166   -1.3333    0.9486 C   0  0  0  0  0  0  0  0  0  0  0  0
   -0.9428   -1.7822    1.7810 O   0  0  0  0  0  0  0  0  0  0  0  0
   -1.4262   -0.1868    0.2385 N   0  0  0  0  0  0  0  0  0  0  0  0
   -2.0773    0.0704   -0.4959 H   0  0  0  0  0  0  0  0  0  0  0  0
   -0.1308    0.5116    0.2820 C   0  0  1  0  0  0  0  0  0  0  0  0
    0.5678    0.0127    0.9621 H   0  0  0  0  0  0  0  0  0  0  0  0
    0.4567    0.4787   -1.1434 C   0  0  0  0  0  0  0  0  0  0  0  0
   -0.2630    0.9089   -1.8491 H   0  0  0  0  0  0  0  0  0  0  0  0
    1.3662    1.0884   -1.1766 H   0  0  0  0  0  0  0  0  0  0  0  0
    0.8374   -0.9347   -1.6049 C   0  0  0  0  0  0  0  0  0  0  0  0
    1.5934   -1.3573   -0.9363 H   0  0  0  0  0  0  0  0  0  0  0  0
   -0.0331   -1.5963   -1.5858 H   0  0  0  0  0  0  0  0  0  0  0  0
    1.3835   -0.8729   -3.0293 C   0  0  0  0  0  0  0  0  0  0  0  0
    2.6257   -0.7681   -3.1769 O   0  5  0  0  0  0  0  0  0  0  0  0
    0.5433   -0.8285   -3.9626 O   0  0  0  0  0  0  0  0  0  0  0  0
   -0.2942    1.9656    0.7919 C   0  0  0  0  0  0  0  0  0  0  0  0
   -0.8185    2.1906    1.8765 O   0  0  0  0  0  0  0  0  0  0  0  0
    0.0703    3.0521    0.0141 N   0  0  0  0  0  0  0  0  0  0  0  0
    0.4819    2.8505   -0.8937 H   0  0  0  0  0  0  0  0  0  0  0  0
   -0.1060    4.4393    0.4187 C   0  0  0  0  0  0  0  0  0  0  0  0
    0.4489    4.6431    1.3401 H   0  0  0  0  0  0  0  0  0  0  0  0
    0.2651    5.1080   -0.3636 H   0  0  0  0  0  0  0  0  0  0  0  0
   -1.1656    4.6572    0.5869 H   0  0  0  0  0  0  0  0  0  0  0  0
  1  2  1  0  0  0  0
  2  3  1  0  0  0  0
  2  4  1  0  0  0  0
  2  5  1  0  0  0  0
  5  6  2  0  0  0  0
  5  7  1  0  0  0  0
  7  8  1  0  0  0  0
  7  9  1  0  0  0  0
  9 10  1  0  0  0  0
  9 11  1  0  0  0  0
  9 20  1  0  0  0  0
 11 12  1  0  0  0  0
 11 13  1  0  0  0  0
 11 14  1  0  0  0  0
 14 15  1  0  0  0  0
 14 16  1  0  0  0  0
 14 17  1  0  0  0  0
 17 18  1  0  0  0  0
 17 19  2  0  0  0  0
 20 21  2  0  0  0  0
 20 22  1  0  0  0  0
 22 23  1  0  0  0  0
 22 24  1  0  0  0  0
 24 25  1  0  0  0  0
 24 26  1  0  0  0  0
 24 27  1  0  0  0  0
M  CHG  1  18  -1
M  END
$$$$

  -OEChem-01062216073D

 27 26  0     1  0  0  0  0  0999 V2000
   -3.2309   -2.8803    1.2682 H   0  0  0  0  0  0  0  0  0  0  0  0
   -3.1001   -2.0149    0.6124 C   0  0  0  0  0  0  0  0  0  0  0  0
   -3.9400   -1.3316    0.7593 H   0  0  0  0  0  0  0  0  0  0  0  0
   -3.0946   -2.3570   -0.4258 H   0  0  0  0  0  0  0  0  0  0  0  0
   -1.7943   -1.3079    0.9300 C   0  0  0  0  0  0  0  0  0  0  0  0
   -1.0553   -1.7671    1.7874 O   0  0  0  0  0  0  0  0  0  0  0  0
   -1.4693   -0.1611    0.2351 N   0  0  0  0  0  0  0  0  0  0  0  0
   -2.0782    0.0809   -0.5399 H   0  0  0  0  0  0  0  0  0  0  0  0
   -0.1528    0.4956    0.2950 C   0  0  1  0  0  0  0  0  0  0  0  0
    0.5294   -0.0367    0.9666 H   0  0  0  0  0  0  0  0  0  0  0  0
    0.4321    0.4722   -1.1304 C   0  0  0  0  0  0  0  0  0  0  0  0
   -0.2768    0.9318   -1.8282 H   0  0  0  0  0  0  0  0  0  0  0  0
    1.3550    1.0625   -1.1516 H   0  0  0  0  0  0  0  0  0  0  0  0
    0.7687   -0.9426   -1.6213 C   0  0  0  0  0  0  0  0  0  0  0  0
    1.5110   -1.4032   -0.9624 H   0  0  0  0  0  0  0  0  0  0  0  0
   -0.1227   -1.5762   -1.6161 H   0  0  0  0  0  0  0  0  0  0  0  0
    1.3147   -0.8661   -3.0451 C   0  0  0  0  0  0  0  0  0  0  0  0
    0.4741   -0.7241   -3.9688 O   0  5  0  0  0  0  0  0  0  0  0  0
    2.5599   -0.8626   -3.2011 O   0  0  0  0  0  0  0  0  0  0  0  0
   -0.2691    1.9455    0.8232 C   0  0  0  0  0  0  0  0  0  0  0  0
   -0.5316    2.1618    1.9999 O   0  0  0  0  0  0  0  0  0  0  0  0
   -0.1595    3.0323   -0.0286 N   0  0  0  0  0  0  0  0  0  0  0  0
    0.0857    2.8347   -0.9954 H   0  0  0  0  0  0  0  0  0  0  0  0
   -0.2630    4.4177    0.4055 C   0  0  0  0  0  0  0  0  0  0  0  0
    0.5166    4.6480    1.1388 H   0  0  0  0  0  0  0  0  0  0  0  0
   -0.1431    5.0888   -0.4502 H   0  0  0  0  0  0  0  0  0  0  0  0
   -1.2424    4.6046    0.8574 H   0  0  0  0  0  0  0  0  0  0  0  0
  1  2  1  0  0  0  0
  2  3  1  0  0  0  0
  2  4  1  0  0  0  0
  2  5  1  0  0  0  0
  5  6  2  0  0  0  0
  5  7  1  0  0  0  0
  7  8  1  0  0  0  0
  7  9  1  0  0  0  0
  9 10  1  0  0  0  0
  9 11  1  0  0  0  0
  9 20  1  0  0  0  0
 11 12  1  0  0  0  0
 11 13  1  0  0  0  0
 11 14  1  0  0  0  0
 14 15  1  0  0  0  0
 14 16  1  0  0  0  0
 14 17  1  0  0  0  0
 17 18  1  0  0  0  0
 17 19  2  0  0  0  0
 20 21  2  0  0  0  0
 20 22  1  0  0  0  0
 22 23  1  0  0  0  0
 22 24  1  0  0  0  0
 24 25  1  0  0  0  0
 24 26  1  0  0  0  0
 24 27  1  0  0  0  0
M  CHG  1  18  -1
M  END
$$$$

  -OEChem-01062216073D

 27 26  0     1  0  0  0  0  0999 V2000
   -3.2000   -2.9283    1.2482 H   0  0  0  0  0  0  0  0  0  0  0  0
   -3.0709   -2.0656    0.5886 C   0  0  0  0  0  0  0  0  0  0  0  0
   -3.9376   -1.4085    0.6936 H   0  0  0  0  0  0  0  0  0  0  0  0
   -3.0121   -2.4181   -0.4446 H   0  0  0  0  0  0  0  0  0  0  0  0
   -1.8019   -1.3137    0.9490 C   0  0  0  0  0  0  0  0  0  0  0  0
   -1.0833   -1.7389    1.8401 O   0  0  0  0  0  0  0  0  0  0  0  0
   -1.4864   -0.1660    0.2511 N   0  0  0  0  0  0  0  0  0  0  0  0
   -2.0663    0.0314   -0.5584 H   0  0  0  0  0  0  0  0  0  0  0  0
   -0.1742    0.4992    0.3152 C   0  0  1  0  0  0  0  0  0  0  0  0
    0.5128   -0.0304    0.9849 H   0  0  0  0  0  0  0  0  0  0  0  0
    0.4066    0.4888   -1.1111 C   0  0  0  0  0  0  0  0  0  0  0  0
   -0.3073    0.9451   -1.8057 H   0  0  0  0  0  0  0  0  0  0  0  0
    1.3228    1.0897   -1.1304 H   0  0  0  0  0  0  0  0  0  0  0  0
    0.7496   -0.9230   -1.6082 C   0  0  0  0  0  0  0  0  0  0  0  0
    1.4949   -1.3806   -0.9505 H   0  0  0  0  0  0  0  0  0  0  0  0
   -0.1385   -1.5608   -1.6034 H   0  0  0  0  0  0  0  0  0  0  0  0
    1.2923   -0.8466   -3.0336 C   0  0  0  0  0  0  0  0  0  0  0  0
    0.4630   -0.5844   -3.9414 O   0  5  0  0  0  0  0  0  0  0  0  0
    2.5264   -0.9893   -3.2085 O   0  0  0  0  0  0  0  0  0  0  0  0
   -0.2991    1.9477    0.8396 C   0  0  0  0  0  0  0  0  0  0  0  0
   -0.2750    2.1835    2.0410 O   0  0  0  0  0  0  0  0  0  0  0  0
   -0.5000    3.0043   -0.0333 N   0  0  0  0  0  0  0  0  0  0  0  0
   -0.4377    2.7930   -1.0257 H   0  0  0  0  0  0  0  0  0  0  0  0
   -0.5729    4.3961    0.3867 C   0  0  0  0  0  0  0  0  0  0  0  0
    0.3746    4.7091    0.8368 H   0  0  0  0  0  0  0  0  0  0  0  0
   -0.7769    5.0378   -0.4757 H   0  0  0  0  0  0  0  0  0  0  0  0
   -1.3761    4.5351    1.1174 H   0  0  0  0  0  0  0  0  0  0  0  0
  1  2  1  0  0  0  0
  2  3  1  0  0  0  0
  2  4  1  0  0  0  0
  2  5  1  0  0  0  0
  5  6  2  0  0  0  0
  5  7  1  0  0  0  0
  7  8  1  0  0  0  0
  7  9  1  0  0  0  0
  9 10  1  0  0  0  0
  9 11  1  0  0  0  0
  9 20  1  0  0  0  0
 11 12  1  0  0  0  0
 11 13  1  0  0  0  0
 11 14  1  0  0  0  0
 14 15  1  0  0  0  0
 14 16  1  0  0  0  0
 14 17  1  0  0  0  0
 17 18  1  0  0  0  0
 17 19  2  0  0  0  0
 20 21  2  0  0  0  0
 20 22  1  0  0  0  0
 22 23  1  0  0  0  0
 22 24  1  0  0  0  0
 24 25  1  0  0  0  0
 24 26  1  0  0  0  0
 24 27  1  0  0  0  0
M  CHG  1  18  -1
M  END
$$$$

  -OEChem-01062216073D

 27 26  0     1  0  0  0  0  0999 V2000
   -3.1655   -2.9831    1.2186 H   0  0  0  0  0  0  0  0  0  0  0  0
   -3.0487   -2.1101    0.5704 C   0  0  0  0  0  0  0  0  0  0  0  0
   -3.9375   -1.4812    0.6623 H   0  0  0  0  0  0  0  0  0  0  0  0
   -2.9565   -2.4501   -0.4644 H   0  0  0  0  0  0  0  0  0  0  0  0
   -1.8120   -1.3231    0.9663 C   0  0  0  0  0  0  0  0  0  0  0  0
   -1.1199   -1.7150    1.8926 O   0  0  0  0  0  0  0  0  0  0  0  0
   -1.5003   -0.1742    0.2683 N   0  0  0  0  0  0  0  0  0  0  0  0
   -2.0484   -0.0147   -0.5712 H   0  0  0  0  0  0  0  0  0  0  0  0
   -0.1883    0.4920    0.3412 C   0  0  1  0  0  0  0  0  0  0  0  0
    0.5009   -0.0419    1.0051 H   0  0  0  0  0  0  0  0  0  0  0  0
    0.3882    0.5028   -1.0865 C   0  0  0  0  0  0  0  0  0  0  0  0
   -0.3258    0.9692   -1.7739 H   0  0  0  0  0  0  0  0  0  0  0  0
    1.3030    1.1060   -1.0990 H   0  0  0  0  0  0  0  0  0  0  0  0
    0.7299   -0.9036   -1.6017 C   0  0  0  0  0  0  0  0  0  0  0  0
    1.4765   -1.3680   -0.9503 H   0  0  0  0  0  0  0  0  0  0  0  0
   -0.1584   -1.5409   -1.6013 H   0  0  0  0  0  0  0  0  0  0  0  0
    1.2690   -0.8164   -3.0281 C   0  0  0  0  0  0  0  0  0  0  0  0
    0.4408   -0.5188   -3.9264 O   0  5  0  0  0  0  0  0  0  0  0  0
    2.4954   -1.0026   -3.2157 O   0  0  0  0  0  0  0  0  0  0  0  0
   -0.3143    1.9381    0.8659 C   0  0  0  0  0  0  0  0  0  0  0  0
   -0.0081    2.2185    2.0179 O   0  0  0  0  0  0  0  0  0  0  0  0
   -0.8106    2.9401    0.0491 N   0  0  0  0  0  0  0  0  0  0  0  0
   -0.9454    2.7011   -0.9290 H   0  0  0  0  0  0  0  0  0  0  0  0
   -0.8699    4.3398    0.4446 C   0  0  0  0  0  0  0  0  0  0  0  0
    0.1369    4.7246    0.6361 H   0  0  0  0  0  0  0  0  0  0  0  0
   -1.3250    4.9360   -0.3518 H   0  0  0  0  0  0  0  0  0  0  0  0
   -1.4731    4.4578    1.3507 H   0  0  0  0  0  0  0  0  0  0  0  0
  1  2  1  0  0  0  0
  2  3  1  0  0  0  0
  2  4  1  0  0  0  0
  2  5  1  0  0  0  0
  5  6  2  0  0  0  0
  5  7  1  0  0  0  0
  7  8  1  0  0  0  0
  7  9  1  0  0  0  0
  9 10  1  0  0  0  0
  9 11  1  0  0  0  0
  9 20  1  0  0  0  0
 11 12  1  0  0  0  0
 11 13  1  0  0  0  0
 11 14  1  0  0  0  0
 14 15  1  0  0  0  0
 14 16  1  0  0  0  0
 14 17  1  0  0  0  0
 17 18  1  0  0  0  0
 17 19  2  0  0  0  0
 20 21  2  0  0  0  0
 20 22  1  0  0  0  0
 22 23  1  0  0  0  0
 22 24  1  0  0  0  0
 24 25  1  0  0  0  0
 24 26  1  0  0  0  0
 24 27  1  0  0  0  0
M  CHG  1  18  -1
M  END
$$$$

  -OEChem-01062216073D

 27 26  0     1  0  0  0  0  0999 V2000
   -3.1390   -3.0221    1.1922 H   0  0  0  0  0  0  0  0  0  0  0  0
   -3.0211   -2.1491    0.5443 C   0  0  0  0  0  0  0  0  0  0  0  0
   -3.9287   -1.5433    0.5998 H   0  0  0  0  0  0  0  0  0  0  0  0
   -2.8819   -2.4911   -0.4846 H   0  0  0  0  0  0  0  0  0  0  0  0
   -1.8213   -1.3280    0.9817 C   0  0  0  0  0  0  0  0  0  0  0  0
   -1.1637   -1.6867    1.9457 O   0  0  0  0  0  0  0  0  0  0  0  0
   -1.5088   -0.1785    0.2853 N   0  0  0  0  0  0  0  0  0  0  0  0
   -2.0149   -0.0609   -0.5872 H   0  0  0  0  0  0  0  0  0  0  0  0
   -0.1929    0.4805    0.3711 C   0  0  1  0  0  0  0  0  0  0  0  0
    0.4957   -0.0637    1.0277 H   0  0  0  0  0  0  0  0  0  0  0  0
    0.3751    0.5117   -1.0584 C   0  0  0  0  0  0  0  0  0  0  0  0
   -0.3374    0.9977   -1.7337 H   0  0  0  0  0  0  0  0  0  0  0  0
    1.2943    1.1080   -1.0646 H   0  0  0  0  0  0  0  0  0  0  0  0
    0.7043   -0.8903   -1.5954 C   0  0  0  0  0  0  0  0  0  0  0  0
    1.4511   -1.3685   -0.9545 H   0  0  0  0  0  0  0  0  0  0  0  0
   -0.1882   -1.5218   -1.5990 H   0  0  0  0  0  0  0  0  0  0  0  0
    1.2362   -0.7912   -3.0234 C   0  0  0  0  0  0  0  0  0  0  0  0
    0.4038   -0.4752   -3.9115 O   0  5  0  0  0  0  0  0  0  0  0  0
    2.4559   -1.0039   -3.2252 O   0  0  0  0  0  0  0  0  0  0  0  0
   -0.3101    1.9247    0.8994 C   0  0  0  0  0  0  0  0  0  0  0  0
    0.2570    2.2683    1.9288 O   0  0  0  0  0  0  0  0  0  0  0  0
   -1.0669    2.8572    0.2105 N   0  0  0  0  0  0  0  0  0  0  0  0
   -1.4128    2.5729   -0.7004 H   0  0  0  0  0  0  0  0  0  0  0  0
   -1.1379    4.2628    0.5822 C   0  0  0  0  0  0  0  0  0  0  0  0
   -0.1489    4.7268    0.5113 H   0  0  0  0  0  0  0  0  0  0  0  0
   -1.8206    4.7942   -0.0875 H   0  0  0  0  0  0  0  0  0  0  0  0
   -1.5076    4.3701    1.6072 H   0  0  0  0  0  0  0  0  0  0  0  0
  1  2  1  0  0  0  0
  2  3  1  0  0  0  0
  2  4  1  0  0  0  0
  2  5  1  0  0  0  0
  5  6  2  0  0  0  0
  5  7  1  0  0  0  0
  7  8  1  0  0  0  0
  7  9  1  0  0  0  0
  9 10  1  0  0  0  0
  9 11  1  0  0  0  0
  9 20  1  0  0  0  0
 11 12  1  0  0  0  0
 11 13  1  0  0  0  0
 11 14  1  0  0  0  0
 14 15  1  0  0  0  0
 14 16  1  0  0  0  0
 14 17  1  0  0  0  0
 17 18  1  0  0  0  0
 17 19  2  0  0  0  0
 20 21  2  0  0  0  0
 20 22  1  0  0  0  0
 22 23  1  0  0  0  0
 22 24  1  0  0  0  0
 24 25  1  0  0  0  0
 24 26  1  0  0  0  0
 24 27  1  0  0  0  0
M  CHG  1  18  -1
M  END
$$$$

  -OEChem-01062216073D

 27 26  0     1  0  0  0  0  0999 V2000
   -3.1079   -3.0559    1.1597 H   0  0  0  0  0  0  0  0  0  0  0  0
   -2.9858   -2.1881    0.5053 C   0  0  0  0  0  0  0  0  0  0  0  0
   -3.9127   -1.6093    0.5098 H   0  0  0  0  0  0  0  0  0  0  0  0
   -2.7885   -2.5393   -0.5111 H   0  0  0  0  0  0  0  0  0  0  0  0
   -1.8321   -1.3258    0.9860 C   0  0  0  0  0  0  0  0  0  0  0  0
   -1.2166   -1.6450    1.9908 O   0  0  0  0  0  0  0  0  0  0  0  0
   -1.5198   -0.1753    0.2912 N   0  0  0  0  0  0  0  0  0  0  0  0
   -1.9764   -0.1037   -0.6136 H   0  0  0  0  0  0  0  0  0  0  0  0
   -0.1982    0.4726    0.3911 C   0  0  1  0  0  0  0  0  0  0  0  0
    0.4859   -0.0841    1.0420 H   0  0  0  0  0  0  0  0  0  0  0  0
    0.3666    0.5146   -1.0382 C   0  0  0  0  0  0  0  0  0  0  0  0
   -0.3416    1.0182   -1.7051 H   0  0  0  0  0  0  0  0  0  0  0  0
    1.2925    1.1009   -1.0392 H   0  0  0  0  0  0  0  0  0  0  0  0
    0.6808   -0.8868   -1.5879 C   0  0  0  0  0  0  0  0  0  0  0  0
    1.4237   -1.3775   -0.9516 H   0  0  0  0  0  0  0  0  0  0  0  0
   -0.2173   -1.5100   -1.5945 H   0  0  0  0  0  0  0  0  0  0  0  0
    1.2110   -0.7857   -3.0162 C   0  0  0  0  0  0  0  0  0  0  0  0
    0.3742   -0.4787   -3.9032 O   0  5  0  0  0  0  0  0  0  0  0  0
    2.4296   -1.0009   -3.2218 O   0  0  0  0  0  0  0  0  0  0  0  0
   -0.2960    1.9154    0.9258 C   0  0  0  0  0  0  0  0  0  0  0  0
    0.4899    2.3294    1.7684 O   0  0  0  0  0  0  0  0  0  0  0  0
   -1.2621    2.7754    0.4333 N   0  0  0  0  0  0  0  0  0  0  0  0
   -1.8372    2.4254   -0.3251 H   0  0  0  0  0  0  0  0  0  0  0  0
   -1.3566    4.1788    0.8070 C   0  0  0  0  0  0  0  0  0  0  0  0
   -0.4496    4.7151    0.5096 H   0  0  0  0  0  0  0  0  0  0  0  0
   -2.2136    4.6428    0.3100 H   0  0  0  0  0  0  0  0  0  0  0  0
   -1.4890    4.2787    1.8892 H   0  0  0  0  0  0  0  0  0  0  0  0
  1  2  1  0  0  0  0
  2  3  1  0  0  0  0
  2  4  1  0  0  0  0
  2  5  1  0  0  0  0
  5  6  2  0  0  0  0
  5  7  1  0  0  0  0
  7  8  1  0  0  0  0
  7  9  1  0  0  0  0
  9 10  1  0  0  0  0
  9 11  1  0  0  0  0
  9 20  1  0  0  0  0
 11 12  1  0  0  0  0
 11 13  1  0  0  0  0
 11 14  1  0  0  0  0
 14 15  1  0  0  0  0
 14 16  1  0  0  0  0
 14 17  1  0  0  0  0
 17 18  1  0  0  0  0
 17 19  2  0  0  0  0
 20 21  2  0  0  0  0
 20 22  1  0  0  0  0
 22 23  1  0  0  0  0
 22 24  1  0  0  0  0
 24 25  1  0  0  0  0
 24 26  1  0  0  0  0
 24 27  1  0  0  0  0
M  CHG  1  18  -1
M  END
$$$$

  -OEChem-01062216073D

 27 26  0     1  0  0  0  0  0999 V2000
   -3.0774   -3.0675    1.1134 H   0  0  0  0  0  0  0  0  0  0  0  0
   -2.9574   -2.1952    0.4648 C   0  0  0  0  0  0  0  0  0  0  0  0
   -3.8965   -1.6373    0.4453 H   0  0  0  0  0  0  0  0  0  0  0  0
   -2.7258   -2.5394   -0.5467 H   0  0  0  0  0  0  0  0  0  0  0  0
   -1.8363   -1.3089    0.9773 C   0  0  0  0  0  0  0  0  0  0  0  0
   -1.2579   -1.5991    2.0125 O   0  0  0  0  0  0  0  0  0  0  0  0
   -1.5182   -0.1594    0.2836 N   0  0  0  0  0  0  0  0  0  0  0  0
   -1.9413   -0.1131   -0.6397 H   0  0  0  0  0  0  0  0  0  0  0  0
   -0.1896    0.4748    0.3915 C   0  0  1  0  0  0  0  0  0  0  0  0
    0.4876   -0.0915    1.0413 H   0  0  0  0  0  0  0  0  0  0  0  0
    0.3730    0.5097   -1.0393 C   0  0  0  0  0  0  0  0  0  0  0  0
   -0.3307    1.0220   -1.7047 H   0  0  0  0  0  0  0  0  0  0  0  0
    1.3064    1.0844   -1.0441 H   0  0  0  0  0  0  0  0  0  0  0  0
    0.6683   -0.8988   -1.5840 C   0  0  0  0  0  0  0  0  0  0  0  0
    1.4067   -1.3944   -0.9466 H   0  0  0  0  0  0  0  0  0  0  0  0
   -0.2368   -1.5117   -1.5849 H   0  0  0  0  0  0  0  0  0  0  0  0
    1.1976   -0.8171   -3.0137 C   0  0  0  0  0  0  0  0  0  0  0  0
    0.3548   -0.5481   -3.9072 O   0  5  0  0  0  0  0  0  0  0  0  0
    2.4191   -1.0200   -3.2153 O   0  0  0  0  0  0  0  0  0  0  0  0
   -0.2682    1.9174    0.9305 C   0  0  0  0  0  0  0  0  0  0  0  0
    0.6655    2.4096    1.5508 O   0  0  0  0  0  0  0  0  0  0  0  0
   -1.3872    2.6919    0.6826 N   0  0  0  0  0  0  0  0  0  0  0  0
   -2.1444    2.2460    0.1769 H   0  0  0  0  0  0  0  0  0  0  0  0
   -1.5300    4.0735    1.1170 C   0  0  0  0  0  0  0  0  0  0  0  0
   -0.7353    4.6928    0.6887 H   0  0  0  0  0  0  0  0  0  0  0  0
   -2.4942    4.4732    0.7893 H   0  0  0  0  0  0  0  0  0  0  0  0
   -1.4806    4.1377    2.2087 H   0  0  0  0  0  0  0  0  0  0  0  0
  1  2  1  0  0  0  0
  2  3  1  0  0  0  0
  2  4  1  0  0  0  0
  2  5  1  0  0  0  0
  5  6  2  0  0  0  0
  5  7  1  0  0  0  0
  7  8  1  0  0  0  0
  7  9  1  0  0  0  0
  9 10  1  0  0  0  0
  9 11  1  0  0  0  0
  9 20  1  0  0  0  0
 11 12  1  0  0  0  0
 11 13  1  0  0  0  0
 11 14  1  0  0  0  0
 14 15  1  0  0  0  0
 14 16  1  0  0  0  0
 14 17  1  0  0  0  0
 17 18  1  0  0  0  0
 17 19  2  0  0  0  0
 20 21  2  0  0  0  0
 20 22  1  0  0  0  0
 22 23  1  0  0  0  0
 22 24  1  0  0  0  0
 24 25  1  0  0  0  0
 24 26  1  0  0  0  0
 24 27  1  0  0  0  0
M  CHG  1  18  -1
M  END
$$$$

  -OEChem-01062216073D

 27 26  0     1  0  0  0  0  0999 V2000
   -3.0633   -3.0549    1.0932 H   0  0  0  0  0  0  0  0  0  0  0  0
   -2.9442   -2.1839    0.4426 C   0  0  0  0  0  0  0  0  0  0  0  0
   -3.8873   -1.6331    0.4127 H   0  0  0  0  0  0  0  0  0  0  0  0
   -2.7010   -2.5296   -0.5656 H   0  0  0  0  0  0  0  0  0  0  0  0
   -1.8344   -1.2877    0.9621 C   0  0  0  0  0  0  0  0  0  0  0  0
   -1.2766   -1.5566    2.0142 O   0  0  0  0  0  0  0  0  0  0  0  0
   -1.5130   -0.1405    0.2666 N   0  0  0  0  0  0  0  0  0  0  0  0
   -1.9255   -0.1003   -0.6625 H   0  0  0  0  0  0  0  0  0  0  0  0
   -0.1798    0.4852    0.3757 C   0  0  1  0  0  0  0  0  0  0  0  0
    0.4917   -0.0834    1.0289 H   0  0  0  0  0  0  0  0  0  0  0  0
    0.3854    0.5045   -1.0549 C   0  0  0  0  0  0  0  0  0  0  0  0
   -0.3134    1.0170   -1.7254 H   0  0  0  0  0  0  0  0  0  0  0  0
    1.3236    1.0710   -1.0644 H   0  0  0  0  0  0  0  0  0  0  0  0
    0.6697   -0.9128   -1.5850 C   0  0  0  0  0  0  0  0  0  0  0  0
    1.4016   -1.4083   -0.9398 H   0  0  0  0  0  0  0  0  0  0  0  0
   -0.2411   -1.5173   -1.5818 H   0  0  0  0  0  0  0  0  0  0  0  0
    1.2026   -0.8567   -3.0149 C   0  0  0  0  0  0  0  0  0  0  0  0
    0.3677   -0.5782   -3.9128 O   0  5  0  0  0  0  0  0  0  0  0  0
    2.4167   -1.1030   -3.2136 O   0  0  0  0  0  0  0  0  0  0  0  0
   -0.2506    1.9289    0.9153 C   0  0  0  0  0  0  0  0  0  0  0  0
    0.7531    2.5044    1.3157 O   0  0  0  0  0  0  0  0  0  0  0  0
   -1.4595    2.6001    0.9427 N   0  0  0  0  0  0  0  0  0  0  0  0
   -2.2765    2.0573    0.6842 H   0  0  0  0  0  0  0  0  0  0  0  0
   -1.6299    3.9427    1.4775 C   0  0  0  0  0  0  0  0  0  0  0  0
   -0.9958    4.6526    0.9367 H   0  0  0  0  0  0  0  0  0  0  0  0
   -2.6714    4.2601    1.3715 H   0  0  0  0  0  0  0  0  0  0  0  0
   -1.3648    3.9675    2.5393 H   0  0  0  0  0  0  0  0  0  0  0  0
  1  2  1  0  0  0  0
  2  3  1  0  0  0  0
  2  4  1  0  0  0  0
  2  5  1  0  0  0  0
  5  6  2  0  0  0  0
  5  7  1  0  0  0  0
  7  8  1  0  0  0  0
  7  9  1  0  0  0  0
  9 10  1  0  0  0  0
  9 11  1  0  0  0  0
  9 20  1  0  0  0  0
 11 12  1  0  0  0  0
 11 13  1  0  0  0  0
 11 14  1  0  0  0  0
 14 15  1  0  0  0  0
 14 16  1  0  0  0  0
 14 17  1  0  0  0  0
 17 18  1  0  0  0  0
 17 19  2  0  0  0  0
 20 21  2  0  0  0  0
 20 22  1  0  0  0  0
 22 23  1  0  0  0  0
 22 24  1  0  0  0  0
 24 25  1  0  0  0  0
 24 26  1  0  0  0  0
 24 27  1  0  0  0  0
M  CHG  1  18  -1
M  END
$$$$

  -OEChem-01062216073D

 27 26  0     1  0  0  0  0  0999 V2000
   -3.0735   -3.0332    1.0826 H   0  0  0  0  0  0  0  0  0  0  0  0
   -2.9432   -2.1692    0.4251 C   0  0  0  0  0  0  0  0  0  0  0  0
   -3.8819   -1.6115    0.3844 H   0  0  0  0  0  0  0  0  0  0  0  0
   -2.6966   -2.5260   -0.5784 H   0  0  0  0  0  0  0  0  0  0  0  0
   -1.8293   -1.2774    0.9431 C   0  0  0  0  0  0  0  0  0  0  0  0
   -1.2758   -1.5432    1.9984 O   0  0  0  0  0  0  0  0  0  0  0  0
   -1.5076   -0.1269    0.2536 N   0  0  0  0  0  0  0  0  0  0  0  0
   -1.9290   -0.0715   -0.6713 H   0  0  0  0  0  0  0  0  0  0  0  0
   -0.1727    0.4975    0.3595 C   0  0  1  0  0  0  0  0  0  0  0  0
    0.4965   -0.0710    1.0146 H   0  0  0  0  0  0  0  0  0  0  0  0
    0.3942    0.5023   -1.0719 C   0  0  0  0  0  0  0  0  0  0  0  0
   -0.3030    1.0096   -1.7480 H   0  0  0  0  0  0  0  0  0  0  0  0
    1.3340    1.0653   -1.0879 H   0  0  0  0  0  0  0  0  0  0  0  0
    0.6751   -0.9222   -1.5851 C   0  0  0  0  0  0  0  0  0  0  0  0
    1.4056   -1.4108   -0.9332 H   0  0  0  0  0  0  0  0  0  0  0  0
   -0.2367   -1.5248   -1.5743 H   0  0  0  0  0  0  0  0  0  0  0  0
    1.2098   -0.8881   -3.0148 C   0  0  0  0  0  0  0  0  0  0  0  0
    0.3723   -0.6463   -3.9209 O   0  5  0  0  0  0  0  0  0  0  0  0
    2.4283   -1.1194   -3.2052 O   0  0  0  0  0  0  0  0  0  0  0  0
   -0.2428    1.9397    0.9079 C   0  0  0  0  0  0  0  0  0  0  0  0
    0.7691    2.6068    1.0816 O   0  0  0  0  0  0  0  0  0  0  0  0
   -1.4670    2.4942    1.2341 N   0  0  0  0  0  0  0  0  0  0  0  0
   -2.2634    1.8673    1.1797 H   0  0  0  0  0  0  0  0  0  0  0  0
   -1.6272    3.8064    1.8428 C   0  0  0  0  0  0  0  0  0  0  0  0
   -1.1901    4.5802    1.2034 H   0  0  0  0  0  0  0  0  0  0  0  0
   -2.6894    4.0302    1.9783 H   0  0  0  0  0  0  0  0  0  0  0  0
   -1.1375    3.8364    2.8214 H   0  0  0  0  0  0  0  0  0  0  0  0
  1  2  1  0  0  0  0
  2  3  1  0  0  0  0
  2  4  1  0  0  0  0
  2  5  1  0  0  0  0
  5  6  2  0  0  0  0
  5  7  1  0  0  0  0
  7  8  1  0  0  0  0
  7  9  1  0  0  0  0
  9 10  1  0  0  0  0
  9 11  1  0  0  0  0
  9 20  1  0  0  0  0
 11 12  1  0  0  0  0
 11 13  1  0  0  0  0
 11 14  1  0  0  0  0
 14 15  1  0  0  0  0
 14 16  1  0  0  0  0
 14 17  1  0  0  0  0
 17 18  1  0  0  0  0
 17 19  2  0  0  0  0
 20 21  2  0  0  0  0
 20 22  1  0  0  0  0
 22 23  1  0  0  0  0
 22 24  1  0  0  0  0
 24 25  1  0  0  0  0
 24 26  1  0  0  0  0
 24 27  1  0  0  0  0
M  CHG  1  18  -1
M  END
$$$$

  -OEChem-01062216073D

 27 26  0     1  0  0  0  0  0999 V2000
   -3.0751   -3.0115    1.0617 H   0  0  0  0  0  0  0  0  0  0  0  0
   -2.9398   -2.1479    0.4046 C   0  0  0  0  0  0  0  0  0  0  0  0
   -3.8761   -1.5861    0.3605 H   0  0  0  0  0  0  0  0  0  0  0  0
   -2.6914   -2.5058   -0.5982 H   0  0  0  0  0  0  0  0  0  0  0  0
   -1.8243   -1.2600    0.9256 C   0  0  0  0  0  0  0  0  0  0  0  0
   -1.2783   -1.5205    1.9864 O   0  0  0  0  0  0  0  0  0  0  0  0
   -1.5016   -0.1052    0.2449 N   0  0  0  0  0  0  0  0  0  0  0  0
   -1.9347   -0.0323   -0.6732 H   0  0  0  0  0  0  0  0  0  0  0  0
   -0.1639    0.5133    0.3447 C   0  0  1  0  0  0  0  0  0  0  0  0
    0.5027   -0.0582    0.9994 H   0  0  0  0  0  0  0  0  0  0  0  0
    0.4041    0.5039   -1.0877 C   0  0  0  0  0  0  0  0  0  0  0  0
   -0.2904    1.0083   -1.7685 H   0  0  0  0  0  0  0  0  0  0  0  0
    1.3478    1.0600   -1.1112 H   0  0  0  0  0  0  0  0  0  0  0  0
    0.6770   -0.9280   -1.5854 C   0  0  0  0  0  0  0  0  0  0  0  0
    1.4026   -1.4147   -0.9267 H   0  0  0  0  0  0  0  0  0  0  0  0
   -0.2390   -1.5239   -1.5694 H   0  0  0  0  0  0  0  0  0  0  0  0
    1.2131   -0.9166   -3.0149 C   0  0  0  0  0  0  0  0  0  0  0  0
    0.3752   -0.7030   -3.9274 O   0  5  0  0  0  0  0  0  0  0  0  0
    2.4337   -1.1431   -3.1984 O   0  0  0  0  0  0  0  0  0  0  0  0
   -0.2367    1.9511    0.9078 C   0  0  0  0  0  0  0  0  0  0  0  0
    0.7155    2.7190    0.8546 O   0  0  0  0  0  0  0  0  0  0  0  0
   -1.3951    2.3796    1.5298 N   0  0  0  0  0  0  0  0  0  0  0  0
   -2.1126    1.6724    1.6571 H   0  0  0  0  0  0  0  0  0  0  0  0
   -1.5326    3.6680    2.1926 C   0  0  0  0  0  0  0  0  0  0  0  0
   -1.3293    4.4829    1.4904 H   0  0  0  0  0  0  0  0  0  0  0  0
   -2.5512    3.7876    2.5730 H   0  0  0  0  0  0  0  0  0  0  0  0
   -0.8353    3.7416    3.0333 H   0  0  0  0  0  0  0  0  0  0  0  0
  1  2  1  0  0  0  0
  2  3  1  0  0  0  0
  2  4  1  0  0  0  0
  2  5  1  0  0  0  0
  5  6  2  0  0  0  0
  5  7  1  0  0  0  0
  7  8  1  0  0  0  0
  7  9  1  0  0  0  0
  9 10  1  0  0  0  0
  9 11  1  0  0  0  0
  9 20  1  0  0  0  0
 11 12  1  0  0  0  0
 11 13  1  0  0  0  0
 11 14  1  0  0  0  0
 14 15  1  0  0  0  0
 14 16  1  0  0  0  0
 14 17  1  0  0  0  0
 17 18  1  0  0  0  0
 17 19  2  0  0  0  0
 20 21  2  0  0  0  0
 20 22  1  0  0  0  0
 22 23  1  0  0  0  0
 22 24  1  0  0  0  0
 24 25  1  0  0  0  0
 24 26  1  0  0  0  0
 24 27  1  0  0  0  0
M  CHG  1  18  -1
M  END
$$$$

  -OEChem-01062216073D

 27 26  0     1  0  0  0  0  0999 V2000
   -3.0563   -3.0007    1.0273 H   0  0  0  0  0  0  0  0  0  0  0  0
   -2.9293   -2.1280    0.3805 C   0  0  0  0  0  0  0  0  0  0  0  0
   -3.8728   -1.5787    0.3368 H   0  0  0  0  0  0  0  0  0  0  0  0
   -2.6702   -2.4719   -0.6246 H   0  0  0  0  0  0  0  0  0  0  0  0
   -1.8292   -1.2303    0.9174 C   0  0  0  0  0  0  0  0  0  0  0  0
   -1.3027   -1.4762    1.9919 O   0  0  0  0  0  0  0  0  0  0  0  0
   -1.5020   -0.0739    0.2433 N   0  0  0  0  0  0  0  0  0  0  0  0
   -1.9405    0.0102   -0.6712 H   0  0  0  0  0  0  0  0  0  0  0  0
   -0.1568    0.5270    0.3357 C   0  0  1  0  0  0  0  0  0  0  0  0
    0.5045   -0.0527    0.9886 H   0  0  0  0  0  0  0  0  0  0  0  0
    0.4141    0.5053   -1.0962 C   0  0  0  0  0  0  0  0  0  0  0  0
   -0.2720    1.0164   -1.7806 H   0  0  0  0  0  0  0  0  0  0  0  0
    1.3656    1.0477   -1.1202 H   0  0  0  0  0  0  0  0  0  0  0  0
    0.6689   -0.9331   -1.5852 C   0  0  0  0  0  0  0  0  0  0  0  0
    1.3865   -1.4254   -0.9219 H   0  0  0  0  0  0  0  0  0  0  0  0
   -0.2551   -1.5165   -1.5669 H   0  0  0  0  0  0  0  0  0  0  0  0
    1.2083   -0.9393   -3.0134 C   0  0  0  0  0  0  0  0  0  0  0  0
    0.3723   -0.7474   -3.9323 O   0  5  0  0  0  0  0  0  0  0  0  0
    2.4315   -1.1592   -3.1885 O   0  0  0  0  0  0  0  0  0  0  0  0
   -0.2251    1.9590    0.9146 C   0  0  0  0  0  0  0  0  0  0  0  0
    0.5989    2.8237    0.6446 O   0  0  0  0  0  0  0  0  0  0  0  0
   -1.2361    2.2693    1.8053 N   0  0  0  0  0  0  0  0  0  0  0  0
   -1.8323    1.4945    2.0834 H   0  0  0  0  0  0  0  0  0  0  0  0
   -1.3486    3.5457    2.4953 C   0  0  0  0  0  0  0  0  0  0  0  0
   -1.4211    4.3656    1.7735 H   0  0  0  0  0  0  0  0  0  0  0  0
   -2.2456    3.5567    3.1212 H   0  0  0  0  0  0  0  0  0  0  0  0
   -0.4758    3.7125    3.1347 H   0  0  0  0  0  0  0  0  0  0  0  0
  1  2  1  0  0  0  0
  2  3  1  0  0  0  0
  2  4  1  0  0  0  0
  2  5  1  0  0  0  0
  5  6  2  0  0  0  0
  5  7  1  0  0  0  0
  7  8  1  0  0  0  0
  7  9  1  0  0  0  0
  9 10  1  0  0  0  0
  9 11  1  0  0  0  0
  9 20  1  0  0  0  0
 11 12  1  0  0  0  0
 11 13  1  0  0  0  0
 11 14  1  0  0  0  0
 14 15  1  0  0  0  0
 14 16  1  0  0  0  0
 14 17  1  0  0  0  0
 17 18  1  0  0  0  0
 17 19  2  0  0  0  0
 20 21  2  0  0  0  0
 20 22  1  0  0  0  0
 22 23  1  0  0  0  0
 22 24  1  0  0  0  0
 24 25  1  0  0  0  0
 24 26  1  0  0  0  0
 24 27  1  0  0  0  0
M  CHG  1  18  -1
M  END
$$$$

  -OEChem-01062216073D

 27 26  0     1  0  0  0  0  0999 V2000
   -3.0830   -2.9486    1.0380 H   0  0  0  0  0  0  0  0  0  0  0  0
   -2.9491   -2.0784    0.3896 C   0  0  0  0  0  0  0  0  0  0  0  0
   -3.8823   -1.5107    0.3611 H   0  0  0  0  0  0  0  0  0  0  0  0
   -2.7121   -2.4261   -0.6196 H   0  0  0  0  0  0  0  0  0  0  0  0
   -1.8236   -1.2030    0.9102 C   0  0  0  0  0  0  0  0  0  0  0  0
   -1.2856   -1.4579    1.9776 O   0  0  0  0  0  0  0  0  0  0  0  0
   -1.4904   -0.0458    0.2417 N   0  0  0  0  0  0  0  0  0  0  0  0
   -1.9471    0.0618   -0.6613 H   0  0  0  0  0  0  0  0  0  0  0  0
   -0.1382    0.5373    0.3214 C   0  0  1  0  0  0  0  0  0  0  0  0
    0.5202   -0.0496    0.9704 H   0  0  0  0  0  0  0  0  0  0  0  0
    0.4361    0.5066   -1.1087 C   0  0  0  0  0  0  0  0  0  0  0  0
   -0.2432    1.0215   -1.7968 H   0  0  0  0  0  0  0  0  0  0  0  0
    1.3929    1.0399   -1.1305 H   0  0  0  0  0  0  0  0  0  0  0  0
    0.6747   -0.9373   -1.5897 C   0  0  0  0  0  0  0  0  0  0  0  0
    1.3853   -1.4350   -0.9230 H   0  0  0  0  0  0  0  0  0  0  0  0
   -0.2563   -1.5096   -1.5686 H   0  0  0  0  0  0  0  0  0  0  0  0
    1.2184   -0.9591   -3.0161 C   0  0  0  0  0  0  0  0  0  0  0  0
    0.3767   -0.8559   -3.9438 O   0  5  0  0  0  0  0  0  0  0  0  0
    2.4551   -1.0971   -3.1793 O   0  0  0  0  0  0  0  0  0  0  0  0
   -0.2040    1.9620    0.9146 C   0  0  0  0  0  0  0  0  0  0  0  0
    0.4150    2.9139    0.4559 O   0  0  0  0  0  0  0  0  0  0  0  0
   -0.9951    2.1620    2.0305 N   0  0  0  0  0  0  0  0  0  0  0  0
   -1.4444    1.3328    2.4124 H   0  0  0  0  0  0  0  0  0  0  0  0
   -1.1093    3.4310    2.7333 C   0  0  0  0  0  0  0  0  0  0  0  0
   -1.4851    4.2083    2.0602 H   0  0  0  0  0  0  0  0  0  0  0  0
   -1.8048    3.3342    3.5722 H   0  0  0  0  0  0  0  0  0  0  0  0
   -0.1347    3.7406    3.1239 H   0  0  0  0  0  0  0  0  0  0  0  0
  1  2  1  0  0  0  0
  2  3  1  0  0  0  0
  2  4  1  0  0  0  0
  2  5  1  0  0  0  0
  5  6  2  0  0  0  0
  5  7  1  0  0  0  0
  7  8  1  0  0  0  0
  7  9  1  0  0  0  0
  9 10  1  0  0  0  0
  9 11  1  0  0  0  0
  9 20  1  0  0  0  0
 11 12  1  0  0  0  0
 11 13  1  0  0  0  0
 11 14  1  0  0  0  0
 14 15  1  0  0  0  0
 14 16  1  0  0  0  0
 14 17  1  0  0  0  0
 17 18  1  0  0  0  0
 17 19  2  0  0  0  0
 20 21  2  0  0  0  0
 20 22  1  0  0  0  0
 22 23  1  0  0  0  0
 22 24  1  0  0  0  0
 24 25  1  0  0  0  0
 24 26  1  0  0  0  0
 24 27  1  0  0  0  0
M  CHG  1  18  -1
M  END
$$$$

  -OEChem-01062216073D

 27 26  0     1  0  0  0  0  0999 V2000
   -3.0804   -2.9206    1.0360 H   0  0  0  0  0  0  0  0  0  0  0  0
   -2.9618   -2.0346    0.4062 C   0  0  0  0  0  0  0  0  0  0  0  0
   -3.8935   -1.4636    0.4178 H   0  0  0  0  0  0  0  0  0  0  0  0
   -2.7542   -2.3573   -0.6177 H   0  0  0  0  0  0  0  0  0  0  0  0
   -1.8184   -1.1763    0.9163 C   0  0  0  0  0  0  0  0  0  0  0  0
   -1.2661   -1.4454    1.9738 O   0  0  0  0  0  0  0  0  0  0  0  0
   -1.4754   -0.0220    0.2479 N   0  0  0  0  0  0  0  0  0  0  0  0
   -1.9450    0.1035   -0.6460 H   0  0  0  0  0  0  0  0  0  0  0  0
   -0.1152    0.5391    0.3169 C   0  0  1  0  0  0  0  0  0  0  0  0
    0.5400   -0.0578    0.9597 H   0  0  0  0  0  0  0  0  0  0  0  0
    0.4586    0.5040   -1.1131 C   0  0  0  0  0  0  0  0  0  0  0  0
   -0.2150    1.0277   -1.8004 H   0  0  0  0  0  0  0  0  0  0  0  0
    1.4213    1.0266   -1.1337 H   0  0  0  0  0  0  0  0  0  0  0  0
    0.6762   -0.9421   -1.5963 C   0  0  0  0  0  0  0  0  0  0  0  0
    1.3788   -1.4519   -0.9303 H   0  0  0  0  0  0  0  0  0  0  0  0
   -0.2639   -1.4996   -1.5762 H   0  0  0  0  0  0  0  0  0  0  0  0
    1.2201   -0.9709   -3.0224 C   0  0  0  0  0  0  0  0  0  0  0  0
    0.3801   -0.8774   -3.9525 O   0  5  0  0  0  0  0  0  0  0  0  0
    2.4582   -1.1026   -3.1820 O   0  0  0  0  0  0  0  0  0  0  0  0
   -0.1657    1.9598    0.9161 C   0  0  0  0  0  0  0  0  0  0  0  0
    0.2120    2.9628    0.3232 O   0  0  0  0  0  0  0  0  0  0  0  0
   -0.6778    2.0915    2.1930 N   0  0  0  0  0  0  0  0  0  0  0  0
   -1.0186    1.2373    2.6297 H   0  0  0  0  0  0  0  0  0  0  0  0
   -0.8238    3.3622    2.8867 C   0  0  0  0  0  0  0  0  0  0  0  0
   -1.5111    4.0178    2.3427 H   0  0  0  0  0  0  0  0  0  0  0  0
   -1.2232    3.1968    3.8916 H   0  0  0  0  0  0  0  0  0  0  0  0
    0.1460    3.8620    2.9779 H   0  0  0  0  0  0  0  0  0  0  0  0
  1  2  1  0  0  0  0
  2  3  1  0  0  0  0
  2  4  1  0  0  0  0
  2  5  1  0  0  0  0
  5  6  2  0  0  0  0
  5  7  1  0  0  0  0
  7  8  1  0  0  0  0
  7  9  1  0  0  0  0
  9 10  1  0  0  0  0
  9 11  1  0  0  0  0
  9 20  1  0  0  0  0
 11 12  1  0  0  0  0
 11 13  1  0  0  0  0
 11 14  1  0  0  0  0
 14 15  1  0  0  0  0
 14 16  1  0  0  0  0
 14 17  1  0  0  0  0
 17 18  1  0  0  0  0
 17 19  2  0  0  0  0
 20 21  2  0  0  0  0
 20 22  1  0  0  0  0
 22 23  1  0  0  0  0
 22 24  1  0  0  0  0
 24 25  1  0  0  0  0
 24 26  1  0  0  0  0
 24 27  1  0  0  0  0
M  CHG  1  18  -1
M  END
$$$$

  -OEChem-01062216073D

 27 26  0     1  0  0  0  0  0999 V2000
   -3.1501   -2.8507    1.0932 H   0  0  0  0  0  0  0  0  0  0  0  0
   -2.9916   -1.9906    0.4370 C   0  0  0  0  0  0  0  0  0  0  0  0
   -3.8958   -1.3768    0.4324 H   0  0  0  0  0  0  0  0  0  0  0  0
   -2.8018   -2.3528   -0.5771 H   0  0  0  0  0  0  0  0  0  0  0  0
   -1.8090   -1.1707    0.9201 C   0  0  0  0  0  0  0  0  0  0  0  0
   -1.2242   -1.4759    1.9505 O   0  0  0  0  0  0  0  0  0  0  0  0
   -1.4565   -0.0196    0.2508 N   0  0  0  0  0  0  0  0  0  0  0  0
   -1.9458    0.1321   -0.6280 H   0  0  0  0  0  0  0  0  0  0  0  0
   -0.0938    0.5317    0.3114 C   0  0  1  0  0  0  0  0  0  0  0  0
    0.5624   -0.0718    0.9472 H   0  0  0  0  0  0  0  0  0  0  0  0
    0.4765    0.5003   -1.1192 C   0  0  0  0  0  0  0  0  0  0  0  0
   -0.1971    1.0285   -1.8030 H   0  0  0  0  0  0  0  0  0  0  0  0
    1.4403    1.0212   -1.1387 H   0  0  0  0  0  0  0  0  0  0  0  0
    0.6847   -0.9445   -1.6089 C   0  0  0  0  0  0  0  0  0  0  0  0
    1.3865   -1.4623   -0.9484 H   0  0  0  0  0  0  0  0  0  0  0  0
   -0.2590   -1.4962   -1.5867 H   0  0  0  0  0  0  0  0  0  0  0  0
    1.2258   -0.9683   -3.0361 C   0  0  0  0  0  0  0  0  0  0  0  0
    0.3826   -1.0393   -3.9652 O   0  5  0  0  0  0  0  0  0  0  0  0
    2.4699   -0.9161   -3.1961 O   0  0  0  0  0  0  0  0  0  0  0  0
   -0.1314    1.9521    0.9089 C   0  0  0  0  0  0  0  0  0  0  0  0
   -0.0366    2.9712    0.2353 O   0  0  0  0  0  0  0  0  0  0  0  0
   -0.3278    2.0654    2.2722 N   0  0  0  0  0  0  0  0  0  0  0  0
   -0.5279    1.1995    2.7685 H   0  0  0  0  0  0  0  0  0  0  0  0
   -0.5001    3.3367    2.9587 C   0  0  0  0  0  0  0  0  0  0  0  0
   -1.3864    3.8570    2.5820 H   0  0  0  0  0  0  0  0  0  0  0  0
   -0.6245    3.1700    4.0326 H   0  0  0  0  0  0  0  0  0  0  0  0
    0.3765    3.9747    2.8074 H   0  0  0  0  0  0  0  0  0  0  0  0
  1  2  1  0  0  0  0
  2  3  1  0  0  0  0
  2  4  1  0  0  0  0
  2  5  1  0  0  0  0
  5  6  2  0  0  0  0
  5  7  1  0  0  0  0
  7  8  1  0  0  0  0
  7  9  1  0  0  0  0
  9 10  1  0  0  0  0
  9 11  1  0  0  0  0
  9 20  1  0  0  0  0
 11 12  1  0  0  0  0
 11 13  1  0  0  0  0
 11 14  1  0  0  0  0
 14 15  1  0  0  0  0
 14 16  1  0  0  0  0
 14 17  1  0  0  0  0
 17 18  1  0  0  0  0
 17 19  2  0  0  0  0
 20 21  2  0  0  0  0
 20 22  1  0  0  0  0
 22 23  1  0  0  0  0
 22 24  1  0  0  0  0
 24 25  1  0  0  0  0
 24 26  1  0  0  0  0
 24 27  1  0  0  0  0
M  CHG  1  18  -1
M  END
$$$$

  -OEChem-01062216073D

 27 26  0     1  0  0  0  0  0999 V2000
   -3.1955   -2.8258    1.1230 H   0  0  0  0  0  0  0  0  0  0  0  0
   -3.0303   -1.9698    0.4630 C   0  0  0  0  0  0  0  0  0  0  0  0
   -3.9173   -1.3318    0.4817 H   0  0  0  0  0  0  0  0  0  0  0  0
   -2.8761   -2.3359   -0.5556 H   0  0  0  0  0  0  0  0  0  0  0  0
   -1.8139   -1.1828    0.9157 C   0  0  0  0  0  0  0  0  0  0  0  0
   -1.1940   -1.5262    1.9134 O   0  0  0  0  0  0  0  0  0  0  0  0
   -1.4572   -0.0338    0.2443 N   0  0  0  0  0  0  0  0  0  0  0  0
   -1.9718    0.1496   -0.6136 H   0  0  0  0  0  0  0  0  0  0  0  0
   -0.0981    0.5241    0.3017 C   0  0  1  0  0  0  0  0  0  0  0  0
    0.5588   -0.0792    0.9363 H   0  0  0  0  0  0  0  0  0  0  0  0
    0.4816    0.4997   -1.1244 C   0  0  0  0  0  0  0  0  0  0  0  0
   -0.1912    1.0240   -1.8120 H   0  0  0  0  0  0  0  0  0  0  0  0
    1.4411    1.0282   -1.1360 H   0  0  0  0  0  0  0  0  0  0  0  0
    0.7032   -0.9419   -1.6167 C   0  0  0  0  0  0  0  0  0  0  0  0
    1.4052   -1.4564   -0.9540 H   0  0  0  0  0  0  0  0  0  0  0  0
   -0.2371   -1.4998   -1.5994 H   0  0  0  0  0  0  0  0  0  0  0  0
    1.2544   -0.9598   -3.0405 C   0  0  0  0  0  0  0  0  0  0  0  0
    0.4337   -1.1522   -3.9724 O   0  5  0  0  0  0  0  0  0  0  0  0
    2.4867   -0.7733   -3.1945 O   0  0  0  0  0  0  0  0  0  0  0  0
   -0.1299    1.9483    0.8900 C   0  0  0  0  0  0  0  0  0  0  0  0
   -0.3249    2.9447    0.2036 O   0  0  0  0  0  0  0  0  0  0  0  0
   -0.0025    2.0932    2.2589 N   0  0  0  0  0  0  0  0  0  0  0  0
   -0.0013    1.2344    2.8035 H   0  0  0  0  0  0  0  0  0  0  0  0
   -0.1437    3.3678    2.9474 C   0  0  0  0  0  0  0  0  0  0  0  0
   -1.1547    3.7653    2.8121 H   0  0  0  0  0  0  0  0  0  0  0  0
    0.0396    3.2388    4.0181 H   0  0  0  0  0  0  0  0  0  0  0  0
    0.5776    4.0942    2.5593 H   0  0  0  0  0  0  0  0  0  0  0  0
  1  2  1  0  0  0  0
  2  3  1  0  0  0  0
  2  4  1  0  0  0  0
  2  5  1  0  0  0  0
  5  6  2  0  0  0  0
  5  7  1  0  0  0  0
  7  8  1  0  0  0  0
  7  9  1  0  0  0  0
  9 10  1  0  0  0  0
  9 11  1  0  0  0  0
  9 20  1  0  0  0  0
 11 12  1  0  0  0  0
 11 13  1  0  0  0  0
 11 14  1  0  0  0  0
 14 15  1  0  0  0  0
 14 16  1  0  0  0  0
 14 17  1  0  0  0  0
 17 18  1  0  0  0  0
 17 19  2  0  0  0  0
 20 21  2  0  0  0  0
 20 22  1  0  0  0  0
 22 23  1  0  0  0  0
 22 24  1  0  0  0  0
 24 25  1  0  0  0  0
 24 26  1  0  0  0  0
 24 27  1  0  0  0  0
M  CHG  1  18  -1
M  END
$$$$

  -OEChem-01062216073D

 27 26  0     1  0  0  0  0  0999 V2000
   -3.2459   -2.8031    1.1686 H   0  0  0  0  0  0  0  0  0  0  0  0
   -3.0717   -1.9565    0.4989 C   0  0  0  0  0  0  0  0  0  0  0  0
   -3.9361   -1.2893    0.5398 H   0  0  0  0  0  0  0  0  0  0  0  0
   -2.9591   -2.3319   -0.5216 H   0  0  0  0  0  0  0  0  0  0  0  0
   -1.8170   -1.2085    0.9118 C   0  0  0  0  0  0  0  0  0  0  0  0
   -1.1612   -1.5929    1.8705 O   0  0  0  0  0  0  0  0  0  0  0  0
   -1.4567   -0.0616    0.2383 N   0  0  0  0  0  0  0  0  0  0  0  0
   -2.0057    0.1650   -0.5871 H   0  0  0  0  0  0  0  0  0  0  0  0
   -0.1046    0.5122    0.2931 C   0  0  1  0  0  0  0  0  0  0  0  0
    0.5538   -0.0861    0.9302 H   0  0  0  0  0  0  0  0  0  0  0  0
    0.4832    0.4986   -1.1288 C   0  0  0  0  0  0  0  0  0  0  0  0
   -0.1942    1.0152   -1.8178 H   0  0  0  0  0  0  0  0  0  0  0  0
    1.4349    1.0412   -1.1338 H   0  0  0  0  0  0  0  0  0  0  0  0
    0.7279   -0.9372   -1.6261 C   0  0  0  0  0  0  0  0  0  0  0  0
    1.4336   -1.4459   -0.9630 H   0  0  0  0  0  0  0  0  0  0  0  0
   -0.2057   -1.5067   -1.6157 H   0  0  0  0  0  0  0  0  0  0  0  0
    1.2880   -0.9392   -3.0470 C   0  0  0  0  0  0  0  0  0  0  0  0
    0.4946   -1.2157   -3.9811 O   0  5  0  0  0  0  0  0  0  0  0  0
    2.5010   -0.6496   -3.1964 O   0  0  0  0  0  0  0  0  0  0  0  0
   -0.1398    1.9418    0.8683 C   0  0  0  0  0  0  0  0  0  0  0  0
   -0.6122    2.8823    0.2394 O   0  0  0  0  0  0  0  0  0  0  0  0
    0.2947    2.1550    2.1638 N   0  0  0  0  0  0  0  0  0  0  0  0
    0.5412    1.3296    2.7024 H   0  0  0  0  0  0  0  0  0  0  0  0
    0.1918    3.4374    2.8445 C   0  0  0  0  0  0  0  0  0  0  0  0
   -0.8580    3.7245    2.9626 H   0  0  0  0  0  0  0  0  0  0  0  0
    0.6491    3.3737    3.8362 H   0  0  0  0  0  0  0  0  0  0  0  0
    0.7107    4.2155    2.2751 H   0  0  0  0  0  0  0  0  0  0  0  0
  1  2  1  0  0  0  0
  2  3  1  0  0  0  0
  2  4  1  0  0  0  0
  2  5  1  0  0  0  0
  5  6  2  0  0  0  0
  5  7  1  0  0  0  0
  7  8  1  0  0  0  0
  7  9  1  0  0  0  0
  9 10  1  0  0  0  0
  9 11  1  0  0  0  0
  9 20  1  0  0  0  0
 11 12  1  0  0  0  0
 11 13  1  0  0  0  0
 11 14  1  0  0  0  0
 14 15  1  0  0  0  0
 14 16  1  0  0  0  0
 14 17  1  0  0  0  0
 17 18  1  0  0  0  0
 17 19  2  0  0  0  0
 20 21  2  0  0  0  0
 20 22  1  0  0  0  0
 22 23  1  0  0  0  0
 22 24  1  0  0  0  0
 24 25  1  0  0  0  0
 24 26  1  0  0  0  0
 24 27  1  0  0  0  0
M  CHG  1  18  -1
M  END
$$$$

  -OEChem-01062216073D

 27 26  0     1  0  0  0  0  0999 V2000
   -3.3092   -2.7774    1.2175 H   0  0  0  0  0  0  0  0  0  0  0  0
   -3.1262   -1.9377    0.5412 C   0  0  0  0  0  0  0  0  0  0  0  0
   -3.9573   -1.2326    0.6210 H   0  0  0  0  0  0  0  0  0  0  0  0
   -3.0753   -2.3149   -0.4837 H   0  0  0  0  0  0  0  0  0  0  0  0
   -1.8227   -1.2471    0.8998 C   0  0  0  0  0  0  0  0  0  0  0  0
   -1.1292   -1.6836    1.8081 O   0  0  0  0  0  0  0  0  0  0  0  0
   -1.4583   -0.0993    0.2304 N   0  0  0  0  0  0  0  0  0  0  0  0
   -2.0574    0.1964   -0.5357 H   0  0  0  0  0  0  0  0  0  0  0  0
   -0.1150    0.4951    0.2847 C   0  0  1  0  0  0  0  0  0  0  0  0
    0.5445   -0.0965    0.9268 H   0  0  0  0  0  0  0  0  0  0  0  0
    0.4848    0.5004   -1.1305 C   0  0  0  0  0  0  0  0  0  0  0  0
   -0.1953    1.0108   -1.8211 H   0  0  0  0  0  0  0  0  0  0  0  0
    1.4266    1.0599   -1.1219 H   0  0  0  0  0  0  0  0  0  0  0  0
    0.7596   -0.9267   -1.6374 C   0  0  0  0  0  0  0  0  0  0  0  0
    1.4692   -1.4283   -0.9733 H   0  0  0  0  0  0  0  0  0  0  0  0
   -0.1651   -1.5107   -1.6354 H   0  0  0  0  0  0  0  0  0  0  0  0
    1.3327   -0.9129   -3.0541 C   0  0  0  0  0  0  0  0  0  0  0  0
    0.6273   -1.4047   -3.9699 O   0  5  0  0  0  0  0  0  0  0  0  0
    2.4650   -0.3944   -3.2204 O   0  0  0  0  0  0  0  0  0  0  0  0
   -0.1623    1.9276    0.8521 C   0  0  0  0  0  0  0  0  0  0  0  0
   -0.8798    2.7881    0.3527 O   0  0  0  0  0  0  0  0  0  0  0  0
    0.5419    2.2309    2.0031 N   0  0  0  0  0  0  0  0  0  0  0  0
    1.0615    1.4756    2.4397 H   0  0  0  0  0  0  0  0  0  0  0  0
    0.4926    3.5293    2.6594 C   0  0  0  0  0  0  0  0  0  0  0  0
   -0.5289    3.7572    2.9804 H   0  0  0  0  0  0  0  0  0  0  0  0
    1.1408    3.5293    3.5405 H   0  0  0  0  0  0  0  0  0  0  0  0
    0.8345    4.3158    1.9788 H   0  0  0  0  0  0  0  0  0  0  0  0
  1  2  1  0  0  0  0
  2  3  1  0  0  0  0
  2  4  1  0  0  0  0
  2  5  1  0  0  0  0
  5  6  2  0  0  0  0
  5  7  1  0  0  0  0
  7  8  1  0  0  0  0
  7  9  1  0  0  0  0
  9 10  1  0  0  0  0
  9 11  1  0  0  0  0
  9 20  1  0  0  0  0
 11 12  1  0  0  0  0
 11 13  1  0  0  0  0
 11 14  1  0  0  0  0
 14 15  1  0  0  0  0
 14 16  1  0  0  0  0
 14 17  1  0  0  0  0
 17 18  1  0  0  0  0
 17 19  2  0  0  0  0
 20 21  2  0  0  0  0
 20 22  1  0  0  0  0
 22 23  1  0  0  0  0
 22 24  1  0  0  0  0
 24 25  1  0  0  0  0
 24 26  1  0  0  0  0
 24 27  1  0  0  0  0
M  CHG  1  18  -1
M  END
$$$$

  -OEChem-01062216073D

 27 26  0     1  0  0  0  0  0999 V2000
   -3.1983   -2.9166    1.2038 H   0  0  0  0  0  0  0  0  0  0  0  0
   -3.1064   -1.9980    0.6179 C   0  0  0  0  0  0  0  0  0  0  0  0
   -3.9301   -1.3284    0.8773 H   0  0  0  0  0  0  0  0  0  0  0  0
   -3.1721   -2.2507   -0.4436 H   0  0  0  0  0  0  0  0  0  0  0  0
   -1.7781   -1.3211    0.9050 C   0  0  0  0  0  0  0  0  0  0  0  0
   -1.0309   -1.7808    1.7570 O   0  0  0  0  0  0  0  0  0  0  0  0
   -1.4522   -0.1624    0.2346 N   0  0  0  0  0  0  0  0  0  0  0  0
   -2.1212    0.1911   -0.4437 H   0  0  0  0  0  0  0  0  0  0  0  0
   -0.1371    0.4931    0.2801 C   0  0  1  0  0  0  0  0  0  0  0  0
    0.5426   -0.0673    0.9289 H   0  0  0  0  0  0  0  0  0  0  0  0
    0.4689    0.5263   -1.1323 C   0  0  0  0  0  0  0  0  0  0  0  0
   -0.2384    1.0043   -1.8192 H   0  0  0  0  0  0  0  0  0  0  0  0
    1.3815    1.1319   -1.1246 H   0  0  0  0  0  0  0  0  0  0  0  0
    0.8173   -0.8862   -1.6452 C   0  0  0  0  0  0  0  0  0  0  0  0
    1.5379   -1.3461   -0.9627 H   0  0  0  0  0  0  0  0  0  0  0  0
   -0.0845   -1.5041   -1.6522 H   0  0  0  0  0  0  0  0  0  0  0  0
    1.4043   -0.9010   -3.0622 C   0  0  0  0  0  0  0  0  0  0  0  0
    1.3883    0.1554   -3.7435 O   0  5  0  0  0  0  0  0  0  0  0  0
    1.8693   -1.9968   -3.4611 O   0  0  0  0  0  0  0  0  0  0  0  0
   -0.2351    1.9272    0.8381 C   0  0  0  0  0  0  0  0  0  0  0  0
   -1.1629    2.6683    0.5287 O   0  0  0  0  0  0  0  0  0  0  0  0
    0.6821    2.3630    1.7772 N   0  0  0  0  0  0  0  0  0  0  0  0
    1.4397    1.7304    2.0143 H   0  0  0  0  0  0  0  0  0  0  0  0
    0.6600    3.6941    2.3659 C   0  0  0  0  0  0  0  0  0  0  0  0
   -0.2773    3.8577    2.9073 H   0  0  0  0  0  0  0  0  0  0  0  0
    1.4902    3.8077    3.0693 H   0  0  0  0  0  0  0  0  0  0  0  0
    0.7583    4.4579    1.5877 H   0  0  0  0  0  0  0  0  0  0  0  0
  1  2  1  0  0  0  0
  2  3  1  0  0  0  0
  2  4  1  0  0  0  0
  2  5  1  0  0  0  0
  5  6  2  0  0  0  0
  5  7  1  0  0  0  0
  7  8  1  0  0  0  0
  7  9  1  0  0  0  0
  9 10  1  0  0  0  0
  9 11  1  0  0  0  0
  9 20  1  0  0  0  0
 11 12  1  0  0  0  0
 11 13  1  0  0  0  0
 11 14  1  0  0  0  0
 14 15  1  0  0  0  0
 14 16  1  0  0  0  0
 14 17  1  0  0  0  0
 17 18  1  0  0  0  0
 17 19  2  0  0  0  0
 20 21  2  0  0  0  0
 20 22  1  0  0  0  0
 22 23  1  0  0  0  0
 22 24  1  0  0  0  0
 24 25  1  0  0  0  0
 24 26  1  0  0  0  0
 24 27  1  0  0  0  0
M  CHG  1  18  -1
M  END
$$$$

  -OEChem-01062216073D

 27 26  0     1  0  0  0  0  0999 V2000
   -3.1938   -2.9288    1.3206 H   0  0  0  0  0  0  0  0  0  0  0  0
   -3.0895   -2.0497    0.6787 C   0  0  0  0  0  0  0  0  0  0  0  0
   -3.9023   -1.3531    0.8984 H   0  0  0  0  0  0  0  0  0  0  0  0
   -3.1621   -2.3655   -0.3653 H   0  0  0  0  0  0  0  0  0  0  0  0
   -1.7504   -1.3765    0.9213 C   0  0  0  0  0  0  0  0  0  0  0  0
   -0.9768   -1.8414    1.7465 O   0  0  0  0  0  0  0  0  0  0  0  0
   -1.4441   -0.2194    0.2389 N   0  0  0  0  0  0  0  0  0  0  0  0
   -2.1430    0.1478   -0.4008 H   0  0  0  0  0  0  0  0  0  0  0  0
   -0.1471    0.4720    0.2877 C   0  0  1  0  0  0  0  0  0  0  0  0
    0.5414   -0.0615    0.9502 H   0  0  0  0  0  0  0  0  0  0  0  0
    0.4641    0.5082   -1.1216 C   0  0  0  0  0  0  0  0  0  0  0  0
   -0.2492    0.9600   -1.8199 H   0  0  0  0  0  0  0  0  0  0  0  0
    1.3614    1.1365   -1.1150 H   0  0  0  0  0  0  0  0  0  0  0  0
    0.8525   -0.8920   -1.6219 C   0  0  0  0  0  0  0  0  0  0  0  0
    1.5947   -1.3353   -0.9516 H   0  0  0  0  0  0  0  0  0  0  0  0
   -0.0219   -1.5490   -1.6321 H   0  0  0  0  0  0  0  0  0  0  0  0
    1.4325   -0.8108   -3.0326 C   0  0  0  0  0  0  0  0  0  0  0  0
    2.6172   -0.4076   -3.1462 O   0  5  0  0  0  0  0  0  0  0  0  0
    0.6834   -1.1180   -3.9929 O   0  0  0  0  0  0  0  0  0  0  0  0
   -0.2754    1.9130    0.8217 C   0  0  0  0  0  0  0  0  0  0  0  0
   -1.3150    2.5527    0.6915 O   0  0  0  0  0  0  0  0  0  0  0  0
    0.7811    2.4838    1.5077 N   0  0  0  0  0  0  0  0  0  0  0  0
    1.6516    1.9610    1.5274 H   0  0  0  0  0  0  0  0  0  0  0  0
    0.7717    3.8548    1.9969 C   0  0  0  0  0  0  0  0  0  0  0  0
   -0.0626    4.0090    2.6889 H   0  0  0  0  0  0  0  0  0  0  0  0
    1.7040    4.0704    2.5274 H   0  0  0  0  0  0  0  0  0  0  0  0
    0.6756    4.5574    1.1628 H   0  0  0  0  0  0  0  0  0  0  0  0
  1  2  1  0  0  0  0
  2  3  1  0  0  0  0
  2  4  1  0  0  0  0
  2  5  1  0  0  0  0
  5  6  2  0  0  0  0
  5  7  1  0  0  0  0
  7  8  1  0  0  0  0
  7  9  1  0  0  0  0
  9 10  1  0  0  0  0
  9 11  1  0  0  0  0
  9 20  1  0  0  0  0
 11 12  1  0  0  0  0
 11 13  1  0  0  0  0
 11 14  1  0  0  0  0
 14 15  1  0  0  0  0
 14 16  1  0  0  0  0
 14 17  1  0  0  0  0
 17 18  1  0  0  0  0
 17 19  2  0  0  0  0
 20 21  2  0  0  0  0
 20 22  1  0  0  0  0
 22 23  1  0  0  0  0
 22 24  1  0  0  0  0
 24 25  1  0  0  0  0
 24 26  1  0  0  0  0
 24 27  1  0  0  0  0
M  CHG  1  18  -1
M  END
$$$$

  -OEChem-01062216073D

 27 26  0     1  0  0  0  0  0999 V2000
   -3.2081   -2.9299    1.3136 H   0  0  0  0  0  0  0  0  0  0  0  0
   -3.1068   -2.0383    0.6886 C   0  0  0  0  0  0  0  0  0  0  0  0
   -3.9027   -1.3346    0.9445 H   0  0  0  0  0  0  0  0  0  0  0  0
   -3.2110   -2.3294   -0.3598 H   0  0  0  0  0  0  0  0  0  0  0  0
   -1.7518   -1.3901    0.9099 C   0  0  0  0  0  0  0  0  0  0  0  0
   -0.9665   -1.8805    1.7087 O   0  0  0  0  0  0  0  0  0  0  0  0
   -1.4429   -0.2316    0.2308 N   0  0  0  0  0  0  0  0  0  0  0  0
   -2.1637    0.1707   -0.3613 H   0  0  0  0  0  0  0  0  0  0  0  0
   -0.1502    0.4674    0.2929 C   0  0  1  0  0  0  0  0  0  0  0  0
    0.5354   -0.0612    0.9629 H   0  0  0  0  0  0  0  0  0  0  0  0
    0.4688    0.5048   -1.1138 C   0  0  0  0  0  0  0  0  0  0  0  0
   -0.2434    0.9525   -1.8158 H   0  0  0  0  0  0  0  0  0  0  0  0
    1.3637    1.1363   -1.1057 H   0  0  0  0  0  0  0  0  0  0  0  0
    0.8679   -0.8918   -1.6133 C   0  0  0  0  0  0  0  0  0  0  0  0
    1.6099   -1.3313   -0.9404 H   0  0  0  0  0  0  0  0  0  0  0  0
   -0.0023   -1.5542   -1.6293 H   0  0  0  0  0  0  0  0  0  0  0  0
    1.4540   -0.8004   -3.0208 C   0  0  0  0  0  0  0  0  0  0  0  0
    2.6205   -0.3452   -3.1296 O   0  5  0  0  0  0  0  0  0  0  0  0
    0.7253   -1.1450   -3.9838 O   0  0  0  0  0  0  0  0  0  0  0  0
   -0.2822    1.9106    0.8234 C   0  0  0  0  0  0  0  0  0  0  0  0
   -1.3733    2.4676    0.9056 O   0  0  0  0  0  0  0  0  0  0  0  0
    0.8496    2.5907    1.2347 N   0  0  0  0  0  0  0  0  0  0  0  0
    1.7428    2.1449    1.0438 H   0  0  0  0  0  0  0  0  0  0  0  0
    0.8377    3.9831    1.6590 C   0  0  0  0  0  0  0  0  0  0  0  0
    0.1901    4.1122    2.5322 H   0  0  0  0  0  0  0  0  0  0  0  0
    1.8488    4.3012    1.9294 H   0  0  0  0  0  0  0  0  0  0  0  0
    0.4760    4.6263    0.8503 H   0  0  0  0  0  0  0  0  0  0  0  0
  1  2  1  0  0  0  0
  2  3  1  0  0  0  0
  2  4  1  0  0  0  0
  2  5  1  0  0  0  0
  5  6  2  0  0  0  0
  5  7  1  0  0  0  0
  7  8  1  0  0  0  0
  7  9  1  0  0  0  0
  9 10  1  0  0  0  0
  9 11  1  0  0  0  0
  9 20  1  0  0  0  0
 11 12  1  0  0  0  0
 11 13  1  0  0  0  0
 11 14  1  0  0  0  0
 14 15  1  0  0  0  0
 14 16  1  0  0  0  0
 14 17  1  0  0  0  0
 17 18  1  0  0  0  0
 17 19  2  0  0  0  0
 20 21  2  0  0  0  0
 20 22  1  0  0  0  0
 22 23  1  0  0  0  0
 22 24  1  0  0  0  0
 24 25  1  0  0  0  0
 24 26  1  0  0  0  0
 24 27  1  0  0  0  0
M  CHG  1  18  -1
M  END
$$$$

  -OEChem-01062216073D

 27 26  0     1  0  0  0  0  0999 V2000
   -3.1845   -2.9452    1.2684 H   0  0  0  0  0  0  0  0  0  0  0  0
   -3.1179   -2.0059    0.7128 C   0  0  0  0  0  0  0  0  0  0  0  0
   -3.8674   -1.3114    1.1003 H   0  0  0  0  0  0  0  0  0  0  0  0
   -3.3263   -2.2054   -0.3414 H   0  0  0  0  0  0  0  0  0  0  0  0
   -1.7320   -1.4042    0.8604 C   0  0  0  0  0  0  0  0  0  0  0  0
   -0.9080   -1.9474    1.5827 O   0  0  0  0  0  0  0  0  0  0  0  0
   -1.4289   -0.2412    0.1863 N   0  0  0  0  0  0  0  0  0  0  0  0
   -2.1770    0.2040   -0.3361 H   0  0  0  0  0  0  0  0  0  0  0  0
   -0.1387    0.4608    0.2694 C   0  0  1  0  0  0  0  0  0  0  0  0
    0.6208   -0.1895    0.7152 H   0  0  0  0  0  0  0  0  0  0  0  0
    0.3044    0.8202   -1.1599 C   0  0  0  0  0  0  0  0  0  0  0  0
   -0.4883    1.3910   -1.6559 H   0  0  0  0  0  0  0  0  0  0  0  0
    1.1945    1.4566   -1.1263 H   0  0  0  0  0  0  0  0  0  0  0  0
    0.6405   -0.4229   -1.9973 C   0  0  0  0  0  0  0  0  0  0  0  0
    1.4608   -0.9767   -1.5312 H   0  0  0  0  0  0  0  0  0  0  0  0
   -0.2239   -1.0909   -2.0552 H   0  0  0  0  0  0  0  0  0  0  0  0
    1.0496   -0.0070   -3.4088 C   0  0  0  0  0  0  0  0  0  0  0  0
    2.1921    0.4971   -3.5500 O   0  5  0  0  0  0  0  0  0  0  0  0
    0.2074   -0.1471   -4.3297 O   0  0  0  0  0  0  0  0  0  0  0  0
   -0.2043    1.7421    1.1326 C   0  0  0  0  0  0  0  0  0  0  0  0
   -1.2502    2.1136    1.6572 O   0  0  0  0  0  0  0  0  0  0  0  0
    0.9326    2.5116    1.3061 N   0  0  0  0  0  0  0  0  0  0  0  0
    1.7508    2.2438    0.7653 H   0  0  0  0  0  0  0  0  0  0  0  0
    0.9409    3.7885    2.0048 C   0  0  0  0  0  0  0  0  0  0  0  0
    0.5946    3.6638    3.0359 H   0  0  0  0  0  0  0  0  0  0  0  0
    1.9559    4.1960    2.0290 H   0  0  0  0  0  0  0  0  0  0  0  0
    0.2899    4.5065    1.4957 H   0  0  0  0  0  0  0  0  0  0  0  0
  1  2  1  0  0  0  0
  2  3  1  0  0  0  0
  2  4  1  0  0  0  0
  2  5  1  0  0  0  0
  5  6  2  0  0  0  0
  5  7  1  0  0  0  0
  7  8  1  0  0  0  0
  7  9  1  0  0  0  0
  9 10  1  0  0  0  0
  9 11  1  0  0  0  0
  9 20  1  0  0  0  0
 11 12  1  0  0  0  0
 11 13  1  0  0  0  0
 11 14  1  0  0  0  0
 14 15  1  0  0  0  0
 14 16  1  0  0  0  0
 14 17  1  0  0  0  0
 17 18  1  0  0  0  0
 17 19  2  0  0  0  0
 20 21  2  0  0  0  0
 20 22  1  0  0  0  0
 22 23  1  0  0  0  0
 22 24  1  0  0  0  0
 24 25  1  0  0  0  0
 24 26  1  0  0  0  0
 24 27  1  0  0  0  0
M  CHG  1  18  -1
M  END
$$$$

  -OEChem-01062216073D

 27 26  0     1  0  0  0  0  0999 V2000
   -3.1780   -2.9337    1.2609 H   0  0  0  0  0  0  0  0  0  0  0  0
   -3.1119   -1.9867    0.7182 C   0  0  0  0  0  0  0  0  0  0  0  0
   -3.8535   -1.2939    1.1233 H   0  0  0  0  0  0  0  0  0  0  0  0
   -3.3323   -2.1696   -0.3366 H   0  0  0  0  0  0  0  0  0  0  0  0
   -1.7209   -1.3944    0.8598 C   0  0  0  0  0  0  0  0  0  0  0  0
   -0.8942   -1.9503    1.5691 O   0  0  0  0  0  0  0  0  0  0  0  0
   -1.4142   -0.2334    0.1835 N   0  0  0  0  0  0  0  0  0  0  0  0
   -2.1613    0.2120   -0.3393 H   0  0  0  0  0  0  0  0  0  0  0  0
   -0.1207    0.4633    0.2674 C   0  0  1  0  0  0  0  0  0  0  0  0
    0.6399   -0.1844    0.7151 H   0  0  0  0  0  0  0  0  0  0  0  0
    0.3128    0.8084   -1.1706 C   0  0  0  0  0  0  0  0  0  0  0  0
   -0.4790    1.3825   -1.6643 H   0  0  0  0  0  0  0  0  0  0  0  0
    1.2106    1.4337   -1.1516 H   0  0  0  0  0  0  0  0  0  0  0  0
    0.6382   -0.4395   -2.0047 C   0  0  0  0  0  0  0  0  0  0  0  0
    1.4613   -0.9935   -1.5441 H   0  0  0  0  0  0  0  0  0  0  0  0
   -0.2281   -1.1058   -2.0529 H   0  0  0  0  0  0  0  0  0  0  0  0
    1.0356   -0.0269   -3.4205 C   0  0  0  0  0  0  0  0  0  0  0  0
    2.1670    0.4990   -3.5703 O   0  5  0  0  0  0  0  0  0  0  0  0
    0.1890   -0.1813   -4.3349 O   0  0  0  0  0  0  0  0  0  0  0  0
   -0.1935    1.7467    1.1324 C   0  0  0  0  0  0  0  0  0  0  0  0
   -1.1649    1.9853    1.8439 O   0  0  0  0  0  0  0  0  0  0  0  0
    0.8212    2.6868    1.0787 N   0  0  0  0  0  0  0  0  0  0  0  0
    1.5614    2.5215    0.4012 H   0  0  0  0  0  0  0  0  0  0  0  0
    0.7694    3.9717    1.7605 C   0  0  0  0  0  0  0  0  0  0  0  0
    0.6605    3.8287    2.8405 H   0  0  0  0  0  0  0  0  0  0  0  0
    1.6924    4.5299    1.5776 H   0  0  0  0  0  0  0  0  0  0  0  0
   -0.0742    4.5652    1.3935 H   0  0  0  0  0  0  0  0  0  0  0  0
  1  2  1  0  0  0  0
  2  3  1  0  0  0  0
  2  4  1  0  0  0  0
  2  5  1  0  0  0  0
  5  6  2  0  0  0  0
  5  7  1  0  0  0  0
  7  8  1  0  0  0  0
  7  9  1  0  0  0  0
  9 10  1  0  0  0  0
  9 11  1  0  0  0  0
  9 20  1  0  0  0  0
 11 12  1  0  0  0  0
 11 13  1  0  0  0  0
 11 14  1  0  0  0  0
 14 15  1  0  0  0  0
 14 16  1  0  0  0  0
 14 17  1  0  0  0  0
 17 18  1  0  0  0  0
 17 19  2  0  0  0  0
 20 21  2  0  0  0  0
 20 22  1  0  0  0  0
 22 23  1  0  0  0  0
 22 24  1  0  0  0  0
 24 25  1  0  0  0  0
 24 26  1  0  0  0  0
 24 27  1  0  0  0  0
M  CHG  1  18  -1
M  END
$$$$

  -OEChem-01062216073D

 27 26  0     1  0  0  0  0  0999 V2000
   -3.1654   -2.9121    1.2776 H   0  0  0  0  0  0  0  0  0  0  0  0
   -3.0961   -1.9778    0.7138 C   0  0  0  0  0  0  0  0  0  0  0  0
   -3.8487   -1.2809    1.0908 H   0  0  0  0  0  0  0  0  0  0  0  0
   -3.2977   -2.1863   -0.3400 H   0  0  0  0  0  0  0  0  0  0  0  0
   -1.7113   -1.3739    0.8644 C   0  0  0  0  0  0  0  0  0  0  0  0
   -0.8833   -1.9275    1.5738 O   0  0  0  0  0  0  0  0  0  0  0  0
   -1.4086   -0.2141    0.1834 N   0  0  0  0  0  0  0  0  0  0  0  0
   -2.1458    0.2043   -0.3743 H   0  0  0  0  0  0  0  0  0  0  0  0
   -0.1134    0.4811    0.2569 C   0  0  1  0  0  0  0  0  0  0  0  0
    0.6501   -0.1623    0.7061 H   0  0  0  0  0  0  0  0  0  0  0  0
    0.3101    0.8053   -1.1899 C   0  0  0  0  0  0  0  0  0  0  0  0
   -0.4817    1.3766   -1.6867 H   0  0  0  0  0  0  0  0  0  0  0  0
    1.2132    1.4231   -1.1853 H   0  0  0  0  0  0  0  0  0  0  0  0
    0.6269   -0.4551   -2.0085 C   0  0  0  0  0  0  0  0  0  0  0  0
    1.4523   -1.0041   -1.5461 H   0  0  0  0  0  0  0  0  0  0  0  0
   -0.2411   -1.1200   -2.0401 H   0  0  0  0  0  0  0  0  0  0  0  0
    1.0142   -0.0643   -3.4334 C   0  0  0  0  0  0  0  0  0  0  0  0
    2.1242    0.5024   -3.5943 O   0  5  0  0  0  0  0  0  0  0  0  0
    0.1763   -0.2736   -4.3449 O   0  0  0  0  0  0  0  0  0  0  0  0
   -0.1903    1.7657    1.1230 C   0  0  0  0  0  0  0  0  0  0  0  0
   -1.0214    1.8774    2.0187 O   0  0  0  0  0  0  0  0  0  0  0  0
    0.6278    2.8532    0.8672 N   0  0  0  0  0  0  0  0  0  0  0  0
    1.2579    2.7780    0.0725 H   0  0  0  0  0  0  0  0  0  0  0  0
    0.5375    4.1216    1.5762 C   0  0  0  0  0  0  0  0  0  0  0  0
    0.6898    3.9721    2.6500 H   0  0  0  0  0  0  0  0  0  0  0  0
    1.3048    4.8109    1.2116 H   0  0  0  0  0  0  0  0  0  0  0  0
   -0.4441    4.5793    1.4172 H   0  0  0  0  0  0  0  0  0  0  0  0
  1  2  1  0  0  0  0
  2  3  1  0  0  0  0
  2  4  1  0  0  0  0
  2  5  1  0  0  0  0
  5  6  2  0  0  0  0
  5  7  1  0  0  0  0
  7  8  1  0  0  0  0
  7  9  1  0  0  0  0
  9 10  1  0  0  0  0
  9 11  1  0  0  0  0
  9 20  1  0  0  0  0
 11 12  1  0  0  0  0
 11 13  1  0  0  0  0
 11 14  1  0  0  0  0
 14 15  1  0  0  0  0
 14 16  1  0  0  0  0
 14 17  1  0  0  0  0
 17 18  1  0  0  0  0
 17 19  2  0  0  0  0
 20 21  2  0  0  0  0
 20 22  1  0  0  0  0
 22 23  1  0  0  0  0
 22 24  1  0  0  0  0
 24 25  1  0  0  0  0
 24 26  1  0  0  0  0
 24 27  1  0  0  0  0
M  CHG  1  18  -1
M  END
$$$$

  -OEChem-01062216073D

 27 26  0     1  0  0  0  0  0999 V2000
   -3.1534   -2.9124    1.2863 H   0  0  0  0  0  0  0  0  0  0  0  0
   -3.0789   -1.9945    0.6967 C   0  0  0  0  0  0  0  0  0  0  0  0
   -3.8602   -1.3026    1.0207 H   0  0  0  0  0  0  0  0  0  0  0  0
   -3.2328   -2.2393   -0.3574 H   0  0  0  0  0  0  0  0  0  0  0  0
   -1.7136   -1.3573    0.8850 C   0  0  0  0  0  0  0  0  0  0  0  0
   -0.8958   -1.8882    1.6223 O   0  0  0  0  0  0  0  0  0  0  0  0
   -1.4141   -0.2017    0.1950 N   0  0  0  0  0  0  0  0  0  0  0  0
   -2.1208    0.1573   -0.4383 H   0  0  0  0  0  0  0  0  0  0  0  0
   -0.1197    0.4955    0.2600 C   0  0  1  0  0  0  0  0  0  0  0  0
    0.6463   -0.1418    0.7142 H   0  0  0  0  0  0  0  0  0  0  0  0
    0.2993    0.8052   -1.1909 C   0  0  0  0  0  0  0  0  0  0  0  0
   -0.4926    1.3731   -1.6916 H   0  0  0  0  0  0  0  0  0  0  0  0
    1.2041    1.4215   -1.1892 H   0  0  0  0  0  0  0  0  0  0  0  0
    0.6158   -0.4598   -2.0015 C   0  0  0  0  0  0  0  0  0  0  0  0
    1.4446   -1.0036   -1.5387 H   0  0  0  0  0  0  0  0  0  0  0  0
   -0.2503   -1.1274   -2.0269 H   0  0  0  0  0  0  0  0  0  0  0  0
    0.9969   -0.0733   -3.4293 C   0  0  0  0  0  0  0  0  0  0  0  0
    2.1152    0.4722   -3.6025 O   0  5  0  0  0  0  0  0  0  0  0  0
    0.1390   -0.2523   -4.3286 O   0  0  0  0  0  0  0  0  0  0  0  0
   -0.2024    1.7851    1.1187 C   0  0  0  0  0  0  0  0  0  0  0  0
   -0.8401    1.8052    2.1657 O   0  0  0  0  0  0  0  0  0  0  0  0
    0.3670    2.9740    0.6931 N   0  0  0  0  0  0  0  0  0  0  0  0
    0.8524    2.9581   -0.2004 H   0  0  0  0  0  0  0  0  0  0  0  0
    0.2636    4.2328    1.4168 C   0  0  0  0  0  0  0  0  0  0  0  0
    0.6834    4.1324    2.4229 H   0  0  0  0  0  0  0  0  0  0  0  0
    0.8166    5.0148    0.8882 H   0  0  0  0  0  0  0  0  0  0  0  0
   -0.7833    4.5425    1.4978 H   0  0  0  0  0  0  0  0  0  0  0  0
  1  2  1  0  0  0  0
  2  3  1  0  0  0  0
  2  4  1  0  0  0  0
  2  5  1  0  0  0  0
  5  6  2  0  0  0  0
  5  7  1  0  0  0  0
  7  8  1  0  0  0  0
  7  9  1  0  0  0  0
  9 10  1  0  0  0  0
  9 11  1  0  0  0  0
  9 20  1  0  0  0  0
 11 12  1  0  0  0  0
 11 13  1  0  0  0  0
 11 14  1  0  0  0  0
 14 15  1  0  0  0  0
 14 16  1  0  0  0  0
 14 17  1  0  0  0  0
 17 18  1  0  0  0  0
 17 19  2  0  0  0  0
 20 21  2  0  0  0  0
 20 22  1  0  0  0  0
 22 23  1  0  0  0  0
 22 24  1  0  0  0  0
 24 25  1  0  0  0  0
 24 26  1  0  0  0  0
 24 27  1  0  0  0  0
M  CHG  1  18  -1
M  END
$$$$

  -OEChem-01062216073D

 27 26  0     1  0  0  0  0  0999 V2000
   -3.2072   -2.8727    1.2880 H   0  0  0  0  0  0  0  0  0  0  0  0
   -3.1230   -1.9517    0.7044 C   0  0  0  0  0  0  0  0  0  0  0  0
   -3.8833   -1.2459    1.0479 H   0  0  0  0  0  0  0  0  0  0  0  0
   -3.3003   -2.1844   -0.3488 H   0  0  0  0  0  0  0  0  0  0  0  0
   -1.7408   -1.3466    0.8743 C   0  0  0  0  0  0  0  0  0  0  0  0
   -0.9231   -1.9041    1.5907 O   0  0  0  0  0  0  0  0  0  0  0  0
   -1.4299   -0.1876    0.1942 N   0  0  0  0  0  0  0  0  0  0  0  0
   -2.1407    0.1956   -0.4197 H   0  0  0  0  0  0  0  0  0  0  0  0
   -0.1255    0.4904    0.2562 C   0  0  1  0  0  0  0  0  0  0  0  0
    0.6341   -0.1612    0.7008 H   0  0  0  0  0  0  0  0  0  0  0  0
    0.2974    0.8207   -1.1885 C   0  0  0  0  0  0  0  0  0  0  0  0
   -0.4925    1.4070   -1.6716 H   0  0  0  0  0  0  0  0  0  0  0  0
    1.2075    1.4301   -1.1710 H   0  0  0  0  0  0  0  0  0  0  0  0
    0.5989   -0.4301   -2.0351 C   0  0  0  0  0  0  0  0  0  0  0  0
    1.4127   -0.9934   -1.5691 H   0  0  0  0  0  0  0  0  0  0  0  0
   -0.2840   -1.0740   -2.0691 H   0  0  0  0  0  0  0  0  0  0  0  0
    0.9950   -0.0862   -3.4773 C   0  0  0  0  0  0  0  0  0  0  0  0
    0.8760    1.1040   -3.8700 O   0  5  0  0  0  0  0  0  0  0  0  0
    1.4035   -1.0329   -4.1920 O   0  0  0  0  0  0  0  0  0  0  0  0
   -0.1930    1.7688    1.1299 C   0  0  0  0  0  0  0  0  0  0  0  0
   -0.5896    1.7170    2.2882 O   0  0  0  0  0  0  0  0  0  0  0  0
    0.1023    3.0163    0.6054 N   0  0  0  0  0  0  0  0  0  0  0  0
    0.3822    3.0492   -0.3725 H   0  0  0  0  0  0  0  0  0  0  0  0
   -0.0012    4.2605    1.3537 C   0  0  0  0  0  0  0  0  0  0  0  0
    0.6170    4.2174    2.2561 H   0  0  0  0  0  0  0  0  0  0  0  0
    0.3434    5.0972    0.7389 H   0  0  0  0  0  0  0  0  0  0  0  0
   -1.0402    4.4464    1.6434 H   0  0  0  0  0  0  0  0  0  0  0  0
  1  2  1  0  0  0  0
  2  3  1  0  0  0  0
  2  4  1  0  0  0  0
  2  5  1  0  0  0  0
  5  6  2  0  0  0  0
  5  7  1  0  0  0  0
  7  8  1  0  0  0  0
  7  9  1  0  0  0  0
  9 10  1  0  0  0  0
  9 11  1  0  0  0  0
  9 20  1  0  0  0  0
 11 12  1  0  0  0  0
 11 13  1  0  0  0  0
 11 14  1  0  0  0  0
 14 15  1  0  0  0  0
 14 16  1  0  0  0  0
 14 17  1  0  0  0  0
 17 18  1  0  0  0  0
 17 19  2  0  0  0  0
 20 21  2  0  0  0  0
 20 22  1  0  0  0  0
 22 23  1  0  0  0  0
 22 24  1  0  0  0  0
 24 25  1  0  0  0  0
 24 26  1  0  0  0  0
 24 27  1  0  0  0  0
M  CHG  1  18  -1
M  END
$$$$

  -OEChem-01062216073D

 27 26  0     1  0  0  0  0  0999 V2000
   -3.2696   -2.8512    1.2739 H   0  0  0  0  0  0  0  0  0  0  0  0
   -3.1399   -1.9759    0.6313 C   0  0  0  0  0  0  0  0  0  0  0  0
   -3.9448   -1.2660    0.8369 H   0  0  0  0  0  0  0  0  0  0  0  0
   -3.2006   -2.2931   -0.4131 H   0  0  0  0  0  0  0  0  0  0  0  0
   -1.7944   -1.3238    0.8957 C   0  0  0  0  0  0  0  0  0  0  0  0
   -1.0183   -1.8436    1.6825 O   0  0  0  0  0  0  0  0  0  0  0  0
   -1.4655   -0.1722    0.2112 N   0  0  0  0  0  0  0  0  0  0  0  0
   -2.1067    0.1234   -0.5183 H   0  0  0  0  0  0  0  0  0  0  0  0
   -0.1514    0.4867    0.2755 C   0  0  1  0  0  0  0  0  0  0  0  0
    0.5999   -0.1755    0.7198 H   0  0  0  0  0  0  0  0  0  0  0  0
    0.2639    0.8033   -1.1735 C   0  0  0  0  0  0  0  0  0  0  0  0
   -0.5198    1.3913   -1.6641 H   0  0  0  0  0  0  0  0  0  0  0  0
    1.1792    1.4056   -1.1640 H   0  0  0  0  0  0  0  0  0  0  0  0
    0.5384   -0.4579   -2.0039 C   0  0  0  0  0  0  0  0  0  0  0  0
    1.3526   -1.0350   -1.5553 H   0  0  0  0  0  0  0  0  0  0  0  0
   -0.3473   -1.0987   -2.0373 H   0  0  0  0  0  0  0  0  0  0  0  0
    0.9165   -0.0553   -3.4268 C   0  0  0  0  0  0  0  0  0  0  0  0
   -0.0272    0.1416   -4.2326 O   0  5  0  0  0  0  0  0  0  0  0  0
    2.1294    0.1458   -3.6787 O   0  0  0  0  0  0  0  0  0  0  0  0
   -0.1947    1.7696    1.1411 C   0  0  0  0  0  0  0  0  0  0  0  0
   -0.3081    1.7033    2.3587 O   0  0  0  0  0  0  0  0  0  0  0  0
   -0.1797    3.0264    0.5587 N   0  0  0  0  0  0  0  0  0  0  0  0
   -0.0496    3.0629   -0.4490 H   0  0  0  0  0  0  0  0  0  0  0  0
   -0.2109    4.2713    1.3125 C   0  0  0  0  0  0  0  0  0  0  0  0
    0.6642    4.3446    1.9662 H   0  0  0  0  0  0  0  0  0  0  0  0
   -0.2049    5.1242    0.6273 H   0  0  0  0  0  0  0  0  0  0  0  0
   -1.1172    4.3258    1.9243 H   0  0  0  0  0  0  0  0  0  0  0  0
  1  2  1  0  0  0  0
  2  3  1  0  0  0  0
  2  4  1  0  0  0  0
  2  5  1  0  0  0  0
  5  6  2  0  0  0  0
  5  7  1  0  0  0  0
  7  8  1  0  0  0  0
  7  9  1  0  0  0  0
  9 10  1  0  0  0  0
  9 11  1  0  0  0  0
  9 20  1  0  0  0  0
 11 12  1  0  0  0  0
 11 13  1  0  0  0  0
 11 14  1  0  0  0  0
 14 15  1  0  0  0  0
 14 16  1  0  0  0  0
 14 17  1  0  0  0  0
 17 18  1  0  0  0  0
 17 19  2  0  0  0  0
 20 21  2  0  0  0  0
 20 22  1  0  0  0  0
 22 23  1  0  0  0  0
 22 24  1  0  0  0  0
 24 25  1  0  0  0  0
 24 26  1  0  0  0  0
 24 27  1  0  0  0  0
M  CHG  1  18  -1
M  END
$$$$

  -OEChem-01062216073D

 27 26  0     1  0  0  0  0  0999 V2000
   -3.2340   -2.9160    1.2296 H   0  0  0  0  0  0  0  0  0  0  0  0
   -3.1116   -2.0371    0.5906 C   0  0  0  0  0  0  0  0  0  0  0  0
   -3.9540   -1.3611    0.7561 H   0  0  0  0  0  0  0  0  0  0  0  0
   -3.1108   -2.3582   -0.4542 H   0  0  0  0  0  0  0  0  0  0  0  0
   -1.8076   -1.3294    0.9137 C   0  0  0  0  0  0  0  0  0  0  0  0
   -1.0588   -1.8025    1.7540 O   0  0  0  0  0  0  0  0  0  0  0  0
   -1.4863   -0.1767    0.2275 N   0  0  0  0  0  0  0  0  0  0  0  0
   -2.0864    0.0597   -0.5571 H   0  0  0  0  0  0  0  0  0  0  0  0
   -0.1758    0.4899    0.2997 C   0  0  1  0  0  0  0  0  0  0  0  0
    0.5787   -0.1698    0.7426 H   0  0  0  0  0  0  0  0  0  0  0  0
    0.2377    0.8184   -1.1464 C   0  0  0  0  0  0  0  0  0  0  0  0
   -0.5499    1.4023   -1.6355 H   0  0  0  0  0  0  0  0  0  0  0  0
    1.1467    1.4300   -1.1305 H   0  0  0  0  0  0  0  0  0  0  0  0
    0.5198   -0.4390   -1.9821 C   0  0  0  0  0  0  0  0  0  0  0  0
    1.3359   -1.0117   -1.5310 H   0  0  0  0  0  0  0  0  0  0  0  0
   -0.3619   -1.0847   -2.0189 H   0  0  0  0  0  0  0  0  0  0  0  0
    0.8964   -0.0363   -3.4059 C   0  0  0  0  0  0  0  0  0  0  0  0
   -0.0373    0.3680   -4.1440 O   0  5  0  0  0  0  0  0  0  0  0  0
    2.1062   -0.0764   -3.7356 O   0  0  0  0  0  0  0  0  0  0  0  0
   -0.2268    1.7723    1.1616 C   0  0  0  0  0  0  0  0  0  0  0  0
   -0.0348    1.7277    2.3700 O   0  0  0  0  0  0  0  0  0  0  0  0
   -0.5219    2.9986    0.5893 N   0  0  0  0  0  0  0  0  0  0  0  0
   -0.5949    3.0224   -0.4240 H   0  0  0  0  0  0  0  0  0  0  0  0
   -0.5139    4.2547    1.3247 C   0  0  0  0  0  0  0  0  0  0  0  0
    0.4889    4.4648    1.7101 H   0  0  0  0  0  0  0  0  0  0  0  0
   -0.8132    5.0762    0.6670 H   0  0  0  0  0  0  0  0  0  0  0  0
   -1.2151    4.2122    2.1644 H   0  0  0  0  0  0  0  0  0  0  0  0
  1  2  1  0  0  0  0
  2  3  1  0  0  0  0
  2  4  1  0  0  0  0
  2  5  1  0  0  0  0
  5  6  2  0  0  0  0
  5  7  1  0  0  0  0
  7  8  1  0  0  0  0
  7  9  1  0  0  0  0
  9 10  1  0  0  0  0
  9 11  1  0  0  0  0
  9 20  1  0  0  0  0
 11 12  1  0  0  0  0
 11 13  1  0  0  0  0
 11 14  1  0  0  0  0
 14 15  1  0  0  0  0
 14 16  1  0  0  0  0
 14 17  1  0  0  0  0
 17 18  1  0  0  0  0
 17 19  2  0  0  0  0
 20 21  2  0  0  0  0
 20 22  1  0  0  0  0
 22 23  1  0  0  0  0
 22 24  1  0  0  0  0
 24 25  1  0  0  0  0
 24 26  1  0  0  0  0
 24 27  1  0  0  0  0
M  CHG  1  18  -1
M  END
$$$$

  -OEChem-01062216073D

 27 26  0     1  0  0  0  0  0999 V2000
   -3.2129   -2.9608    1.1970 H   0  0  0  0  0  0  0  0  0  0  0  0
   -3.0921   -2.0787    0.5620 C   0  0  0  0  0  0  0  0  0  0  0  0
   -3.9573   -1.4254    0.6985 H   0  0  0  0  0  0  0  0  0  0  0  0
   -3.0480   -2.3998   -0.4819 H   0  0  0  0  0  0  0  0  0  0  0  0
   -1.8186   -1.3370    0.9285 C   0  0  0  0  0  0  0  0  0  0  0  0
   -1.1015   -1.7725    1.8148 O   0  0  0  0  0  0  0  0  0  0  0  0
   -1.4958   -0.1841    0.2436 N   0  0  0  0  0  0  0  0  0  0  0  0
   -2.0550    0.0077   -0.5825 H   0  0  0  0  0  0  0  0  0  0  0  0
   -0.1825    0.4772    0.3252 C   0  0  1  0  0  0  0  0  0  0  0  0
    0.5719   -0.1878    0.7613 H   0  0  0  0  0  0  0  0  0  0  0  0
    0.2266    0.8272   -1.1164 C   0  0  0  0  0  0  0  0  0  0  0  0
   -0.5595    1.4221   -1.5940 H   0  0  0  0  0  0  0  0  0  0  0  0
    1.1361    1.4379   -1.0935 H   0  0  0  0  0  0  0  0  0  0  0  0
    0.5014   -0.4204   -1.9707 C   0  0  0  0  0  0  0  0  0  0  0  0
    1.3165   -1.0013   -1.5282 H   0  0  0  0  0  0  0  0  0  0  0  0
   -0.3831   -1.0618   -2.0131 H   0  0  0  0  0  0  0  0  0  0  0  0
    0.8749   -0.0074   -3.3929 C   0  0  0  0  0  0  0  0  0  0  0  0
   -0.0442    0.4864   -4.0945 O   0  5  0  0  0  0  0  0  0  0  0  0
    2.0634   -0.1548   -3.7663 O   0  0  0  0  0  0  0  0  0  0  0  0
   -0.2334    1.7560    1.1891 C   0  0  0  0  0  0  0  0  0  0  0  0
    0.2433    1.7774    2.3167 O   0  0  0  0  0  0  0  0  0  0  0  0
   -0.8143    2.9111    0.6936 N   0  0  0  0  0  0  0  0  0  0  0  0
   -1.0987    2.8933   -0.2814 H   0  0  0  0  0  0  0  0  0  0  0  0
   -0.8096    4.1816    1.4040 C   0  0  0  0  0  0  0  0  0  0  0  0
    0.2171    4.5296    1.5568 H   0  0  0  0  0  0  0  0  0  0  0  0
   -1.3507    4.9366    0.8262 H   0  0  0  0  0  0  0  0  0  0  0  0
   -1.2977    4.0779    2.3786 H   0  0  0  0  0  0  0  0  0  0  0  0
  1  2  1  0  0  0  0
  2  3  1  0  0  0  0
  2  4  1  0  0  0  0
  2  5  1  0  0  0  0
  5  6  2  0  0  0  0
  5  7  1  0  0  0  0
  7  8  1  0  0  0  0
  7  9  1  0  0  0  0
  9 10  1  0  0  0  0
  9 11  1  0  0  0  0
  9 20  1  0  0  0  0
 11 12  1  0  0  0  0
 11 13  1  0  0  0  0
 11 14  1  0  0  0  0
 14 15  1  0  0  0  0
 14 16  1  0  0  0  0
 14 17  1  0  0  0  0
 17 18  1  0  0  0  0
 17 19  2  0  0  0  0
 20 21  2  0  0  0  0
 20 22  1  0  0  0  0
 22 23  1  0  0  0  0
 22 24  1  0  0  0  0
 24 25  1  0  0  0  0
 24 26  1  0  0  0  0
 24 27  1  0  0  0  0
M  CHG  1  18  -1
M  END
$$$$

  -OEChem-01062216073D

 27 26  0     1  0  0  0  0  0999 V2000
   -3.2009   -2.9927    1.1632 H   0  0  0  0  0  0  0  0  0  0  0  0
   -3.0717   -2.1149    0.5237 C   0  0  0  0  0  0  0  0  0  0  0  0
   -3.9564   -1.4798    0.6130 H   0  0  0  0  0  0  0  0  0  0  0  0
   -2.9736   -2.4468   -0.5131 H   0  0  0  0  0  0  0  0  0  0  0  0
   -1.8334   -1.3396    0.9376 C   0  0  0  0  0  0  0  0  0  0  0  0
   -1.1521   -1.7406    1.8672 O   0  0  0  0  0  0  0  0  0  0  0  0
   -1.5061   -0.1865    0.2555 N   0  0  0  0  0  0  0  0  0  0  0  0
   -2.0217   -0.0346   -0.6070 H   0  0  0  0  0  0  0  0  0  0  0  0
   -0.1859    0.4602    0.3501 C   0  0  1  0  0  0  0  0  0  0  0  0
    0.5638   -0.2164    0.7763 H   0  0  0  0  0  0  0  0  0  0  0  0
    0.2191    0.8303   -1.0861 C   0  0  0  0  0  0  0  0  0  0  0  0
   -0.5614    1.4438   -1.5490 H   0  0  0  0  0  0  0  0  0  0  0  0
    1.1359    1.4298   -1.0571 H   0  0  0  0  0  0  0  0  0  0  0  0
    0.4763   -0.4092   -1.9582 C   0  0  0  0  0  0  0  0  0  0  0  0
    1.2870   -1.0046   -1.5274 H   0  0  0  0  0  0  0  0  0  0  0  0
   -0.4147   -1.0412   -2.0048 H   0  0  0  0  0  0  0  0  0  0  0  0
    0.8472    0.0156   -3.3770 C   0  0  0  0  0  0  0  0  0  0  0  0
   -0.0797    0.4922   -4.0802 O   0  5  0  0  0  0  0  0  0  0  0  0
    2.0376   -0.1154   -3.7498 O   0  0  0  0  0  0  0  0  0  0  0  0
   -0.2245    1.7337    1.2192 C   0  0  0  0  0  0  0  0  0  0  0  0
    0.4918    1.8493    2.2055 O   0  0  0  0  0  0  0  0  0  0  0  0
   -1.0464    2.7889    0.8632 N   0  0  0  0  0  0  0  0  0  0  0  0
   -1.5384    2.7009   -0.0202 H   0  0  0  0  0  0  0  0  0  0  0  0
   -1.0540    4.0707    1.5527 C   0  0  0  0  0  0  0  0  0  0  0  0
   -0.0784    4.5590    1.4619 H   0  0  0  0  0  0  0  0  0  0  0  0
   -1.8136    4.7266    1.1170 H   0  0  0  0  0  0  0  0  0  0  0  0
   -1.2846    3.9335    2.6142 H   0  0  0  0  0  0  0  0  0  0  0  0
  1  2  1  0  0  0  0
  2  3  1  0  0  0  0
  2  4  1  0  0  0  0
  2  5  1  0  0  0  0
  5  6  2  0  0  0  0
  5  7  1  0  0  0  0
  7  8  1  0  0  0  0
  7  9  1  0  0  0  0
  9 10  1  0  0  0  0
  9 11  1  0  0  0  0
  9 20  1  0  0  0  0
 11 12  1  0  0  0  0
 11 13  1  0  0  0  0
 11 14  1  0  0  0  0
 14 15  1  0  0  0  0
 14 16  1  0  0  0  0
 14 17  1  0  0  0  0
 17 18  1  0  0  0  0
 17 19  2  0  0  0  0
 20 21  2  0  0  0  0
 20 22  1  0  0  0  0
 22 23  1  0  0  0  0
 22 24  1  0  0  0  0
 24 25  1  0  0  0  0
 24 26  1  0  0  0  0
 24 27  1  0  0  0  0
M  CHG  1  18  -1
M  END
$$$$

  -OEChem-01062216073D

 27 26  0     1  0  0  0  0  0999 V2000
   -3.1786   -3.0190    1.1181 H   0  0  0  0  0  0  0  0  0  0  0  0
   -3.0483   -2.1395    0.4813 C   0  0  0  0  0  0  0  0  0  0  0  0
   -3.9516   -1.5270    0.5360 H   0  0  0  0  0  0  0  0  0  0  0  0
   -2.9034   -2.4706   -0.5505 H   0  0  0  0  0  0  0  0  0  0  0  0
   -1.8459   -1.3330    0.9382 C   0  0  0  0  0  0  0  0  0  0  0  0
   -1.2011   -1.7016    1.9067 O   0  0  0  0  0  0  0  0  0  0  0  0
   -1.5140   -0.1795    0.2595 N   0  0  0  0  0  0  0  0  0  0  0  0
   -1.9897   -0.0607   -0.6314 H   0  0  0  0  0  0  0  0  0  0  0  0
   -0.1851    0.4493    0.3643 C   0  0  1  0  0  0  0  0  0  0  0  0
    0.5569   -0.2406    0.7831 H   0  0  0  0  0  0  0  0  0  0  0  0
    0.2191    0.8298   -1.0688 C   0  0  0  0  0  0  0  0  0  0  0  0
   -0.5541    1.4607   -1.5212 H   0  0  0  0  0  0  0  0  0  0  0  0
    1.1445    1.4158   -1.0369 H   0  0  0  0  0  0  0  0  0  0  0  0
    0.4565   -0.4076   -1.9513 C   0  0  0  0  0  0  0  0  0  0  0  0
    1.2606   -1.0164   -1.5269 H   0  0  0  0  0  0  0  0  0  0  0  0
   -0.4425   -1.0281   -1.9981 H   0  0  0  0  0  0  0  0  0  0  0  0
    0.8280    0.0167   -3.3700 C   0  0  0  0  0  0  0  0  0  0  0  0
   -0.1019    0.4819   -4.0766 O   0  5  0  0  0  0  0  0  0  0  0  0
    2.0184   -0.1144   -3.7435 O   0  0  0  0  0  0  0  0  0  0  0  0
   -0.2039    1.7172    1.2410 C   0  0  0  0  0  0  0  0  0  0  0  0
    0.6966    1.9471    2.0383 O   0  0  0  0  0  0  0  0  0  0  0  0
   -1.2127    2.6507    1.0825 N   0  0  0  0  0  0  0  0  0  0  0  0
   -1.9000    2.4571    0.3621 H   0  0  0  0  0  0  0  0  0  0  0  0
   -1.2492    3.9275    1.7796 C   0  0  0  0  0  0  0  0  0  0  0  0
   -0.3737    4.5306    1.5184 H   0  0  0  0  0  0  0  0  0  0  0  0
   -2.1490    4.4826    1.4992 H   0  0  0  0  0  0  0  0  0  0  0  0
   -1.2623    3.7715    2.8631 H   0  0  0  0  0  0  0  0  0  0  0  0
  1  2  1  0  0  0  0
  2  3  1  0  0  0  0
  2  4  1  0  0  0  0
  2  5  1  0  0  0  0
  5  6  2  0  0  0  0
  5  7  1  0  0  0  0
  7  8  1  0  0  0  0
  7  9  1  0  0  0  0
  9 10  1  0  0  0  0
  9 11  1  0  0  0  0
  9 20  1  0  0  0  0
 11 12  1  0  0  0  0
 11 13  1  0  0  0  0
 11 14  1  0  0  0  0
 14 15  1  0  0  0  0
 14 16  1  0  0  0  0
 14 17  1  0  0  0  0
 17 18  1  0  0  0  0
 17 19  2  0  0  0  0
 20 21  2  0  0  0  0
 20 22  1  0  0  0  0
 22 23  1  0  0  0  0
 22 24  1  0  0  0  0
 24 25  1  0  0  0  0
 24 26  1  0  0  0  0
 24 27  1  0  0  0  0
M  CHG  1  18  -1
M  END
$$$$

  -OEChem-01062216073D

 27 26  0     1  0  0  0  0  0999 V2000
   -3.1563   -3.0180    1.0860 H   0  0  0  0  0  0  0  0  0  0  0  0
   -3.0285   -2.1367    0.4512 C   0  0  0  0  0  0  0  0  0  0  0  0
   -3.9432   -1.5400    0.4870 H   0  0  0  0  0  0  0  0  0  0  0  0
   -2.8574   -2.4663   -0.5770 H   0  0  0  0  0  0  0  0  0  0  0  0
   -1.8495   -1.3095    0.9311 C   0  0  0  0  0  0  0  0  0  0  0  0
   -1.2325   -1.6503    1.9276 O   0  0  0  0  0  0  0  0  0  0  0  0
   -1.5125   -0.1586    0.2507 N   0  0  0  0  0  0  0  0  0  0  0  0
   -1.9641   -0.0588   -0.6557 H   0  0  0  0  0  0  0  0  0  0  0  0
   -0.1757    0.4552    0.3586 C   0  0  1  0  0  0  0  0  0  0  0  0
    0.5585   -0.2432    0.7762 H   0  0  0  0  0  0  0  0  0  0  0  0
    0.2278    0.8272   -1.0768 C   0  0  0  0  0  0  0  0  0  0  0  0
   -0.5399    1.4654   -1.5282 H   0  0  0  0  0  0  0  0  0  0  0  0
    1.1603    1.4026   -1.0517 H   0  0  0  0  0  0  0  0  0  0  0  0
    0.4475   -0.4198   -1.9517 C   0  0  0  0  0  0  0  0  0  0  0  0
    1.2453   -1.0348   -1.5243 H   0  0  0  0  0  0  0  0  0  0  0  0
   -0.4588   -1.0300   -1.9907 H   0  0  0  0  0  0  0  0  0  0  0  0
    0.8195   -0.0169   -3.3765 C   0  0  0  0  0  0  0  0  0  0  0  0
   -0.1116    0.4321   -4.0921 O   0  5  0  0  0  0  0  0  0  0  0  0
    2.0083   -0.1613   -3.7502 O   0  0  0  0  0  0  0  0  0  0  0  0
   -0.1744    1.7225    1.2363 C   0  0  0  0  0  0  0  0  0  0  0  0
    0.8350    2.0758    1.8327 O   0  0  0  0  0  0  0  0  0  0  0  0
   -1.3072    2.5119    1.3104 N   0  0  0  0  0  0  0  0  0  0  0  0
   -2.1235    2.1772    0.8104 H   0  0  0  0  0  0  0  0  0  0  0  0
   -1.3902    3.7429    2.0814 C   0  0  0  0  0  0  0  0  0  0  0  0
   -0.6454    4.4644    1.7304 H   0  0  0  0  0  0  0  0  0  0  0  0
   -2.3829    4.1889    1.9710 H   0  0  0  0  0  0  0  0  0  0  0  0
   -1.2165    3.5412    3.1432 H   0  0  0  0  0  0  0  0  0  0  0  0
  1  2  1  0  0  0  0
  2  3  1  0  0  0  0
  2  4  1  0  0  0  0
  2  5  1  0  0  0  0
  5  6  2  0  0  0  0
  5  7  1  0  0  0  0
  7  8  1  0  0  0  0
  7  9  1  0  0  0  0
  9 10  1  0  0  0  0
  9 11  1  0  0  0  0
  9 20  1  0  0  0  0
 11 12  1  0  0  0  0
 11 13  1  0  0  0  0
 11 14  1  0  0  0  0
 14 15  1  0  0  0  0
 14 16  1  0  0  0  0
 14 17  1  0  0  0  0
 17 18  1  0  0  0  0
 17 19  2  0  0  0  0
 20 21  2  0  0  0  0
 20 22  1  0  0  0  0
 22 23  1  0  0  0  0
 22 24  1  0  0  0  0
 24 25  1  0  0  0  0
 24 26  1  0  0  0  0
 24 27  1  0  0  0  0
M  CHG  1  18  -1
M  END
$$$$

  -OEChem-01062216073D

 27 26  0     1  0  0  0  0  0999 V2000
   -3.1468   -3.0053    1.0689 H   0  0  0  0  0  0  0  0  0  0  0  0
   -3.0179   -2.1278    0.4290 C   0  0  0  0  0  0  0  0  0  0  0  0
   -3.9373   -1.5376    0.4490 H   0  0  0  0  0  0  0  0  0  0  0  0
   -2.8319   -2.4635   -0.5947 H   0  0  0  0  0  0  0  0  0  0  0  0
   -1.8504   -1.2892    0.9171 C   0  0  0  0  0  0  0  0  0  0  0  0
   -1.2486   -1.6111    1.9291 O   0  0  0  0  0  0  0  0  0  0  0  0
   -1.5128   -0.1387    0.2368 N   0  0  0  0  0  0  0  0  0  0  0  0
   -1.9591   -0.0403   -0.6729 H   0  0  0  0  0  0  0  0  0  0  0  0
   -0.1724    0.4696    0.3445 C   0  0  1  0  0  0  0  0  0  0  0  0
    0.5570   -0.2320    0.7647 H   0  0  0  0  0  0  0  0  0  0  0  0
    0.2345    0.8271   -1.0944 C   0  0  0  0  0  0  0  0  0  0  0  0
   -0.5293    1.4651   -1.5526 H   0  0  0  0  0  0  0  0  0  0  0  0
    1.1698    1.3977   -1.0747 H   0  0  0  0  0  0  0  0  0  0  0  0
    0.4484   -0.4316   -1.9553 C   0  0  0  0  0  0  0  0  0  0  0  0
    1.2419   -1.0461   -1.5191 H   0  0  0  0  0  0  0  0  0  0  0  0
   -0.4614   -1.0370   -1.9880 H   0  0  0  0  0  0  0  0  0  0  0  0
    0.8246   -0.0521   -3.3856 C   0  0  0  0  0  0  0  0  0  0  0  0
   -0.1052    0.3787   -4.1138 O   0  5  0  0  0  0  0  0  0  0  0  0
    2.0144   -0.2048   -3.7535 O   0  0  0  0  0  0  0  0  0  0  0  0
   -0.1610    1.7370    1.2246 C   0  0  0  0  0  0  0  0  0  0  0  0
    0.8914    2.2202    1.6227 O   0  0  0  0  0  0  0  0  0  0  0  0
   -1.3496    2.3613    1.5555 N   0  0  0  0  0  0  0  0  0  0  0  0
   -2.1973    1.8831    1.2694 H   0  0  0  0  0  0  0  0  0  0  0  0
   -1.4395    3.5339    2.4126 C   0  0  0  0  0  0  0  0  0  0  0  0
   -0.8615    4.3621    1.9895 H   0  0  0  0  0  0  0  0  0  0  0  0
   -2.4818    3.8526    2.5052 H   0  0  0  0  0  0  0  0  0  0  0  0
   -1.0547    3.3071    3.4120 H   0  0  0  0  0  0  0  0  0  0  0  0
  1  2  1  0  0  0  0
  2  3  1  0  0  0  0
  2  4  1  0  0  0  0
  2  5  1  0  0  0  0
  5  6  2  0  0  0  0
  5  7  1  0  0  0  0
  7  8  1  0  0  0  0
  7  9  1  0  0  0  0
  9 10  1  0  0  0  0
  9 11  1  0  0  0  0
  9 20  1  0  0  0  0
 11 12  1  0  0  0  0
 11 13  1  0  0  0  0
 11 14  1  0  0  0  0
 14 15  1  0  0  0  0
 14 16  1  0  0  0  0
 14 17  1  0  0  0  0
 17 18  1  0  0  0  0
 17 19  2  0  0  0  0
 20 21  2  0  0  0  0
 20 22  1  0  0  0  0
 22 23  1  0  0  0  0
 22 24  1  0  0  0  0
 24 25  1  0  0  0  0
 24 26  1  0  0  0  0
 24 27  1  0  0  0  0
M  CHG  1  18  -1
M  END
$$$$

  -OEChem-01062216073D

 27 26  0     1  0  0  0  0  0999 V2000
   -3.1536   -2.9792    1.0593 H   0  0  0  0  0  0  0  0  0  0  0  0
   -3.0139   -2.1092    0.4116 C   0  0  0  0  0  0  0  0  0  0  0  0
   -3.9310   -1.5153    0.4152 H   0  0  0  0  0  0  0  0  0  0  0  0
   -2.8181   -2.4563   -0.6065 H   0  0  0  0  0  0  0  0  0  0  0  0
   -1.8484   -1.2697    0.9024 C   0  0  0  0  0  0  0  0  0  0  0  0
   -1.2594   -1.5782    1.9262 O   0  0  0  0  0  0  0  0  0  0  0  0
   -1.5087   -0.1182    0.2257 N   0  0  0  0  0  0  0  0  0  0  0  0
   -1.9603   -0.0094   -0.6803 H   0  0  0  0  0  0  0  0  0  0  0  0
   -0.1672    0.4888    0.3310 C   0  0  1  0  0  0  0  0  0  0  0  0
    0.5596   -0.2130    0.7548 H   0  0  0  0  0  0  0  0  0  0  0  0
    0.2401    0.8297   -1.1134 C   0  0  0  0  0  0  0  0  0  0  0  0
   -0.5227    1.4641   -1.5783 H   0  0  0  0  0  0  0  0  0  0  0  0
    1.1772    1.3974   -1.1032 H   0  0  0  0  0  0  0  0  0  0  0  0
    0.4511   -0.4414   -1.9575 C   0  0  0  0  0  0  0  0  0  0  0  0
    1.2440   -1.0508   -1.5133 H   0  0  0  0  0  0  0  0  0  0  0  0
   -0.4593   -1.0463   -1.9809 H   0  0  0  0  0  0  0  0  0  0  0  0
    0.8275   -0.0852   -3.3935 C   0  0  0  0  0  0  0  0  0  0  0  0
   -0.1065    0.3124   -4.1351 O   0  5  0  0  0  0  0  0  0  0  0  0
    2.0209   -0.2279   -3.7537 O   0  0  0  0  0  0  0  0  0  0  0  0
   -0.1547    1.7551    1.2157 C   0  0  0  0  0  0  0  0  0  0  0  0
    0.8790    2.3791    1.4201 O   0  0  0  0  0  0  0  0  0  0  0  0
   -1.3249    2.1970    1.8050 N   0  0  0  0  0  0  0  0  0  0  0  0
   -2.1253    1.5810    1.7057 H   0  0  0  0  0  0  0  0  0  0  0  0
   -1.3912    3.3121    2.7374 C   0  0  0  0  0  0  0  0  0  0  0  0
   -1.0096    4.2254    2.2695 H   0  0  0  0  0  0  0  0  0  0  0  0
   -2.4276    3.4871    3.0403 H   0  0  0  0  0  0  0  0  0  0  0  0
   -0.7982    3.0973    3.6321 H   0  0  0  0  0  0  0  0  0  0  0  0
  1  2  1  0  0  0  0
  2  3  1  0  0  0  0
  2  4  1  0  0  0  0
  2  5  1  0  0  0  0
  5  6  2  0  0  0  0
  5  7  1  0  0  0  0
  7  8  1  0  0  0  0
  7  9  1  0  0  0  0
  9 10  1  0  0  0  0
  9 11  1  0  0  0  0
  9 20  1  0  0  0  0
 11 12  1  0  0  0  0
 11 13  1  0  0  0  0
 11 14  1  0  0  0  0
 14 15  1  0  0  0  0
 14 16  1  0  0  0  0
 14 17  1  0  0  0  0
 17 18  1  0  0  0  0
 17 19  2  0  0  0  0
 20 21  2  0  0  0  0
 20 22  1  0  0  0  0
 22 23  1  0  0  0  0
 22 24  1  0  0  0  0
 24 25  1  0  0  0  0
 24 26  1  0  0  0  0
 24 27  1  0  0  0  0
M  CHG  1  18  -1
M  END
$$$$

  -OEChem-01062216073D

 27 26  0     1  0  0  0  0  0999 V2000
   -3.1235   -2.9783    1.0149 H   0  0  0  0  0  0  0  0  0  0  0  0
   -2.9995   -2.0956    0.3813 C   0  0  0  0  0  0  0  0  0  0  0  0
   -3.9296   -1.5219    0.3871 H   0  0  0  0  0  0  0  0  0  0  0  0
   -2.7896   -2.4234   -0.6404 H   0  0  0  0  0  0  0  0  0  0  0  0
   -1.8565   -1.2374    0.8921 C   0  0  0  0  0  0  0  0  0  0  0  0
   -1.2959   -1.5172    1.9402 O   0  0  0  0  0  0  0  0  0  0  0  0
   -1.5159   -0.0842    0.2207 N   0  0  0  0  0  0  0  0  0  0  0  0
   -1.9685    0.0294   -0.6843 H   0  0  0  0  0  0  0  0  0  0  0  0
   -0.1699    0.5133    0.3203 C   0  0  1  0  0  0  0  0  0  0  0  0
    0.5502   -0.1938    0.7458 H   0  0  0  0  0  0  0  0  0  0  0  0
    0.2432    0.8361   -1.1280 C   0  0  0  0  0  0  0  0  0  0  0  0
   -0.5131    1.4717   -1.6015 H   0  0  0  0  0  0  0  0  0  0  0  0
    1.1859    1.3945   -1.1256 H   0  0  0  0  0  0  0  0  0  0  0  0
    0.4444   -0.4484   -1.9549 C   0  0  0  0  0  0  0  0  0  0  0  0
    1.2302   -1.0591   -1.5002 H   0  0  0  0  0  0  0  0  0  0  0  0
   -0.4717   -1.0448   -1.9716 H   0  0  0  0  0  0  0  0  0  0  0  0
    0.8270   -0.1196   -3.3959 C   0  0  0  0  0  0  0  0  0  0  0  0
   -0.1034    0.2596   -4.1512 O   0  5  0  0  0  0  0  0  0  0  0  0
    2.0220   -0.2724   -3.7474 O   0  0  0  0  0  0  0  0  0  0  0  0
   -0.1536    1.7728    1.2168 C   0  0  0  0  0  0  0  0  0  0  0  0
    0.7974    2.5443    1.2318 O   0  0  0  0  0  0  0  0  0  0  0  0
   -1.2255    2.0289    2.0519 N   0  0  0  0  0  0  0  0  0  0  0  0
   -1.9062    1.2781    2.1243 H   0  0  0  0  0  0  0  0  0  0  0  0
   -1.2448    3.1032    3.0336 C   0  0  0  0  0  0  0  0  0  0  0  0
   -1.0942    4.0712    2.5448 H   0  0  0  0  0  0  0  0  0  0  0  0
   -2.2098    3.1239    3.5486 H   0  0  0  0  0  0  0  0  0  0  0  0
   -0.4556    2.9552    3.7776 H   0  0  0  0  0  0  0  0  0  0  0  0
  1  2  1  0  0  0  0
  2  3  1  0  0  0  0
  2  4  1  0  0  0  0
  2  5  1  0  0  0  0
  5  6  2  0  0  0  0
  5  7  1  0  0  0  0
  7  8  1  0  0  0  0
  7  9  1  0  0  0  0
  9 10  1  0  0  0  0
  9 11  1  0  0  0  0
  9 20  1  0  0  0  0
 11 12  1  0  0  0  0
 11 13  1  0  0  0  0
 11 14  1  0  0  0  0
 14 15  1  0  0  0  0
 14 16  1  0  0  0  0
 14 17  1  0  0  0  0
 17 18  1  0  0  0  0
 17 19  2  0  0  0  0
 20 21  2  0  0  0  0
 20 22  1  0  0  0  0
 22 23  1  0  0  0  0
 22 24  1  0  0  0  0
 24 25  1  0  0  0  0
 24 26  1  0  0  0  0
 24 27  1  0  0  0  0
M  CHG  1  18  -1
M  END
$$$$

  -OEChem-01062216073D

 27 26  0     1  0  0  0  0  0999 V2000
   -3.1034   -2.9567    0.9960 H   0  0  0  0  0  0  0  0  0  0  0  0
   -2.9931   -2.0655    0.3720 C   0  0  0  0  0  0  0  0  0  0  0  0
   -3.9304   -1.5039    0.3866 H   0  0  0  0  0  0  0  0  0  0  0  0
   -2.7825   -2.3798   -0.6539 H   0  0  0  0  0  0  0  0  0  0  0  0
   -1.8600   -1.1978    0.8888 C   0  0  0  0  0  0  0  0  0  0  0  0
   -1.3188   -1.4524    1.9545 O   0  0  0  0  0  0  0  0  0  0  0  0
   -1.5173   -0.0447    0.2203 N   0  0  0  0  0  0  0  0  0  0  0  0
   -1.9717    0.0719   -0.6834 H   0  0  0  0  0  0  0  0  0  0  0  0
   -0.1647    0.5370    0.3095 C   0  0  1  0  0  0  0  0  0  0  0  0
    0.5490   -0.1768    0.7344 H   0  0  0  0  0  0  0  0  0  0  0  0
    0.2538    0.8444   -1.1406 C   0  0  0  0  0  0  0  0  0  0  0  0
   -0.4941    1.4857   -1.6199 H   0  0  0  0  0  0  0  0  0  0  0  0
    1.2038    1.3898   -1.1422 H   0  0  0  0  0  0  0  0  0  0  0  0
    0.4380   -0.4523   -1.9527 C   0  0  0  0  0  0  0  0  0  0  0  0
    1.2149   -1.0682   -1.4895 H   0  0  0  0  0  0  0  0  0  0  0  0
   -0.4860   -1.0364   -1.9627 H   0  0  0  0  0  0  0  0  0  0  0  0
    0.8266   -0.1494   -3.3974 C   0  0  0  0  0  0  0  0  0  0  0  0
   -0.0995    0.2142   -4.1655 O   0  5  0  0  0  0  0  0  0  0  0  0
    2.0233   -0.3110   -3.7391 O   0  0  0  0  0  0  0  0  0  0  0  0
   -0.1460    1.7872    1.2185 C   0  0  0  0  0  0  0  0  0  0  0  0
    0.6532    2.7032    1.0684 O   0  0  0  0  0  0  0  0  0  0  0  0
   -1.0486    1.8585    2.2633 N   0  0  0  0  0  0  0  0  0  0  0  0
   -1.5637    0.9995    2.4461 H   0  0  0  0  0  0  0  0  0  0  0  0
   -1.0296    2.9039    3.2750 C   0  0  0  0  0  0  0  0  0  0  0  0
   -1.1471    3.8884    2.8109 H   0  0  0  0  0  0  0  0  0  0  0  0
   -1.8507    2.7561    3.9824 H   0  0  0  0  0  0  0  0  0  0  0  0
   -0.0849    2.8833    3.8278 H   0  0  0  0  0  0  0  0  0  0  0  0
  1  2  1  0  0  0  0
  2  3  1  0  0  0  0
  2  4  1  0  0  0  0
  2  5  1  0  0  0  0
  5  6  2  0  0  0  0
  5  7  1  0  0  0  0
  7  8  1  0  0  0  0
  7  9  1  0  0  0  0
  9 10  1  0  0  0  0
  9 11  1  0  0  0  0
  9 20  1  0  0  0  0
 11 12  1  0  0  0  0
 11 13  1  0  0  0  0
 11 14  1  0  0  0  0
 14 15  1  0  0  0  0
 14 16  1  0  0  0  0
 14 17  1  0  0  0  0
 17 18  1  0  0  0  0
 17 19  2  0  0  0  0
 20 21  2  0  0  0  0
 20 22  1  0  0  0  0
 22 23  1  0  0  0  0
 22 24  1  0  0  0  0
 24 25  1  0  0  0  0
 24 26  1  0  0  0  0
 24 27  1  0  0  0  0
M  CHG  1  18  -1
M  END
$$$$

  -OEChem-01062216073D

 27 26  0     1  0  0  0  0  0999 V2000
   -3.1362   -2.8967    1.0425 H   0  0  0  0  0  0  0  0  0  0  0  0
   -3.0071   -2.0202    0.4014 C   0  0  0  0  0  0  0  0  0  0  0  0
   -3.9297   -1.4344    0.4121 H   0  0  0  0  0  0  0  0  0  0  0  0
   -2.8116   -2.3573   -0.6202 H   0  0  0  0  0  0  0  0  0  0  0  0
   -1.8486   -1.1730    0.8949 C   0  0  0  0  0  0  0  0  0  0  0  0
   -1.2849   -1.4402    1.9471 O   0  0  0  0  0  0  0  0  0  0  0  0
   -1.5055   -0.0201    0.2266 N   0  0  0  0  0  0  0  0  0  0  0  0
   -1.9804    0.1157   -0.6636 H   0  0  0  0  0  0  0  0  0  0  0  0
   -0.1465    0.5453    0.2989 C   0  0  1  0  0  0  0  0  0  0  0  0
    0.5634   -0.1754    0.7181 H   0  0  0  0  0  0  0  0  0  0  0  0
    0.2745    0.8474   -1.1516 C   0  0  0  0  0  0  0  0  0  0  0  0
   -0.4665    1.4961   -1.6315 H   0  0  0  0  0  0  0  0  0  0  0  0
    1.2307    1.3821   -1.1530 H   0  0  0  0  0  0  0  0  0  0  0  0
    0.4411   -0.4528   -1.9614 C   0  0  0  0  0  0  0  0  0  0  0  0
    1.2111   -1.0777   -1.4989 H   0  0  0  0  0  0  0  0  0  0  0  0
   -0.4904   -1.0252   -1.9674 H   0  0  0  0  0  0  0  0  0  0  0  0
    0.8325   -0.1582   -3.4071 C   0  0  0  0  0  0  0  0  0  0  0  0
   -0.1012    0.1277   -4.1981 O   0  5  0  0  0  0  0  0  0  0  0  0
    2.0438   -0.2426   -3.7243 O   0  0  0  0  0  0  0  0  0  0  0  0
   -0.1235    1.7862    1.2181 C   0  0  0  0  0  0  0  0  0  0  0  0
    0.4655    2.8232    0.9384 O   0  0  0  0  0  0  0  0  0  0  0  0
   -0.7863    1.7004    2.4281 N   0  0  0  0  0  0  0  0  0  0  0  0
   -1.1664    0.7819    2.6569 H   0  0  0  0  0  0  0  0  0  0  0  0
   -0.7664    2.7421    3.4431 C   0  0  0  0  0  0  0  0  0  0  0  0
   -1.1681    3.6771    3.0393 H   0  0  0  0  0  0  0  0  0  0  0  0
   -1.3796    2.4436    4.2985 H   0  0  0  0  0  0  0  0  0  0  0  0
    0.2565    2.9163    3.7921 H   0  0  0  0  0  0  0  0  0  0  0  0
  1  2  1  0  0  0  0
  2  3  1  0  0  0  0
  2  4  1  0  0  0  0
  2  5  1  0  0  0  0
  5  6  2  0  0  0  0
  5  7  1  0  0  0  0
  7  8  1  0  0  0  0
  7  9  1  0  0  0  0
  9 10  1  0  0  0  0
  9 11  1  0  0  0  0
  9 20  1  0  0  0  0
 11 12  1  0  0  0  0
 11 13  1  0  0  0  0
 11 14  1  0  0  0  0
 14 15  1  0  0  0  0
 14 16  1  0  0  0  0
 14 17  1  0  0  0  0
 17 18  1  0  0  0  0
 17 19  2  0  0  0  0
 20 21  2  0  0  0  0
 20 22  1  0  0  0  0
 22 23  1  0  0  0  0
 22 24  1  0  0  0  0
 24 25  1  0  0  0  0
 24 26  1  0  0  0  0
 24 27  1  0  0  0  0
M  CHG  1  18  -1
M  END
$$$$

  -OEChem-01062216073D

 27 26  0     1  0  0  0  0  0999 V2000
   -3.1318   -2.8571    1.0698 H   0  0  0  0  0  0  0  0  0  0  0  0
   -3.0137   -1.9701    0.4411 C   0  0  0  0  0  0  0  0  0  0  0  0
   -3.9274   -1.3730    0.4945 H   0  0  0  0  0  0  0  0  0  0  0  0
   -2.8578   -2.2903   -0.5926 H   0  0  0  0  0  0  0  0  0  0  0  0
   -1.8276   -1.1473    0.9097 C   0  0  0  0  0  0  0  0  0  0  0  0
   -1.2348   -1.4392    1.9401 O   0  0  0  0  0  0  0  0  0  0  0  0
   -1.4783    0.0026    0.2388 N   0  0  0  0  0  0  0  0  0  0  0  0
   -1.9707    0.1583   -0.6383 H   0  0  0  0  0  0  0  0  0  0  0  0
   -0.1103    0.5430    0.2937 C   0  0  1  0  0  0  0  0  0  0  0  0
    0.5953   -0.1890    0.7009 H   0  0  0  0  0  0  0  0  0  0  0  0
    0.3039    0.8440   -1.1584 C   0  0  0  0  0  0  0  0  0  0  0  0
   -0.4305    1.5065   -1.6299 H   0  0  0  0  0  0  0  0  0  0  0  0
    1.2683    1.3634   -1.1643 H   0  0  0  0  0  0  0  0  0  0  0  0
    0.4400   -0.4562   -1.9737 C   0  0  0  0  0  0  0  0  0  0  0  0
    1.2022   -1.0969   -1.5201 H   0  0  0  0  0  0  0  0  0  0  0  0
   -0.5020   -1.0114   -1.9730 H   0  0  0  0  0  0  0  0  0  0  0  0
    0.8249   -0.1649   -3.4217 C   0  0  0  0  0  0  0  0  0  0  0  0
   -0.1099    0.1264   -4.2094 O   0  5  0  0  0  0  0  0  0  0  0  0
    2.0348   -0.2569   -3.7432 O   0  0  0  0  0  0  0  0  0  0  0  0
   -0.0685    1.7765    1.2188 C   0  0  0  0  0  0  0  0  0  0  0  0
    0.2765    2.8932    0.8517 O   0  0  0  0  0  0  0  0  0  0  0  0
   -0.4383    1.5852    2.5363 N   0  0  0  0  0  0  0  0  0  0  0  0
   -0.7533    0.6448    2.7785 H   0  0  0  0  0  0  0  0  0  0  0  0
   -0.4853    2.6416    3.5350 C   0  0  0  0  0  0  0  0  0  0  0  0
   -1.2146    3.4061    3.2489 H   0  0  0  0  0  0  0  0  0  0  0  0
   -0.7780    2.2278    4.5044 H   0  0  0  0  0  0  0  0  0  0  0  0
    0.4980    3.1107    3.6420 H   0  0  0  0  0  0  0  0  0  0  0  0
  1  2  1  0  0  0  0
  2  3  1  0  0  0  0
  2  4  1  0  0  0  0
  2  5  1  0  0  0  0
  5  6  2  0  0  0  0
  5  7  1  0  0  0  0
  7  8  1  0  0  0  0
  7  9  1  0  0  0  0
  9 10  1  0  0  0  0
  9 11  1  0  0  0  0
  9 20  1  0  0  0  0
 11 12  1  0  0  0  0
 11 13  1  0  0  0  0
 11 14  1  0  0  0  0
 14 15  1  0  0  0  0
 14 16  1  0  0  0  0
 14 17  1  0  0  0  0
 17 18  1  0  0  0  0
 17 19  2  0  0  0  0
 20 21  2  0  0  0  0
 20 22  1  0  0  0  0
 22 23  1  0  0  0  0
 22 24  1  0  0  0  0
 24 25  1  0  0  0  0
 24 26  1  0  0  0  0
 24 27  1  0  0  0  0
M  CHG  1  18  -1
M  END
$$$$

  -OEChem-01062216073D

 27 26  0     1  0  0  0  0  0999 V2000
   -3.1711   -2.7995    1.1391 H   0  0  0  0  0  0  0  0  0  0  0  0
   -3.0345   -1.9304    0.4898 C   0  0  0  0  0  0  0  0  0  0  0  0
   -3.9251   -1.2998    0.5502 H   0  0  0  0  0  0  0  0  0  0  0  0
   -2.9121   -2.2762   -0.5402 H   0  0  0  0  0  0  0  0  0  0  0  0
   -1.8106   -1.1411    0.9171 C   0  0  0  0  0  0  0  0  0  0  0  0
   -1.1782   -1.4650    1.9145 O   0  0  0  0  0  0  0  0  0  0  0  0
   -1.4607    0.0051    0.2395 N   0  0  0  0  0  0  0  0  0  0  0  0
   -1.9755    0.1824   -0.6202 H   0  0  0  0  0  0  0  0  0  0  0  0
   -0.0917    0.5389    0.2825 C   0  0  1  0  0  0  0  0  0  0  0  0
    0.6154   -0.1954    0.6824 H   0  0  0  0  0  0  0  0  0  0  0  0
    0.3208    0.8423   -1.1690 C   0  0  0  0  0  0  0  0  0  0  0  0
   -0.4130    1.5075   -1.6377 H   0  0  0  0  0  0  0  0  0  0  0  0
    1.2860    1.3605   -1.1738 H   0  0  0  0  0  0  0  0  0  0  0  0
    0.4494   -0.4552   -1.9888 C   0  0  0  0  0  0  0  0  0  0  0  0
    1.2104   -1.1012   -1.5409 H   0  0  0  0  0  0  0  0  0  0  0  0
   -0.4953   -1.0060   -1.9856 H   0  0  0  0  0  0  0  0  0  0  0  0
    0.8332   -0.1602   -3.4364 C   0  0  0  0  0  0  0  0  0  0  0  0
   -0.1071   -0.0144   -4.2570 O   0  5  0  0  0  0  0  0  0  0  0  0
    2.0540   -0.0909   -3.7207 O   0  0  0  0  0  0  0  0  0  0  0  0
   -0.0413    1.7740    1.2024 C   0  0  0  0  0  0  0  0  0  0  0  0
    0.0341    2.9259    0.7911 O   0  0  0  0  0  0  0  0  0  0  0  0
   -0.0895    1.5423    2.5637 N   0  0  0  0  0  0  0  0  0  0  0  0
   -0.3055    0.5838    2.8388 H   0  0  0  0  0  0  0  0  0  0  0  0
   -0.1572    2.6001    3.5599 C   0  0  0  0  0  0  0  0  0  0  0  0
   -1.0788    3.1783    3.4407 H   0  0  0  0  0  0  0  0  0  0  0  0
   -0.1427    2.1695    4.5654 H   0  0  0  0  0  0  0  0  0  0  0  0
    0.6998    3.2742    3.4615 H   0  0  0  0  0  0  0  0  0  0  0  0
  1  2  1  0  0  0  0
  2  3  1  0  0  0  0
  2  4  1  0  0  0  0
  2  5  1  0  0  0  0
  5  6  2  0  0  0  0
  5  7  1  0  0  0  0
  7  8  1  0  0  0  0
  7  9  1  0  0  0  0
  9 10  1  0  0  0  0
  9 11  1  0  0  0  0
  9 20  1  0  0  0  0
 11 12  1  0  0  0  0
 11 13  1  0  0  0  0
 11 14  1  0  0  0  0
 14 15  1  0  0  0  0
 14 16  1  0  0  0  0
 14 17  1  0  0  0  0
 17 18  1  0  0  0  0
 17 19  2  0  0  0  0
 20 21  2  0  0  0  0
 20 22  1  0  0  0  0
 22 23  1  0  0  0  0
 22 24  1  0  0  0  0
 24 25  1  0  0  0  0
 24 26  1  0  0  0  0
 24 27  1  0  0  0  0
M  CHG  1  18  -1
M  END
$$$$

  -OEChem-01062216073D

 27 26  0     1  0  0  0  0  0999 V2000
   -3.2148   -2.7712    1.1924 H   0  0  0  0  0  0  0  0  0  0  0  0
   -3.0676   -1.9140    0.5296 C   0  0  0  0  0  0  0  0  0  0  0  0
   -3.9350   -1.2538    0.6078 H   0  0  0  0  0  0  0  0  0  0  0  0
   -2.9859   -2.2743   -0.4993 H   0  0  0  0  0  0  0  0  0  0  0  0
   -1.8062   -1.1618    0.9131 C   0  0  0  0  0  0  0  0  0  0  0  0
   -1.1309   -1.5307    1.8658 O   0  0  0  0  0  0  0  0  0  0  0  0
   -1.4580   -0.0162    0.2327 N   0  0  0  0  0  0  0  0  0  0  0  0
   -2.0031    0.1951   -0.6000 H   0  0  0  0  0  0  0  0  0  0  0  0
   -0.0950    0.5304    0.2714 C   0  0  1  0  0  0  0  0  0  0  0  0
    0.6173   -0.2000    0.6690 H   0  0  0  0  0  0  0  0  0  0  0  0
    0.3238    0.8413   -1.1763 C   0  0  0  0  0  0  0  0  0  0  0  0
   -0.4138    1.5001   -1.6479 H   0  0  0  0  0  0  0  0  0  0  0  0
    1.2834    1.3698   -1.1727 H   0  0  0  0  0  0  0  0  0  0  0  0
    0.4696   -0.4504   -2.0016 C   0  0  0  0  0  0  0  0  0  0  0  0
    1.2330   -1.0934   -1.5536 H   0  0  0  0  0  0  0  0  0  0  0  0
   -0.4710   -1.0083   -2.0061 H   0  0  0  0  0  0  0  0  0  0  0  0
    0.8606   -0.1426   -3.4451 C   0  0  0  0  0  0  0  0  0  0  0  0
   -0.0636   -0.1108   -4.2957 O   0  5  0  0  0  0  0  0  0  0  0  0
    2.0745    0.0600   -3.6939 O   0  0  0  0  0  0  0  0  0  0  0  0
   -0.0436    1.7725    1.1818 C   0  0  0  0  0  0  0  0  0  0  0  0
   -0.2583    2.9086    0.7749 O   0  0  0  0  0  0  0  0  0  0  0  0
    0.2354    1.5757    2.5210 N   0  0  0  0  0  0  0  0  0  0  0  0
    0.2028    0.6086    2.8385 H   0  0  0  0  0  0  0  0  0  0  0  0
    0.1916    2.6415    3.5108 C   0  0  0  0  0  0  0  0  0  0  0  0
   -0.8216    3.0484    3.5891 H   0  0  0  0  0  0  0  0  0  0  0  0
    0.4896    2.2561    4.4903 H   0  0  0  0  0  0  0  0  0  0  0  0
    0.8780    3.4487    3.2353 H   0  0  0  0  0  0  0  0  0  0  0  0
  1  2  1  0  0  0  0
  2  3  1  0  0  0  0
  2  4  1  0  0  0  0
  2  5  1  0  0  0  0
  5  6  2  0  0  0  0
  5  7  1  0  0  0  0
  7  8  1  0  0  0  0
  7  9  1  0  0  0  0
  9 10  1  0  0  0  0
  9 11  1  0  0  0  0
  9 20  1  0  0  0  0
 11 12  1  0  0  0  0
 11 13  1  0  0  0  0
 11 14  1  0  0  0  0
 14 15  1  0  0  0  0
 14 16  1  0  0  0  0
 14 17  1  0  0  0  0
 17 18  1  0  0  0  0
 17 19  2  0  0  0  0
 20 21  2  0  0  0  0
 20 22  1  0  0  0  0
 22 23  1  0  0  0  0
 22 24  1  0  0  0  0
 24 25  1  0  0  0  0
 24 26  1  0  0  0  0
 24 27  1  0  0  0  0
M  CHG  1  18  -1
M  END
$$$$

  -OEChem-01062216073D

 27 26  0     1  0  0  0  0  0999 V2000
   -3.2587   -2.7588    1.2254 H   0  0  0  0  0  0  0  0  0  0  0  0
   -3.1088   -1.8990    0.5667 C   0  0  0  0  0  0  0  0  0  0  0  0
   -3.9465   -1.2083    0.6913 H   0  0  0  0  0  0  0  0  0  0  0  0
   -3.0861   -2.2478   -0.4691 H   0  0  0  0  0  0  0  0  0  0  0  0
   -1.8043   -1.1990    0.9033 C   0  0  0  0  0  0  0  0  0  0  0  0
   -1.0920   -1.6227    1.8042 O   0  0  0  0  0  0  0  0  0  0  0  0
   -1.4503   -0.0540    0.2249 N   0  0  0  0  0  0  0  0  0  0  0  0
   -2.0374    0.2149   -0.5606 H   0  0  0  0  0  0  0  0  0  0  0  0
   -0.0963    0.5141    0.2623 C   0  0  1  0  0  0  0  0  0  0  0  0
    0.6221   -0.2100    0.6592 H   0  0  0  0  0  0  0  0  0  0  0  0
    0.3243    0.8392   -1.1808 C   0  0  0  0  0  0  0  0  0  0  0  0
   -0.4221    1.4889   -1.6511 H   0  0  0  0  0  0  0  0  0  0  0  0
    1.2748    1.3838   -1.1694 H   0  0  0  0  0  0  0  0  0  0  0  0
    0.4944   -0.4439   -2.0142 C   0  0  0  0  0  0  0  0  0  0  0  0
    1.2667   -1.0770   -1.5678 H   0  0  0  0  0  0  0  0  0  0  0  0
   -0.4377   -1.0160   -2.0234 H   0  0  0  0  0  0  0  0  0  0  0  0
    0.8879   -0.1225   -3.4544 C   0  0  0  0  0  0  0  0  0  0  0  0
   -0.0024   -0.2325   -4.3340 O   0  5  0  0  0  0  0  0  0  0  0  0
    2.0710    0.2394   -3.6702 O   0  0  0  0  0  0  0  0  0  0  0  0
   -0.0507    1.7653    1.1614 C   0  0  0  0  0  0  0  0  0  0  0  0
   -0.5537    2.8305    0.8211 O   0  0  0  0  0  0  0  0  0  0  0  0
    0.5309    1.6663    2.4117 N   0  0  0  0  0  0  0  0  0  0  0  0
    0.7602    0.7266    2.7244 H   0  0  0  0  0  0  0  0  0  0  0  0
    0.5087    2.7448    3.3887 C   0  0  0  0  0  0  0  0  0  0  0  0
   -0.5216    2.9831    3.6716 H   0  0  0  0  0  0  0  0  0  0  0  0
    1.0572    2.4483    4.2875 H   0  0  0  0  0  0  0  0  0  0  0  0
    0.9805    3.6433    2.9778 H   0  0  0  0  0  0  0  0  0  0  0  0
  1  2  1  0  0  0  0
  2  3  1  0  0  0  0
  2  4  1  0  0  0  0
  2  5  1  0  0  0  0
  5  6  2  0  0  0  0
  5  7  1  0  0  0  0
  7  8  1  0  0  0  0
  7  9  1  0  0  0  0
  9 10  1  0  0  0  0
  9 11  1  0  0  0  0
  9 20  1  0  0  0  0
 11 12  1  0  0  0  0
 11 13  1  0  0  0  0
 11 14  1  0  0  0  0
 14 15  1  0  0  0  0
 14 16  1  0  0  0  0
 14 17  1  0  0  0  0
 17 18  1  0  0  0  0
 17 19  2  0  0  0  0
 20 21  2  0  0  0  0
 20 22  1  0  0  0  0
 22 23  1  0  0  0  0
 22 24  1  0  0  0  0
 24 25  1  0  0  0  0
 24 26  1  0  0  0  0
 24 27  1  0  0  0  0
M  CHG  1  18  -1
M  END
$$$$

  -OEChem-01062216073D

 27 26  0     1  0  0  0  0  0999 V2000
   -3.2974   -2.7538    1.2645 H   0  0  0  0  0  0  0  0  0  0  0  0
   -3.1495   -1.8931    0.6065 C   0  0  0  0  0  0  0  0  0  0  0  0
   -3.9563   -1.1759    0.7761 H   0  0  0  0  0  0  0  0  0  0  0  0
   -3.1865   -2.2323   -0.4320 H   0  0  0  0  0  0  0  0  0  0  0  0
   -1.8079   -1.2408    0.8874 C   0  0  0  0  0  0  0  0  0  0  0  0
   -1.0616   -1.7141    1.7338 O   0  0  0  0  0  0  0  0  0  0  0  0
   -1.4553   -0.0935    0.2121 N   0  0  0  0  0  0  0  0  0  0  0  0
   -2.0907    0.2408   -0.5075 H   0  0  0  0  0  0  0  0  0  0  0  0
   -0.1128    0.5013    0.2518 C   0  0  1  0  0  0  0  0  0  0  0  0
    0.6103   -0.2134    0.6565 H   0  0  0  0  0  0  0  0  0  0  0  0
    0.3193    0.8367   -1.1844 C   0  0  0  0  0  0  0  0  0  0  0  0
   -0.4341    1.4733   -1.6615 H   0  0  0  0  0  0  0  0  0  0  0  0
    1.2589    1.3996   -1.1601 H   0  0  0  0  0  0  0  0  0  0  0  0
    0.5250   -0.4385   -2.0212 C   0  0  0  0  0  0  0  0  0  0  0  0
    1.3036   -1.0594   -1.5688 H   0  0  0  0  0  0  0  0  0  0  0  0
   -0.3959   -1.0284   -2.0452 H   0  0  0  0  0  0  0  0  0  0  0  0
    0.9306   -0.0976   -3.4537 C   0  0  0  0  0  0  0  0  0  0  0  0
    0.0655   -0.2442   -4.3527 O   0  5  0  0  0  0  0  0  0  0  0  0
    2.0982    0.3254   -3.6422 O   0  0  0  0  0  0  0  0  0  0  0  0
   -0.0797    1.7600    1.1415 C   0  0  0  0  0  0  0  0  0  0  0  0
   -0.8230    2.7129    0.9316 O   0  0  0  0  0  0  0  0  0  0  0  0
    0.7586    1.7940    2.2409 N   0  0  0  0  0  0  0  0  0  0  0  0
    1.2654    0.9408    2.4563 H   0  0  0  0  0  0  0  0  0  0  0  0
    0.7831    2.8900    3.1983 C   0  0  0  0  0  0  0  0  0  0  0  0
   -0.1811    2.9713    3.7102 H   0  0  0  0  0  0  0  0  0  0  0  0
    1.5616    2.7169    3.9470 H   0  0  0  0  0  0  0  0  0  0  0  0
    0.9970    3.8366    2.6915 H   0  0  0  0  0  0  0  0  0  0  0  0
  1  2  1  0  0  0  0
  2  3  1  0  0  0  0
  2  4  1  0  0  0  0
  2  5  1  0  0  0  0
  5  6  2  0  0  0  0
  5  7  1  0  0  0  0
  7  8  1  0  0  0  0
  7  9  1  0  0  0  0
  9 10  1  0  0  0  0
  9 11  1  0  0  0  0
  9 20  1  0  0  0  0
 11 12  1  0  0  0  0
 11 13  1  0  0  0  0
 11 14  1  0  0  0  0
 14 15  1  0  0  0  0
 14 16  1  0  0  0  0
 14 17  1  0  0  0  0
 17 18  1  0  0  0  0
 17 19  2  0  0  0  0
 20 21  2  0  0  0  0
 20 22  1  0  0  0  0
 22 23  1  0  0  0  0
 22 24  1  0  0  0  0
 24 25  1  0  0  0  0
 24 26  1  0  0  0  0
 24 27  1  0  0  0  0
M  CHG  1  18  -1
M  END
$$$$

  -OEChem-01062216073D

 27 26  0     1  0  0  0  0  0999 V2000
   -3.2198   -2.8739    1.2515 H   0  0  0  0  0  0  0  0  0  0  0  0
   -3.1303   -1.9557    0.6646 C   0  0  0  0  0  0  0  0  0  0  0  0
   -3.9100   -1.2574    0.9785 H   0  0  0  0  0  0  0  0  0  0  0  0
   -3.2720   -2.1971   -0.3920 H   0  0  0  0  0  0  0  0  0  0  0  0
   -1.7622   -1.3309    0.8706 C   0  0  0  0  0  0  0  0  0  0  0  0
   -0.9670   -1.8422    1.6467 O   0  0  0  0  0  0  0  0  0  0  0  0
   -1.4433   -0.1694    0.2029 N   0  0  0  0  0  0  0  0  0  0  0  0
   -2.1553    0.2471   -0.3903 H   0  0  0  0  0  0  0  0  0  0  0  0
   -0.1313    0.4900    0.2498 C   0  0  1  0  0  0  0  0  0  0  0  0
    0.6161   -0.1928    0.6651 H   0  0  0  0  0  0  0  0  0  0  0  0
    0.3048    0.8571   -1.1770 C   0  0  0  0  0  0  0  0  0  0  0  0
   -0.4754    1.4621   -1.6522 H   0  0  0  0  0  0  0  0  0  0  0  0
    1.2148    1.4652   -1.1366 H   0  0  0  0  0  0  0  0  0  0  0  0
    0.5859   -0.3975   -2.0296 C   0  0  0  0  0  0  0  0  0  0  0  0
    1.3811   -0.9803   -1.5557 H   0  0  0  0  0  0  0  0  0  0  0  0
   -0.3117   -1.0204   -2.0704 H   0  0  0  0  0  0  0  0  0  0  0  0
    1.0029   -0.0830   -3.4716 C   0  0  0  0  0  0  0  0  0  0  0  0
    0.8714    1.0890   -3.9063 O   0  5  0  0  0  0  0  0  0  0  0  0
    1.4509   -1.0442   -4.1435 O   0  0  0  0  0  0  0  0  0  0  0  0
   -0.1560    1.7522    1.1354 C   0  0  0  0  0  0  0  0  0  0  0  0
   -1.1017    2.5336    1.1056 O   0  0  0  0  0  0  0  0  0  0  0  0
    0.8679    1.9775    2.0374 N   0  0  0  0  0  0  0  0  0  0  0  0
    1.6220    1.2985    2.0630 H   0  0  0  0  0  0  0  0  0  0  0  0
    0.9160    3.1257    2.9305 C   0  0  0  0  0  0  0  0  0  0  0  0
    0.0551    3.1207    3.6065 H   0  0  0  0  0  0  0  0  0  0  0  0
    1.8292    3.0955    3.5319 H   0  0  0  0  0  0  0  0  0  0  0  0
    0.9106    4.0575    2.3557 H   0  0  0  0  0  0  0  0  0  0  0  0
  1  2  1  0  0  0  0
  2  3  1  0  0  0  0
  2  4  1  0  0  0  0
  2  5  1  0  0  0  0
  5  6  2  0  0  0  0
  5  7  1  0  0  0  0
  7  8  1  0  0  0  0
  7  9  1  0  0  0  0
  9 10  1  0  0  0  0
  9 11  1  0  0  0  0
  9 20  1  0  0  0  0
 11 12  1  0  0  0  0
 11 13  1  0  0  0  0
 11 14  1  0  0  0  0
 14 15  1  0  0  0  0
 14 16  1  0  0  0  0
 14 17  1  0  0  0  0
 17 18  1  0  0  0  0
 17 19  2  0  0  0  0
 20 21  2  0  0  0  0
 20 22  1  0  0  0  0
 22 23  1  0  0  0  0
 22 24  1  0  0  0  0
 24 25  1  0  0  0  0
 24 26  1  0  0  0  0
 24 27  1  0  0  0  0
M  CHG  1  18  -1
M  END
$$$$

  -OEChem-01062216073D

 27 26  0     1  0  0  0  0  0999 V2000
   -3.1789   -2.9429    1.2821 H   0  0  0  0  0  0  0  0  0  0  0  0
   -3.1108   -2.0176    0.7033 C   0  0  0  0  0  0  0  0  0  0  0  0
   -3.8830   -1.3262    1.0495 H   0  0  0  0  0  0  0  0  0  0  0  0
   -3.2843   -2.2479   -0.3510 H   0  0  0  0  0  0  0  0  0  0  0  0
   -1.7390   -1.3900    0.8743 C   0  0  0  0  0  0  0  0  0  0  0  0
   -0.9262   -1.9009    1.6321 O   0  0  0  0  0  0  0  0  0  0  0  0
   -1.4379   -0.2296    0.1958 N   0  0  0  0  0  0  0  0  0  0  0  0
   -2.1703    0.1888   -0.3705 H   0  0  0  0  0  0  0  0  0  0  0  0
   -0.1443    0.4661    0.2562 C   0  0  1  0  0  0  0  0  0  0  0  0
    0.6134   -0.1921    0.6928 H   0  0  0  0  0  0  0  0  0  0  0  0
    0.3011    0.8322   -1.1676 C   0  0  0  0  0  0  0  0  0  0  0  0
   -0.4872    1.4098   -1.6627 H   0  0  0  0  0  0  0  0  0  0  0  0
    1.1940    1.4652   -1.1207 H   0  0  0  0  0  0  0  0  0  0  0  0
    0.6281   -0.4138   -2.0055 C   0  0  0  0  0  0  0  0  0  0  0  0
    1.4408   -0.9759   -1.5365 H   0  0  0  0  0  0  0  0  0  0  0  0
   -0.2431   -1.0727   -2.0635 H   0  0  0  0  0  0  0  0  0  0  0  0
    1.0435   -0.0121   -3.4191 C   0  0  0  0  0  0  0  0  0  0  0  0
    2.2216    0.3936   -3.5804 O   0  5  0  0  0  0  0  0  0  0  0  0
    0.1771   -0.0817   -4.3257 O   0  0  0  0  0  0  0  0  0  0  0  0
   -0.2024    1.7432    1.1196 C   0  0  0  0  0  0  0  0  0  0  0  0
   -1.2437    2.3793    1.2531 O   0  0  0  0  0  0  0  0  0  0  0  0
    0.9301    2.1652    1.7916 N   0  0  0  0  0  0  0  0  0  0  0  0
    1.7907    1.6581    1.6084 H   0  0  0  0  0  0  0  0  0  0  0  0
    0.9832    3.3793    2.5929 C   0  0  0  0  0  0  0  0  0  0  0  0
    0.2710    3.3219    3.4224 H   0  0  0  0  0  0  0  0  0  0  0  0
    1.9869    3.5115    3.0076 H   0  0  0  0  0  0  0  0  0  0  0  0
    0.7435    4.2535    1.9789 H   0  0  0  0  0  0  0  0  0  0  0  0
  1  2  1  0  0  0  0
  2  3  1  0  0  0  0
  2  4  1  0  0  0  0
  2  5  1  0  0  0  0
  5  6  2  0  0  0  0
  5  7  1  0  0  0  0
  7  8  1  0  0  0  0
  7  9  1  0  0  0  0
  9 10  1  0  0  0  0
  9 11  1  0  0  0  0
  9 20  1  0  0  0  0
 11 12  1  0  0  0  0
 11 13  1  0  0  0  0
 11 14  1  0  0  0  0
 14 15  1  0  0  0  0
 14 16  1  0  0  0  0
 14 17  1  0  0  0  0
 17 18  1  0  0  0  0
 17 19  2  0  0  0  0
 20 21  2  0  0  0  0
 20 22  1  0  0  0  0
 22 23  1  0  0  0  0
 22 24  1  0  0  0  0
 24 25  1  0  0  0  0
 24 26  1  0  0  0  0
 24 27  1  0  0  0  0
M  CHG  1  18  -1
M  END
$$$$

  -OEChem-01062216073D

 27 26  0     1  0  0  0  0  0999 V2000
   -3.1777   -2.9559    1.2649 H   0  0  0  0  0  0  0  0  0  0  0  0
   -3.1192   -2.0117    0.7163 C   0  0  0  0  0  0  0  0  0  0  0  0
   -3.8731   -1.3258    1.1107 H   0  0  0  0  0  0  0  0  0  0  0  0
   -3.3288   -2.2044   -0.3390 H   0  0  0  0  0  0  0  0  0  0  0  0
   -1.7369   -1.4016    0.8652 C   0  0  0  0  0  0  0  0  0  0  0  0
   -0.9144   -1.9319    1.5988 O   0  0  0  0  0  0  0  0  0  0  0  0
   -1.4355   -0.2408    0.1872 N   0  0  0  0  0  0  0  0  0  0  0  0
   -2.1819    0.2000   -0.3420 H   0  0  0  0  0  0  0  0  0  0  0  0
   -0.1454    0.4617    0.2605 C   0  0  1  0  0  0  0  0  0  0  0  0
    0.6135   -0.1894    0.7054 H   0  0  0  0  0  0  0  0  0  0  0  0
    0.3041    0.8255   -1.1635 C   0  0  0  0  0  0  0  0  0  0  0  0
   -0.4859    1.3972   -1.6630 H   0  0  0  0  0  0  0  0  0  0  0  0
    1.1935    1.4632   -1.1186 H   0  0  0  0  0  0  0  0  0  0  0  0
    0.6422   -0.4184   -1.9987 C   0  0  0  0  0  0  0  0  0  0  0  0
    1.4576   -0.9748   -1.5273 H   0  0  0  0  0  0  0  0  0  0  0  0
   -0.2241   -1.0835   -2.0608 H   0  0  0  0  0  0  0  0  0  0  0  0
    1.0595   -0.0079   -3.4089 C   0  0  0  0  0  0  0  0  0  0  0  0
    2.2268    0.4326   -3.5581 O   0  5  0  0  0  0  0  0  0  0  0  0
    0.2017   -0.0936   -4.3220 O   0  0  0  0  0  0  0  0  0  0  0  0
   -0.2105    1.7427    1.1197 C   0  0  0  0  0  0  0  0  0  0  0  0
   -1.2820    2.2425    1.4506 O   0  0  0  0  0  0  0  0  0  0  0  0
    0.9637    2.3395    1.5420 N   0  0  0  0  0  0  0  0  0  0  0  0
    1.8294    1.9630    1.1662 H   0  0  0  0  0  0  0  0  0  0  0  0
    1.0057    3.5864    2.2916 C   0  0  0  0  0  0  0  0  0  0  0  0
    0.4483    3.4882    3.2287 H   0  0  0  0  0  0  0  0  0  0  0  0
    2.0412    3.8451    2.5319 H   0  0  0  0  0  0  0  0  0  0  0  0
    0.5712    4.4011    1.7033 H   0  0  0  0  0  0  0  0  0  0  0  0
  1  2  1  0  0  0  0
  2  3  1  0  0  0  0
  2  4  1  0  0  0  0
  2  5  1  0  0  0  0
  5  6  2  0  0  0  0
  5  7  1  0  0  0  0
  7  8  1  0  0  0  0
  7  9  1  0  0  0  0
  9 10  1  0  0  0  0
  9 11  1  0  0  0  0
  9 20  1  0  0  0  0
 11 12  1  0  0  0  0
 11 13  1  0  0  0  0
 11 14  1  0  0  0  0
 14 15  1  0  0  0  0
 14 16  1  0  0  0  0
 14 17  1  0  0  0  0
 17 18  1  0  0  0  0
 17 19  2  0  0  0  0
 20 21  2  0  0  0  0
 20 22  1  0  0  0  0
 22 23  1  0  0  0  0
 22 24  1  0  0  0  0
 24 25  1  0  0  0  0
 24 26  1  0  0  0  0
 24 27  1  0  0  0  0
M  CHG  1  18  -1
M  END
$$$$

  -OEChem-01062216073D

 27 26  0     1  0  0  0  0  0999 V2000
   -3.1734   -2.9312    1.2885 H   0  0  0  0  0  0  0  0  0  0  0  0
   -3.1221   -1.9784    0.7546 C   0  0  0  0  0  0  0  0  0  0  0  0
   -3.8208   -1.2763    1.2166 H   0  0  0  0  0  0  0  0  0  0  0  0
   -3.4145   -2.1414   -0.2859 H   0  0  0  0  0  0  0  0  0  0  0  0
   -1.7124   -1.4175    0.8130 C   0  0  0  0  0  0  0  0  0  0  0  0
   -0.8470   -2.0106    1.4420 O   0  0  0  0  0  0  0  0  0  0  0  0
   -1.4238   -0.2490    0.1423 N   0  0  0  0  0  0  0  0  0  0  0  0
   -2.1998    0.2430   -0.2897 H   0  0  0  0  0  0  0  0  0  0  0  0
   -0.1351    0.4526    0.2372 C   0  0  1  0  0  0  0  0  0  0  0  0
    0.6690   -0.2656    0.4269 H   0  0  0  0  0  0  0  0  0  0  0  0
    0.1351    1.1407   -1.1121 C   0  0  0  0  0  0  0  0  0  0  0  0
   -0.7116    1.7861   -1.3701 H   0  0  0  0  0  0  0  0  0  0  0  0
    1.0220    1.7781   -1.0353 H   0  0  0  0  0  0  0  0  0  0  0  0
    0.3724    0.1290   -2.2435 C   0  0  0  0  0  0  0  0  0  0  0  0
    1.2432   -0.4915   -2.0131 H   0  0  0  0  0  0  0  0  0  0  0  0
   -0.4913   -0.5337   -2.3518 H   0  0  0  0  0  0  0  0  0  0  0  0
    0.6112    0.8631   -3.5612 C   0  0  0  0  0  0  0  0  0  0  0  0
    1.7241    1.4270   -3.7111 O   0  5  0  0  0  0  0  0  0  0  0  0
   -0.3298    0.8985   -4.3918 O   0  0  0  0  0  0  0  0  0  0  0  0
   -0.0959    1.4960    1.3787 C   0  0  0  0  0  0  0  0  0  0  0  0
   -1.0754    1.7183    2.0848 O   0  0  0  0  0  0  0  0  0  0  0  0
    1.0534    2.2362    1.5924 N   0  0  0  0  0  0  0  0  0  0  0  0
    1.8054    2.1164    0.9191 H   0  0  0  0  0  0  0  0  0  0  0  0
    1.1469    3.3146    2.5656 C   0  0  0  0  0  0  0  0  0  0  0  0
    0.9203    2.9445    3.5707 H   0  0  0  0  0  0  0  0  0  0  0  0
    2.1596    3.7283    2.5706 H   0  0  0  0  0  0  0  0  0  0  0  0
    0.4448    4.1164    2.3159 H   0  0  0  0  0  0  0  0  0  0  0  0
  1  2  1  0  0  0  0
  2  3  1  0  0  0  0
  2  4  1  0  0  0  0
  2  5  1  0  0  0  0
  5  6  2  0  0  0  0
  5  7  1  0  0  0  0
  7  8  1  0  0  0  0
  7  9  1  0  0  0  0
  9 10  1  0  0  0  0
  9 11  1  0  0  0  0
  9 20  1  0  0  0  0
 11 12  1  0  0  0  0
 11 13  1  0  0  0  0
 11 14  1  0  0  0  0
 14 15  1  0  0  0  0
 14 16  1  0  0  0  0
 14 17  1  0  0  0  0
 17 18  1  0  0  0  0
 17 19  2  0  0  0  0
 20 21  2  0  0  0  0
 20 22  1  0  0  0  0
 22 23  1  0  0  0  0
 22 24  1  0  0  0  0
 24 25  1  0  0  0  0
 24 26  1  0  0  0  0
 24 27  1  0  0  0  0
M  CHG  1  18  -1
M  END
$$$$

  -OEChem-01062216073D

 27 26  0     1  0  0  0  0  0999 V2000
   -3.1630   -2.9194    1.2889 H   0  0  0  0  0  0  0  0  0  0  0  0
   -3.1137   -1.9621    0.7626 C   0  0  0  0  0  0  0  0  0  0  0  0
   -3.8035   -1.2611    1.2391 H   0  0  0  0  0  0  0  0  0  0  0  0
   -3.4190   -2.1144   -0.2757 H   0  0  0  0  0  0  0  0  0  0  0  0
   -1.7008   -1.4080    0.8097 C   0  0  0  0  0  0  0  0  0  0  0  0
   -0.8311   -2.0137    1.4204 O   0  0  0  0  0  0  0  0  0  0  0  0
   -1.4133   -0.2392    0.1378 N   0  0  0  0  0  0  0  0  0  0  0  0
   -2.1907    0.2526   -0.2910 H   0  0  0  0  0  0  0  0  0  0  0  0
   -0.1234    0.4614    0.2324 C   0  0  1  0  0  0  0  0  0  0  0  0
    0.6829   -0.2537    0.4246 H   0  0  0  0  0  0  0  0  0  0  0  0
    0.1373    1.1357   -1.1285 C   0  0  0  0  0  0  0  0  0  0  0  0
   -0.7106    1.7794   -1.3875 H   0  0  0  0  0  0  0  0  0  0  0  0
    1.0265    1.7707   -1.0698 H   0  0  0  0  0  0  0  0  0  0  0  0
    0.3700    0.1154   -2.2532 C   0  0  0  0  0  0  0  0  0  0  0  0
    1.2443   -0.5007   -2.0239 H   0  0  0  0  0  0  0  0  0  0  0  0
   -0.4924   -0.5505   -2.3509 H   0  0  0  0  0  0  0  0  0  0  0  0
    0.5982    0.8418   -3.5774 C   0  0  0  0  0  0  0  0  0  0  0  0
    1.6960    1.4351   -3.7258 O   0  5  0  0  0  0  0  0  0  0  0  0
   -0.3398    0.8470   -4.4122 O   0  0  0  0  0  0  0  0  0  0  0  0
   -0.0894    1.5056    1.3778 C   0  0  0  0  0  0  0  0  0  0  0  0
   -0.9739    1.5563    2.2274 O   0  0  0  0  0  0  0  0  0  0  0  0
    0.9105    2.4619    1.4236 N   0  0  0  0  0  0  0  0  0  0  0  0
    1.5732    2.4693    0.6526 H   0  0  0  0  0  0  0  0  0  0  0  0
    0.9535    3.5429    2.3978 C   0  0  0  0  0  0  0  0  0  0  0  0
    0.9662    3.1410    3.4161 H   0  0  0  0  0  0  0  0  0  0  0  0
    1.8569    4.1428    2.2524 H   0  0  0  0  0  0  0  0  0  0  0  0
    0.0813    4.1947    2.2843 H   0  0  0  0  0  0  0  0  0  0  0  0
  1  2  1  0  0  0  0
  2  3  1  0  0  0  0
  2  4  1  0  0  0  0
  2  5  1  0  0  0  0
  5  6  2  0  0  0  0
  5  7  1  0  0  0  0
  7  8  1  0  0  0  0
  7  9  1  0  0  0  0
  9 10  1  0  0  0  0
  9 11  1  0  0  0  0
  9 20  1  0  0  0  0
 11 12  1  0  0  0  0
 11 13  1  0  0  0  0
 11 14  1  0  0  0  0
 14 15  1  0  0  0  0
 14 16  1  0  0  0  0
 14 17  1  0  0  0  0
 17 18  1  0  0  0  0
 17 19  2  0  0  0  0
 20 21  2  0  0  0  0
 20 22  1  0  0  0  0
 22 23  1  0  0  0  0
 22 24  1  0  0  0  0
 24 25  1  0  0  0  0
 24 26  1  0  0  0  0
 24 27  1  0  0  0  0
M  CHG  1  18  -1
M  END
$$$$

  -OEChem-01062216073D

 27 26  0     1  0  0  0  0  0999 V2000
   -3.1593   -2.9004    1.3004 H   0  0  0  0  0  0  0  0  0  0  0  0
   -3.1082   -1.9435    0.7737 C   0  0  0  0  0  0  0  0  0  0  0  0
   -3.7888   -1.2378    1.2564 H   0  0  0  0  0  0  0  0  0  0  0  0
   -3.4237   -2.0937   -0.2619 H   0  0  0  0  0  0  0  0  0  0  0  0
   -1.6915   -1.3986    0.8089 C   0  0  0  0  0  0  0  0  0  0  0  0
   -0.8184   -2.0170    1.4011 O   0  0  0  0  0  0  0  0  0  0  0  0
   -1.4048   -0.2298    0.1358 N   0  0  0  0  0  0  0  0  0  0  0  0
   -2.1803    0.2527   -0.3064 H   0  0  0  0  0  0  0  0  0  0  0  0
   -0.1143    0.4711    0.2245 C   0  0  1  0  0  0  0  0  0  0  0  0
    0.6942   -0.2410    0.4200 H   0  0  0  0  0  0  0  0  0  0  0  0
    0.1408    1.1319   -1.1450 C   0  0  0  0  0  0  0  0  0  0  0  0
   -0.7049    1.7776   -1.4063 H   0  0  0  0  0  0  0  0  0  0  0  0
    1.0356    1.7598   -1.0967 H   0  0  0  0  0  0  0  0  0  0  0  0
    0.3698    0.1031   -2.2621 C   0  0  0  0  0  0  0  0  0  0  0  0
    1.2460   -0.5102   -2.0323 H   0  0  0  0  0  0  0  0  0  0  0  0
   -0.4923   -0.5644   -2.3517 H   0  0  0  0  0  0  0  0  0  0  0  0
    0.5912    0.8225   -3.5913 C   0  0  0  0  0  0  0  0  0  0  0  0
    1.6806    1.4299   -3.7427 O   0  5  0  0  0  0  0  0  0  0  0  0
   -0.3494    0.8174   -4.4229 O   0  0  0  0  0  0  0  0  0  0  0  0
   -0.0863    1.5152    1.3731 C   0  0  0  0  0  0  0  0  0  0  0  0
   -0.8181    1.4062    2.3519 O   0  0  0  0  0  0  0  0  0  0  0  0
    0.6955    2.6546    1.2824 N   0  0  0  0  0  0  0  0  0  0  0  0
    1.2292    2.7786    0.4259 H   0  0  0  0  0  0  0  0  0  0  0  0
    0.6879    3.7260    2.2680 C   0  0  0  0  0  0  0  0  0  0  0  0
    0.9588    3.3395    3.2558 H   0  0  0  0  0  0  0  0  0  0  0  0
    1.4117    4.4974    1.9888 H   0  0  0  0  0  0  0  0  0  0  0  0
   -0.3042    4.1852    2.3257 H   0  0  0  0  0  0  0  0  0  0  0  0
  1  2  1  0  0  0  0
  2  3  1  0  0  0  0
  2  4  1  0  0  0  0
  2  5  1  0  0  0  0
  5  6  2  0  0  0  0
  5  7  1  0  0  0  0
  7  8  1  0  0  0  0
  7  9  1  0  0  0  0
  9 10  1  0  0  0  0
  9 11  1  0  0  0  0
  9 20  1  0  0  0  0
 11 12  1  0  0  0  0
 11 13  1  0  0  0  0
 11 14  1  0  0  0  0
 14 15  1  0  0  0  0
 14 16  1  0  0  0  0
 14 17  1  0  0  0  0
 17 18  1  0  0  0  0
 17 19  2  0  0  0  0
 20 21  2  0  0  0  0
 20 22  1  0  0  0  0
 22 23  1  0  0  0  0
 22 24  1  0  0  0  0
 24 25  1  0  0  0  0
 24 26  1  0  0  0  0
 24 27  1  0  0  0  0
M  CHG  1  18  -1
M  END
$$$$

  -OEChem-01062216073D

 27 26  0     1  0  0  0  0  0999 V2000
   -3.1551   -2.9013    1.2928 H   0  0  0  0  0  0  0  0  0  0  0  0
   -3.1039   -1.9425    0.7696 C   0  0  0  0  0  0  0  0  0  0  0  0
   -3.7946   -1.2428    1.2468 H   0  0  0  0  0  0  0  0  0  0  0  0
   -3.4067   -2.0916   -0.2699 H   0  0  0  0  0  0  0  0  0  0  0  0
   -1.6910   -1.3893    0.8223 C   0  0  0  0  0  0  0  0  0  0  0  0
   -0.8218   -2.0055    1.4217 O   0  0  0  0  0  0  0  0  0  0  0  0
   -1.4019   -0.2235    0.1444 N   0  0  0  0  0  0  0  0  0  0  0  0
   -2.1657    0.2325   -0.3438 H   0  0  0  0  0  0  0  0  0  0  0  0
   -0.1120    0.4792    0.2267 C   0  0  1  0  0  0  0  0  0  0  0  0
    0.6980   -0.2298    0.4273 H   0  0  0  0  0  0  0  0  0  0  0  0
    0.1402    1.1301   -1.1479 C   0  0  0  0  0  0  0  0  0  0  0  0
   -0.7045    1.7755   -1.4129 H   0  0  0  0  0  0  0  0  0  0  0  0
    1.0378    1.7553   -1.1002 H   0  0  0  0  0  0  0  0  0  0  0  0
    0.3688    0.0977   -2.2613 C   0  0  0  0  0  0  0  0  0  0  0  0
    1.2468   -0.5130   -2.0317 H   0  0  0  0  0  0  0  0  0  0  0  0
   -0.4923   -0.5715   -2.3471 H   0  0  0  0  0  0  0  0  0  0  0  0
    0.5859    0.8153   -3.5921 C   0  0  0  0  0  0  0  0  0  0  0  0
    1.6734    1.4242   -3.7500 O   0  5  0  0  0  0  0  0  0  0  0  0
   -0.3630    0.8158   -4.4146 O   0  0  0  0  0  0  0  0  0  0  0  0
   -0.0915    1.5280    1.3718 C   0  0  0  0  0  0  0  0  0  0  0  0
   -0.6237    1.2982    2.4521 O   0  0  0  0  0  0  0  0  0  0  0  0
    0.4231    2.7987    1.1737 N   0  0  0  0  0  0  0  0  0  0  0  0
    0.8054    3.0019    0.2535 H   0  0  0  0  0  0  0  0  0  0  0  0
    0.3805    3.8607    2.1686 C   0  0  0  0  0  0  0  0  0  0  0  0
    0.9044    3.5539    3.0794 H   0  0  0  0  0  0  0  0  0  0  0  0
    0.8652    4.7601    1.7773 H   0  0  0  0  0  0  0  0  0  0  0  0
   -0.6558    4.1075    2.4209 H   0  0  0  0  0  0  0  0  0  0  0  0
  1  2  1  0  0  0  0
  2  3  1  0  0  0  0
  2  4  1  0  0  0  0
  2  5  1  0  0  0  0
  5  6  2  0  0  0  0
  5  7  1  0  0  0  0
  7  8  1  0  0  0  0
  7  9  1  0  0  0  0
  9 10  1  0  0  0  0
  9 11  1  0  0  0  0
  9 20  1  0  0  0  0
 11 12  1  0  0  0  0
 11 13  1  0  0  0  0
 11 14  1  0  0  0  0
 14 15  1  0  0  0  0
 14 16  1  0  0  0  0
 14 17  1  0  0  0  0
 17 18  1  0  0  0  0
 17 19  2  0  0  0  0
 20 21  2  0  0  0  0
 20 22  1  0  0  0  0
 22 23  1  0  0  0  0
 22 24  1  0  0  0  0
 24 25  1  0  0  0  0
 24 26  1  0  0  0  0
 24 27  1  0  0  0  0
M  CHG  1  18  -1
M  END
$$$$

  -OEChem-01062216073D

 27 26  0     1  0  0  0  0  0999 V2000
   -3.0811   -2.9450    1.3131 H   0  0  0  0  0  0  0  0  0  0  0  0
   -3.0411   -2.0069    0.7528 C   0  0  0  0  0  0  0  0  0  0  0  0
   -3.7702   -1.3122    1.1769 H   0  0  0  0  0  0  0  0  0  0  0  0
   -3.3017   -2.2071   -0.2896 H   0  0  0  0  0  0  0  0  0  0  0  0
   -1.6485   -1.4066    0.8321 C   0  0  0  0  0  0  0  0  0  0  0  0
   -0.7737   -1.9915    1.4527 O   0  0  0  0  0  0  0  0  0  0  0  0
   -1.3846   -0.2360    0.1513 N   0  0  0  0  0  0  0  0  0  0  0  0
   -2.1500    0.1839   -0.3654 H   0  0  0  0  0  0  0  0  0  0  0  0
   -0.1185    0.5075    0.2422 C   0  0  1  0  0  0  0  0  0  0  0  0
    0.7108   -0.1744    0.4587 H   0  0  0  0  0  0  0  0  0  0  0  0
    0.1351    1.1630   -1.1288 C   0  0  0  0  0  0  0  0  0  0  0  0
   -0.7268    1.7808   -1.4054 H   0  0  0  0  0  0  0  0  0  0  0  0
    1.0112    1.8169   -1.0590 H   0  0  0  0  0  0  0  0  0  0  0  0
    0.4127    0.1402   -2.2462 C   0  0  0  0  0  0  0  0  0  0  0  0
    1.2978   -0.4492   -1.9900 H   0  0  0  0  0  0  0  0  0  0  0  0
   -0.4323   -0.5480   -2.3360 H   0  0  0  0  0  0  0  0  0  0  0  0
    0.6397    0.8011   -3.6122 C   0  0  0  0  0  0  0  0  0  0  0  0
    0.7604    0.0333   -4.5968 O   0  5  0  0  0  0  0  0  0  0  0  0
    0.6729    2.0576   -3.6791 O   0  0  0  0  0  0  0  0  0  0  0  0
   -0.1481    1.5616    1.3804 C   0  0  0  0  0  0  0  0  0  0  0  0
   -0.4272    1.2437    2.5301 O   0  0  0  0  0  0  0  0  0  0  0  0
    0.0298    2.9095    1.1141 N   0  0  0  0  0  0  0  0  0  0  0  0
    0.2237    3.1658    0.1484 H   0  0  0  0  0  0  0  0  0  0  0  0
   -0.0563    3.9583    2.1201 C   0  0  0  0  0  0  0  0  0  0  0  0
    0.7092    3.8143    2.8891 H   0  0  0  0  0  0  0  0  0  0  0  0
    0.0986    4.9368    1.6559 H   0  0  0  0  0  0  0  0  0  0  0  0
   -1.0424    3.9533    2.5956 H   0  0  0  0  0  0  0  0  0  0  0  0
  1  2  1  0  0  0  0
  2  3  1  0  0  0  0
  2  4  1  0  0  0  0
  2  5  1  0  0  0  0
  5  6  2  0  0  0  0
  5  7  1  0  0  0  0
  7  8  1  0  0  0  0
  7  9  1  0  0  0  0
  9 10  1  0  0  0  0
  9 11  1  0  0  0  0
  9 20  1  0  0  0  0
 11 12  1  0  0  0  0
 11 13  1  0  0  0  0
 11 14  1  0  0  0  0
 14 15  1  0  0  0  0
 14 16  1  0  0  0  0
 14 17  1  0  0  0  0
 17 18  1  0  0  0  0
 17 19  2  0  0  0  0
 20 21  2  0  0  0  0
 20 22  1  0  0  0  0
 22 23  1  0  0  0  0
 22 24  1  0  0  0  0
 24 25  1  0  0  0  0
 24 26  1  0  0  0  0
 24 27  1  0  0  0  0
M  CHG  1  18  -1
M  END
$$$$

  -OEChem-01062216073D

 27 26  0     1  0  0  0  0  0999 V2000
   -3.2678   -2.8604    1.2542 H   0  0  0  0  0  0  0  0  0  0  0  0
   -3.1728   -1.9317    0.6849 C   0  0  0  0  0  0  0  0  0  0  0  0
   -3.9205   -1.2202    1.0439 H   0  0  0  0  0  0  0  0  0  0  0  0
   -3.3601   -2.1443   -0.3707 H   0  0  0  0  0  0  0  0  0  0  0  0
   -1.7806   -1.3499    0.8566 C   0  0  0  0  0  0  0  0  0  0  0  0
   -0.9606   -1.9414    1.5408 O   0  0  0  0  0  0  0  0  0  0  0  0
   -1.4547   -0.1911    0.1836 N   0  0  0  0  0  0  0  0  0  0  0  0
   -2.1456    0.1803   -0.4613 H   0  0  0  0  0  0  0  0  0  0  0  0
   -0.1480    0.4802    0.2542 C   0  0  1  0  0  0  0  0  0  0  0  0
    0.6474   -0.2490    0.4440 H   0  0  0  0  0  0  0  0  0  0  0  0
    0.0963    1.1312   -1.1198 C   0  0  0  0  0  0  0  0  0  0  0  0
   -0.7424    1.7893   -1.3735 H   0  0  0  0  0  0  0  0  0  0  0  0
    1.0027    1.7450   -1.0735 H   0  0  0  0  0  0  0  0  0  0  0  0
    0.2842    0.0985   -2.2400 C   0  0  0  0  0  0  0  0  0  0  0  0
    1.1479   -0.5377   -2.0243 H   0  0  0  0  0  0  0  0  0  0  0  0
   -0.5948   -0.5469   -2.3215 H   0  0  0  0  0  0  0  0  0  0  0  0
    0.4941    0.8211   -3.5682 C   0  0  0  0  0  0  0  0  0  0  0  0
   -0.5323    1.2667   -4.1400 O   0  5  0  0  0  0  0  0  0  0  0  0
    1.6712    0.9956   -3.9664 O   0  0  0  0  0  0  0  0  0  0  0  0
   -0.0869    1.5258    1.3958 C   0  0  0  0  0  0  0  0  0  0  0  0
   -0.0378    1.1832    2.5700 O   0  0  0  0  0  0  0  0  0  0  0  0
   -0.1452    2.8824    1.1212 N   0  0  0  0  0  0  0  0  0  0  0  0
   -0.1551    3.1518    0.1411 H   0  0  0  0  0  0  0  0  0  0  0  0
   -0.0757    3.9212    2.1386 C   0  0  0  0  0  0  0  0  0  0  0  0
    0.8738    3.8626    2.6801 H   0  0  0  0  0  0  0  0  0  0  0  0
   -0.1488    4.9083    1.6726 H   0  0  0  0  0  0  0  0  0  0  0  0
   -0.8988    3.8141    2.8522 H   0  0  0  0  0  0  0  0  0  0  0  0
  1  2  1  0  0  0  0
  2  3  1  0  0  0  0
  2  4  1  0  0  0  0
  2  5  1  0  0  0  0
  5  6  2  0  0  0  0
  5  7  1  0  0  0  0
  7  8  1  0  0  0  0
  7  9  1  0  0  0  0
  9 10  1  0  0  0  0
  9 11  1  0  0  0  0
  9 20  1  0  0  0  0
 11 12  1  0  0  0  0
 11 13  1  0  0  0  0
 11 14  1  0  0  0  0
 14 15  1  0  0  0  0
 14 16  1  0  0  0  0
 14 17  1  0  0  0  0
 17 18  1  0  0  0  0
 17 19  2  0  0  0  0
 20 21  2  0  0  0  0
 20 22  1  0  0  0  0
 22 23  1  0  0  0  0
 22 24  1  0  0  0  0
 24 25  1  0  0  0  0
 24 26  1  0  0  0  0
 24 27  1  0  0  0  0
M  CHG  1  18  -1
M  END
$$$$

  -OEChem-01062216073D

 27 26  0     1  0  0  0  0  0999 V2000
   -3.2626   -2.8934    1.2387 H   0  0  0  0  0  0  0  0  0  0  0  0
   -3.1521   -1.9919    0.6294 C   0  0  0  0  0  0  0  0  0  0  0  0
   -3.9499   -1.2918    0.8889 H   0  0  0  0  0  0  0  0  0  0  0  0
   -3.2453   -2.2650   -0.4247 H   0  0  0  0  0  0  0  0  0  0  0  0
   -1.7987   -1.3502    0.8797 C   0  0  0  0  0  0  0  0  0  0  0  0
   -1.0106   -1.8862    1.6414 O   0  0  0  0  0  0  0  0  0  0  0  0
   -1.4731   -0.1919    0.2055 N   0  0  0  0  0  0  0  0  0  0  0  0
   -2.1141    0.1094   -0.5229 H   0  0  0  0  0  0  0  0  0  0  0  0
   -0.1658    0.4791    0.2806 C   0  0  1  0  0  0  0  0  0  0  0  0
    0.6309   -0.2499    0.4668 H   0  0  0  0  0  0  0  0  0  0  0  0
    0.0761    1.1424   -1.0875 C   0  0  0  0  0  0  0  0  0  0  0  0
   -0.7640    1.8003   -1.3360 H   0  0  0  0  0  0  0  0  0  0  0  0
    0.9794    1.7604   -1.0338 H   0  0  0  0  0  0  0  0  0  0  0  0
    0.2626    0.1166   -2.2159 C   0  0  0  0  0  0  0  0  0  0  0  0
    1.1257   -0.5208   -2.0010 H   0  0  0  0  0  0  0  0  0  0  0  0
   -0.6169   -0.5275   -2.3008 H   0  0  0  0  0  0  0  0  0  0  0  0
    0.4711    0.8389   -3.5451 C   0  0  0  0  0  0  0  0  0  0  0  0
   -0.5276    1.4275   -4.0312 O   0  5  0  0  0  0  0  0  0  0  0  0
    1.6202    0.8388   -4.0485 O   0  0  0  0  0  0  0  0  0  0  0  0
   -0.1067    1.5238    1.4200 C   0  0  0  0  0  0  0  0  0  0  0  0
    0.2608    1.2168    2.5466 O   0  0  0  0  0  0  0  0  0  0  0  0
   -0.4692    2.8399    1.1866 N   0  0  0  0  0  0  0  0  0  0  0  0
   -0.6980    3.0874    0.2280 H   0  0  0  0  0  0  0  0  0  0  0  0
   -0.3727    3.8943    2.1853 C   0  0  0  0  0  0  0  0  0  0  0  0
    0.6629    4.0095    2.5211 H   0  0  0  0  0  0  0  0  0  0  0  0
   -0.7071    4.8451    1.7602 H   0  0  0  0  0  0  0  0  0  0  0  0
   -1.0026    3.6610    3.0497 H   0  0  0  0  0  0  0  0  0  0  0  0
  1  2  1  0  0  0  0
  2  3  1  0  0  0  0
  2  4  1  0  0  0  0
  2  5  1  0  0  0  0
  5  6  2  0  0  0  0
  5  7  1  0  0  0  0
  7  8  1  0  0  0  0
  7  9  1  0  0  0  0
  9 10  1  0  0  0  0
  9 11  1  0  0  0  0
  9 20  1  0  0  0  0
 11 12  1  0  0  0  0
 11 13  1  0  0  0  0
 11 14  1  0  0  0  0
 14 15  1  0  0  0  0
 14 16  1  0  0  0  0
 14 17  1  0  0  0  0
 17 18  1  0  0  0  0
 17 19  2  0  0  0  0
 20 21  2  0  0  0  0
 20 22  1  0  0  0  0
 22 23  1  0  0  0  0
 22 24  1  0  0  0  0
 24 25  1  0  0  0  0
 24 26  1  0  0  0  0
 24 27  1  0  0  0  0
M  CHG  1  18  -1
M  END
$$$$

  -OEChem-01062216073D

 27 26  0     1  0  0  0  0  0999 V2000
   -3.2559   -2.9419    1.1741 H   0  0  0  0  0  0  0  0  0  0  0  0
   -3.1353   -2.0460    0.5586 C   0  0  0  0  0  0  0  0  0  0  0  0
   -3.9758   -1.3735    0.7467 H   0  0  0  0  0  0  0  0  0  0  0  0
   -3.1408   -2.3384   -0.4945 H   0  0  0  0  0  0  0  0  0  0  0  0
   -1.8287   -1.3491    0.8944 C   0  0  0  0  0  0  0  0  0  0  0  0
   -1.0874   -1.8292    1.7357 O   0  0  0  0  0  0  0  0  0  0  0  0
   -1.4958   -0.1918    0.2232 N   0  0  0  0  0  0  0  0  0  0  0  0
   -2.0755    0.0443   -0.5776 H   0  0  0  0  0  0  0  0  0  0  0  0
   -0.1823    0.4658    0.3116 C   0  0  1  0  0  0  0  0  0  0  0  0
    0.6085   -0.2715    0.4914 H   0  0  0  0  0  0  0  0  0  0  0  0
    0.0603    1.1455   -1.0466 C   0  0  0  0  0  0  0  0  0  0  0  0
   -0.7743    1.8138   -1.2850 H   0  0  0  0  0  0  0  0  0  0  0  0
    0.9676    1.7570   -0.9856 H   0  0  0  0  0  0  0  0  0  0  0  0
    0.2351    0.1288   -2.1859 C   0  0  0  0  0  0  0  0  0  0  0  0
    1.0944   -0.5162   -1.9793 H   0  0  0  0  0  0  0  0  0  0  0  0
   -0.6490   -0.5086   -2.2737 H   0  0  0  0  0  0  0  0  0  0  0  0
    0.4452    0.8581   -3.5110 C   0  0  0  0  0  0  0  0  0  0  0  0
   -0.5500    1.4637   -3.9834 O   0  5  0  0  0  0  0  0  0  0  0  0
    1.5851    0.8319   -4.0336 O   0  0  0  0  0  0  0  0  0  0  0  0
   -0.1182    1.5044    1.4532 C   0  0  0  0  0  0  0  0  0  0  0  0
    0.5332    1.2932    2.4681 O   0  0  0  0  0  0  0  0  0  0  0  0
   -0.7474    2.7298    1.3137 N   0  0  0  0  0  0  0  0  0  0  0  0
   -1.1798    2.9180    0.4142 H   0  0  0  0  0  0  0  0  0  0  0  0
   -0.6250    3.8120    2.2794 C   0  0  0  0  0  0  0  0  0  0  0  0
    0.4147    4.1485    2.3459 H   0  0  0  0  0  0  0  0  0  0  0  0
   -1.2462    4.6592    1.9743 H   0  0  0  0  0  0  0  0  0  0  0  0
   -0.9548    3.4815    3.2697 H   0  0  0  0  0  0  0  0  0  0  0  0
  1  2  1  0  0  0  0
  2  3  1  0  0  0  0
  2  4  1  0  0  0  0
  2  5  1  0  0  0  0
  5  6  2  0  0  0  0
  5  7  1  0  0  0  0
  7  8  1  0  0  0  0
  7  9  1  0  0  0  0
  9 10  1  0  0  0  0
  9 11  1  0  0  0  0
  9 20  1  0  0  0  0
 11 12  1  0  0  0  0
 11 13  1  0  0  0  0
 11 14  1  0  0  0  0
 14 15  1  0  0  0  0
 14 16  1  0  0  0  0
 14 17  1  0  0  0  0
 17 18  1  0  0  0  0
 17 19  2  0  0  0  0
 20 21  2  0  0  0  0
 20 22  1  0  0  0  0
 22 23  1  0  0  0  0
 22 24  1  0  0  0  0
 24 25  1  0  0  0  0
 24 26  1  0  0  0  0
 24 27  1  0  0  0  0
M  CHG  1  18  -1
M  END
$$$$

  -OEChem-01062216073D

 27 26  0     1  0  0  0  0  0999 V2000
   -3.2534   -2.9621    1.1466 H   0  0  0  0  0  0  0  0  0  0  0  0
   -3.1228   -2.0744    0.5212 C   0  0  0  0  0  0  0  0  0  0  0  0
   -3.9835   -1.4155    0.6601 H   0  0  0  0  0  0  0  0  0  0  0  0
   -3.0764   -2.3847   -0.5259 H   0  0  0  0  0  0  0  0  0  0  0  0
   -1.8456   -1.3467    0.9017 C   0  0  0  0  0  0  0  0  0  0  0  0
   -1.1370   -1.7913    1.7894 O   0  0  0  0  0  0  0  0  0  0  0  0
   -1.5059   -0.1906    0.2321 N   0  0  0  0  0  0  0  0  0  0  0  0
   -2.0477    0.0116   -0.6044 H   0  0  0  0  0  0  0  0  0  0  0  0
   -0.1814    0.4454    0.3269 C   0  0  1  0  0  0  0  0  0  0  0  0
    0.6007   -0.3039    0.4950 H   0  0  0  0  0  0  0  0  0  0  0  0
    0.0622    1.1445   -1.0202 C   0  0  0  0  0  0  0  0  0  0  0  0
   -0.7617    1.8321   -1.2407 H   0  0  0  0  0  0  0  0  0  0  0  0
    0.9800    1.7399   -0.9552 H   0  0  0  0  0  0  0  0  0  0  0  0
    0.2141    0.1396   -2.1742 C   0  0  0  0  0  0  0  0  0  0  0  0
    1.0649   -0.5206   -1.9805 H   0  0  0  0  0  0  0  0  0  0  0  0
   -0.6794   -0.4841   -2.2633 H   0  0  0  0  0  0  0  0  0  0  0  0
    0.4265    0.8774   -3.4939 C   0  0  0  0  0  0  0  0  0  0  0  0
   -0.5690    1.4844   -3.9639 O   0  5  0  0  0  0  0  0  0  0  0  0
    1.5637    0.8444   -4.0221 O   0  0  0  0  0  0  0  0  0  0  0  0
   -0.1024    1.4741    1.4738 C   0  0  0  0  0  0  0  0  0  0  0  0
    0.7595    1.3934    2.3400 O   0  0  0  0  0  0  0  0  0  0  0  0
   -0.9534    2.5654    1.4778 N   0  0  0  0  0  0  0  0  0  0  0  0
   -1.5751    2.6570    0.6808 H   0  0  0  0  0  0  0  0  0  0  0  0
   -0.8571    3.6597    2.4323 C   0  0  0  0  0  0  0  0  0  0  0  0
    0.0996    4.1801    2.3213 H   0  0  0  0  0  0  0  0  0  0  0  0
   -1.6651    4.3775    2.2633 H   0  0  0  0  0  0  0  0  0  0  0  0
   -0.9395    3.2826    3.4569 H   0  0  0  0  0  0  0  0  0  0  0  0
  1  2  1  0  0  0  0
  2  3  1  0  0  0  0
  2  4  1  0  0  0  0
  2  5  1  0  0  0  0
  5  6  2  0  0  0  0
  5  7  1  0  0  0  0
  7  8  1  0  0  0  0
  7  9  1  0  0  0  0
  9 10  1  0  0  0  0
  9 11  1  0  0  0  0
  9 20  1  0  0  0  0
 11 12  1  0  0  0  0
 11 13  1  0  0  0  0
 11 14  1  0  0  0  0
 14 15  1  0  0  0  0
 14 16  1  0  0  0  0
 14 17  1  0  0  0  0
 17 18  1  0  0  0  0
 17 19  2  0  0  0  0
 20 21  2  0  0  0  0
 20 22  1  0  0  0  0
 22 23  1  0  0  0  0
 22 24  1  0  0  0  0
 24 25  1  0  0  0  0
 24 26  1  0  0  0  0
 24 27  1  0  0  0  0
M  CHG  1  18  -1
M  END
$$$$

  -OEChem-01062216073D

 27 26  0     1  0  0  0  0  0999 V2000
   -3.2568   -2.9574    1.1298 H   0  0  0  0  0  0  0  0  0  0  0  0
   -3.1153   -2.0775    0.4962 C   0  0  0  0  0  0  0  0  0  0  0  0
   -3.9831   -1.4222    0.6044 H   0  0  0  0  0  0  0  0  0  0  0  0
   -3.0404   -2.4018   -0.5450 H   0  0  0  0  0  0  0  0  0  0  0  0
   -1.8525   -1.3369    0.8995 C   0  0  0  0  0  0  0  0  0  0  0  0
   -1.1655   -1.7608    1.8143 O   0  0  0  0  0  0  0  0  0  0  0  0
   -1.5059   -0.1820    0.2315 N   0  0  0  0  0  0  0  0  0  0  0  0
   -2.0212   -0.0007   -0.6269 H   0  0  0  0  0  0  0  0  0  0  0  0
   -0.1716    0.4346    0.3294 C   0  0  1  0  0  0  0  0  0  0  0  0
    0.6021   -0.3252    0.4887 H   0  0  0  0  0  0  0  0  0  0  0  0
    0.0721    1.1415   -1.0128 C   0  0  0  0  0  0  0  0  0  0  0  0
   -0.7438    1.8427   -1.2207 H   0  0  0  0  0  0  0  0  0  0  0  0
    0.9985    1.7234   -0.9497 H   0  0  0  0  0  0  0  0  0  0  0  0
    0.2033    0.1401   -2.1735 C   0  0  0  0  0  0  0  0  0  0  0  0
    1.0473   -0.5314   -1.9882 H   0  0  0  0  0  0  0  0  0  0  0  0
   -0.6983   -0.4724   -2.2593 H   0  0  0  0  0  0  0  0  0  0  0  0
    0.4167    0.8766   -3.4935 C   0  0  0  0  0  0  0  0  0  0  0  0
   -0.5836    1.4683   -3.9724 O   0  5  0  0  0  0  0  0  0  0  0  0
    1.5553    0.8484   -4.0191 O   0  0  0  0  0  0  0  0  0  0  0  0
   -0.0743    1.4559    1.4803 C   0  0  0  0  0  0  0  0  0  0  0  0
    0.9282    1.5260    2.1802 O   0  0  0  0  0  0  0  0  0  0  0  0
   -1.0897    2.3763    1.6677 N   0  0  0  0  0  0  0  0  0  0  0  0
   -1.8687    2.3289    1.0197 H   0  0  0  0  0  0  0  0  0  0  0  0
   -1.0391    3.4488    2.6495 C   0  0  0  0  0  0  0  0  0  0  0  0
   -0.2117    4.1306    2.4279 H   0  0  0  0  0  0  0  0  0  0  0  0
   -1.9731    4.0182    2.6322 H   0  0  0  0  0  0  0  0  0  0  0  0
   -0.9020    3.0398    3.6557 H   0  0  0  0  0  0  0  0  0  0  0  0
  1  2  1  0  0  0  0
  2  3  1  0  0  0  0
  2  4  1  0  0  0  0
  2  5  1  0  0  0  0
  5  6  2  0  0  0  0
  5  7  1  0  0  0  0
  7  8  1  0  0  0  0
  7  9  1  0  0  0  0
  9 10  1  0  0  0  0
  9 11  1  0  0  0  0
  9 20  1  0  0  0  0
 11 12  1  0  0  0  0
 11 13  1  0  0  0  0
 11 14  1  0  0  0  0
 14 15  1  0  0  0  0
 14 16  1  0  0  0  0
 14 17  1  0  0  0  0
 17 18  1  0  0  0  0
 17 19  2  0  0  0  0
 20 21  2  0  0  0  0
 20 22  1  0  0  0  0
 22 23  1  0  0  0  0
 22 24  1  0  0  0  0
 24 25  1  0  0  0  0
 24 26  1  0  0  0  0
 24 27  1  0  0  0  0
M  CHG  1  18  -1
M  END
$$$$

  -OEChem-01062216073D

 27 26  0     1  0  0  0  0  0999 V2000
   -3.2397   -2.9546    1.1030 H   0  0  0  0  0  0  0  0  0  0  0  0
   -3.1005   -2.0728    0.4714 C   0  0  0  0  0  0  0  0  0  0  0  0
   -3.9807   -1.4315    0.5607 H   0  0  0  0  0  0  0  0  0  0  0  0
   -2.9995   -2.3968   -0.5677 H   0  0  0  0  0  0  0  0  0  0  0  0
   -1.8586   -1.3111    0.8981 C   0  0  0  0  0  0  0  0  0  0  0  0
   -1.1938   -1.7073    1.8413 O   0  0  0  0  0  0  0  0  0  0  0  0
   -1.5082   -0.1601    0.2258 N   0  0  0  0  0  0  0  0  0  0  0  0
   -2.0058    0.0045   -0.6469 H   0  0  0  0  0  0  0  0  0  0  0  0
   -0.1666    0.4427    0.3224 C   0  0  1  0  0  0  0  0  0  0  0  0
    0.5990   -0.3250    0.4815 H   0  0  0  0  0  0  0  0  0  0  0  0
    0.0778    1.1404   -1.0244 C   0  0  0  0  0  0  0  0  0  0  0  0
   -0.7326    1.8480   -1.2320 H   0  0  0  0  0  0  0  0  0  0  0  0
    1.0093    1.7149   -0.9691 H   0  0  0  0  0  0  0  0  0  0  0  0
    0.1949    0.1285   -2.1785 C   0  0  0  0  0  0  0  0  0  0  0  0
    1.0326   -0.5498   -1.9910 H   0  0  0  0  0  0  0  0  0  0  0  0
   -0.7122   -0.4768   -2.2565 H   0  0  0  0  0  0  0  0  0  0  0  0
    0.4096    0.8495   -3.5069 C   0  0  0  0  0  0  0  0  0  0  0  0
   -0.5958    1.4157   -4.0052 O   0  5  0  0  0  0  0  0  0  0  0  0
    1.5524    0.8274   -4.0239 O   0  0  0  0  0  0  0  0  0  0  0  0
   -0.0481    1.4654    1.4705 C   0  0  0  0  0  0  0  0  0  0  0  0
    1.0325    1.6988    1.9976 O   0  0  0  0  0  0  0  0  0  0  0  0
   -1.1576    2.1900    1.8650 N   0  0  0  0  0  0  0  0  0  0  0  0
   -2.0335    1.9542    1.4113 H   0  0  0  0  0  0  0  0  0  0  0  0
   -1.1386    3.1960    2.9159 C   0  0  0  0  0  0  0  0  0  0  0  0
   -0.4389    3.9994    2.6637 H   0  0  0  0  0  0  0  0  0  0  0  0
   -2.1350    3.6306    3.0377 H   0  0  0  0  0  0  0  0  0  0  0  0
   -0.8362    2.7481    3.8679 H   0  0  0  0  0  0  0  0  0  0  0  0
  1  2  1  0  0  0  0
  2  3  1  0  0  0  0
  2  4  1  0  0  0  0
  2  5  1  0  0  0  0
  5  6  2  0  0  0  0
  5  7  1  0  0  0  0
  7  8  1  0  0  0  0
  7  9  1  0  0  0  0
  9 10  1  0  0  0  0
  9 11  1  0  0  0  0
  9 20  1  0  0  0  0
 11 12  1  0  0  0  0
 11 13  1  0  0  0  0
 11 14  1  0  0  0  0
 14 15  1  0  0  0  0
 14 16  1  0  0  0  0
 14 17  1  0  0  0  0
 17 18  1  0  0  0  0
 17 19  2  0  0  0  0
 20 21  2  0  0  0  0
 20 22  1  0  0  0  0
 22 23  1  0  0  0  0
 22 24  1  0  0  0  0
 24 25  1  0  0  0  0
 24 26  1  0  0  0  0
 24 27  1  0  0  0  0
M  CHG  1  18  -1
M  END
$$$$

  -OEChem-01062216073D

 27 26  0     1  0  0  0  0  0999 V2000
   -3.2158   -2.9533    1.0681 H   0  0  0  0  0  0  0  0  0  0  0  0
   -3.0883   -2.0635    0.4452 C   0  0  0  0  0  0  0  0  0  0  0  0
   -3.9821   -1.4407    0.5312 H   0  0  0  0  0  0  0  0  0  0  0  0
   -2.9714   -2.3769   -0.5956 H   0  0  0  0  0  0  0  0  0  0  0  0
   -1.8653   -1.2817    0.8894 C   0  0  0  0  0  0  0  0  0  0  0  0
   -1.2239   -1.6487    1.8605 O   0  0  0  0  0  0  0  0  0  0  0  0
   -1.5131   -0.1324    0.2160 N   0  0  0  0  0  0  0  0  0  0  0  0
   -2.0009    0.0248   -0.6641 H   0  0  0  0  0  0  0  0  0  0  0  0
   -0.1683    0.4659    0.3128 C   0  0  1  0  0  0  0  0  0  0  0  0
    0.5927   -0.3051    0.4759 H   0  0  0  0  0  0  0  0  0  0  0  0
    0.0789    1.1471   -1.0431 C   0  0  0  0  0  0  0  0  0  0  0  0
   -0.7290    1.8547   -1.2602 H   0  0  0  0  0  0  0  0  0  0  0  0
    1.0124    1.7192   -0.9965 H   0  0  0  0  0  0  0  0  0  0  0  0
    0.1933    0.1164   -2.1820 C   0  0  0  0  0  0  0  0  0  0  0  0
    1.0287   -0.5613   -1.9823 H   0  0  0  0  0  0  0  0  0  0  0  0
   -0.7155   -0.4876   -2.2503 H   0  0  0  0  0  0  0  0  0  0  0  0
    0.4110    0.8105   -3.5242 C   0  0  0  0  0  0  0  0  0  0  0  0
   -0.5964    1.3537   -4.0438 O   0  5  0  0  0  0  0  0  0  0  0  0
    1.5564    0.7812   -4.0355 O   0  0  0  0  0  0  0  0  0  0  0  0
   -0.0385    1.4908    1.4598 C   0  0  0  0  0  0  0  0  0  0  0  0
    1.0595    1.8944    1.8228 O   0  0  0  0  0  0  0  0  0  0  0  0
   -1.1720    1.9963    2.0686 N   0  0  0  0  0  0  0  0  0  0  0  0
   -2.0473    1.5574    1.8039 H   0  0  0  0  0  0  0  0  0  0  0  0
   -1.1430    2.9151    3.1963 C   0  0  0  0  0  0  0  0  0  0  0  0
   -0.6016    3.8291    2.9312 H   0  0  0  0  0  0  0  0  0  0  0  0
   -2.1622    3.1895    3.4834 H   0  0  0  0  0  0  0  0  0  0  0  0
   -0.6521    2.4487    4.0565 H   0  0  0  0  0  0  0  0  0  0  0  0
  1  2  1  0  0  0  0
  2  3  1  0  0  0  0
  2  4  1  0  0  0  0
  2  5  1  0  0  0  0
  5  6  2  0  0  0  0
  5  7  1  0  0  0  0
  7  8  1  0  0  0  0
  7  9  1  0  0  0  0
  9 10  1  0  0  0  0
  9 11  1  0  0  0  0
  9 20  1  0  0  0  0
 11 12  1  0  0  0  0
 11 13  1  0  0  0  0
 11 14  1  0  0  0  0
 14 15  1  0  0  0  0
 14 16  1  0  0  0  0
 14 17  1  0  0  0  0
 17 18  1  0  0  0  0
 17 19  2  0  0  0  0
 20 21  2  0  0  0  0
 20 22  1  0  0  0  0
 22 23  1  0  0  0  0
 22 24  1  0  0  0  0
 24 25  1  0  0  0  0
 24 26  1  0  0  0  0
 24 27  1  0  0  0  0
M  CHG  1  18  -1
M  END
$$$$

  -OEChem-01062216073D

 27 26  0     1  0  0  0  0  0999 V2000
   -3.2020   -2.9477    1.0374 H   0  0  0  0  0  0  0  0  0  0  0  0
   -3.0782   -2.0559    0.4166 C   0  0  0  0  0  0  0  0  0  0  0  0
   -3.9830   -1.4471    0.4876 H   0  0  0  0  0  0  0  0  0  0  0  0
   -2.9392   -2.3672   -0.6222 H   0  0  0  0  0  0  0  0  0  0  0  0
   -1.8747   -1.2553    0.8799 C   0  0  0  0  0  0  0  0  0  0  0  0
   -1.2587   -1.5930    1.8779 O   0  0  0  0  0  0  0  0  0  0  0  0
   -1.5217   -0.1050    0.2099 N   0  0  0  0  0  0  0  0  0  0  0  0
   -2.0081    0.0549   -0.6705 H   0  0  0  0  0  0  0  0  0  0  0  0
   -0.1765    0.4936    0.3060 C   0  0  1  0  0  0  0  0  0  0  0  0
    0.5816   -0.2789    0.4749 H   0  0  0  0  0  0  0  0  0  0  0  0
    0.0755    1.1571   -1.0591 C   0  0  0  0  0  0  0  0  0  0  0  0
   -0.7318    1.8617   -1.2876 H   0  0  0  0  0  0  0  0  0  0  0  0
    1.0095    1.7287   -1.0212 H   0  0  0  0  0  0  0  0  0  0  0  0
    0.1929    0.1081   -2.1816 C   0  0  0  0  0  0  0  0  0  0  0  0
    1.0273   -0.5667   -1.9675 H   0  0  0  0  0  0  0  0  0  0  0  0
   -0.7161   -0.4964   -2.2431 H   0  0  0  0  0  0  0  0  0  0  0  0
    0.4157    0.7768   -3.5360 C   0  0  0  0  0  0  0  0  0  0  0  0
   -0.5824    1.3337   -4.0590 O   0  5  0  0  0  0  0  0  0  0  0  0
    1.5547    0.7051   -4.0575 O   0  0  0  0  0  0  0  0  0  0  0  0
   -0.0427    1.5173    1.4563 C   0  0  0  0  0  0  0  0  0  0  0  0
    1.0128    2.1036    1.6633 O   0  0  0  0  0  0  0  0  0  0  0  0
   -1.1253    1.7894    2.2719 N   0  0  0  0  0  0  0  0  0  0  0  0
   -1.9095    1.1528    2.1711 H   0  0  0  0  0  0  0  0  0  0  0  0
   -1.0466    2.6329    3.4548 C   0  0  0  0  0  0  0  0  0  0  0  0
   -0.6994    3.6362    3.1873 H   0  0  0  0  0  0  0  0  0  0  0  0
   -2.0335    2.7221    3.9181 H   0  0  0  0  0  0  0  0  0  0  0  0
   -0.3554    2.2015    4.1858 H   0  0  0  0  0  0  0  0  0  0  0  0
  1  2  1  0  0  0  0
  2  3  1  0  0  0  0
  2  4  1  0  0  0  0
  2  5  1  0  0  0  0
  5  6  2  0  0  0  0
  5  7  1  0  0  0  0
  7  8  1  0  0  0  0
  7  9  1  0  0  0  0
  9 10  1  0  0  0  0
  9 11  1  0  0  0  0
  9 20  1  0  0  0  0
 11 12  1  0  0  0  0
 11 13  1  0  0  0  0
 11 14  1  0  0  0  0
 14 15  1  0  0  0  0
 14 16  1  0  0  0  0
 14 17  1  0  0  0  0
 17 18  1  0  0  0  0
 17 19  2  0  0  0  0
 20 21  2  0  0  0  0
 20 22  1  0  0  0  0
 22 23  1  0  0  0  0
 22 24  1  0  0  0  0
 24 25  1  0  0  0  0
 24 26  1  0  0  0  0
 24 27  1  0  0  0  0
M  CHG  1  18  -1
M  END
$$$$

  -OEChem-01062216073D

 27 26  0     1  0  0  0  0  0999 V2000
   -3.2288   -2.9052    1.0406 H   0  0  0  0  0  0  0  0  0  0  0  0
   -3.0788   -2.0325    0.3991 C   0  0  0  0  0  0  0  0  0  0  0  0
   -3.9767   -1.4103    0.4322 H   0  0  0  0  0  0  0  0  0  0  0  0
   -2.9196   -2.3735   -0.6273 H   0  0  0  0  0  0  0  0  0  0  0  0
   -1.8769   -1.2341    0.8696 C   0  0  0  0  0  0  0  0  0  0  0  0
   -1.2828   -1.5524    1.8879 O   0  0  0  0  0  0  0  0  0  0  0  0
   -1.5211   -0.0791    0.2115 N   0  0  0  0  0  0  0  0  0  0  0  0
   -2.0121    0.0925   -0.6642 H   0  0  0  0  0  0  0  0  0  0  0  0
   -0.1732    0.5143    0.3020 C   0  0  1  0  0  0  0  0  0  0  0  0
    0.5807   -0.2627    0.4672 H   0  0  0  0  0  0  0  0  0  0  0  0
    0.0785    1.1680   -1.0694 C   0  0  0  0  0  0  0  0  0  0  0  0
   -0.7264    1.8740   -1.3019 H   0  0  0  0  0  0  0  0  0  0  0  0
    1.0150    1.7358   -1.0413 H   0  0  0  0  0  0  0  0  0  0  0  0
    0.1884    0.1063   -2.1813 C   0  0  0  0  0  0  0  0  0  0  0  0
    1.0200   -0.5702   -1.9617 H   0  0  0  0  0  0  0  0  0  0  0  0
   -0.7233   -0.4949   -2.2336 H   0  0  0  0  0  0  0  0  0  0  0  0
    0.4109    0.7561   -3.5449 C   0  0  0  0  0  0  0  0  0  0  0  0
   -0.5934    1.2805   -4.0891 O   0  5  0  0  0  0  0  0  0  0  0  0
    1.5564    0.6975   -4.0540 O   0  0  0  0  0  0  0  0  0  0  0  0
   -0.0358    1.5241    1.4669 C   0  0  0  0  0  0  0  0  0  0  0  0
    0.9069    2.3034    1.5367 O   0  0  0  0  0  0  0  0  0  0  0  0
   -0.9929    1.5528    2.4642 N   0  0  0  0  0  0  0  0  0  0  0  0
   -1.6052    0.7404    2.4821 H   0  0  0  0  0  0  0  0  0  0  0  0
   -0.8715    2.3648    3.6655 C   0  0  0  0  0  0  0  0  0  0  0  0
   -0.7623    3.4220    3.4027 H   0  0  0  0  0  0  0  0  0  0  0  0
   -1.7670    2.2550    4.2842 H   0  0  0  0  0  0  0  0  0  0  0  0
   -0.0012    2.0528    4.2518 H   0  0  0  0  0  0  0  0  0  0  0  0
  1  2  1  0  0  0  0
  2  3  1  0  0  0  0
  2  4  1  0  0  0  0
  2  5  1  0  0  0  0
  5  6  2  0  0  0  0
  5  7  1  0  0  0  0
  7  8  1  0  0  0  0
  7  9  1  0  0  0  0
  9 10  1  0  0  0  0
  9 11  1  0  0  0  0
  9 20  1  0  0  0  0
 11 12  1  0  0  0  0
 11 13  1  0  0  0  0
 11 14  1  0  0  0  0
 14 15  1  0  0  0  0
 14 16  1  0  0  0  0
 14 17  1  0  0  0  0
 17 18  1  0  0  0  0
 17 19  2  0  0  0  0
 20 21  2  0  0  0  0
 20 22  1  0  0  0  0
 22 23  1  0  0  0  0
 22 24  1  0  0  0  0
 24 25  1  0  0  0  0
 24 26  1  0  0  0  0
 24 27  1  0  0  0  0
M  CHG  1  18  -1
M  END
$$$$

  -OEChem-01062216073D

 27 26  0     1  0  0  0  0  0999 V2000
   -3.1993   -2.9066    1.0081 H   0  0  0  0  0  0  0  0  0  0  0  0
   -3.0820   -2.0033    0.4032 C   0  0  0  0  0  0  0  0  0  0  0  0
   -3.9867   -1.3968    0.4925 H   0  0  0  0  0  0  0  0  0  0  0  0
   -2.9511   -2.2950   -0.6422 H   0  0  0  0  0  0  0  0  0  0  0  0
   -1.8771   -1.2085    0.8719 C   0  0  0  0  0  0  0  0  0  0  0  0
   -1.2734   -1.5351    1.8837 O   0  0  0  0  0  0  0  0  0  0  0  0
   -1.5222   -0.0506    0.2183 N   0  0  0  0  0  0  0  0  0  0  0  0
   -2.0268    0.1360   -0.6463 H   0  0  0  0  0  0  0  0  0  0  0  0
   -0.1719    0.5370    0.2975 C   0  0  1  0  0  0  0  0  0  0  0  0
    0.5775   -0.2442    0.4612 H   0  0  0  0  0  0  0  0  0  0  0  0
    0.0859    1.1777   -1.0794 C   0  0  0  0  0  0  0  0  0  0  0  0
   -0.7137    1.8870   -1.3195 H   0  0  0  0  0  0  0  0  0  0  0  0
    1.0270    1.7380   -1.0565 H   0  0  0  0  0  0  0  0  0  0  0  0
    0.1891    0.1020   -2.1787 C   0  0  0  0  0  0  0  0  0  0  0  0
    1.0150   -0.5783   -1.9497 H   0  0  0  0  0  0  0  0  0  0  0  0
   -0.7274   -0.4924   -2.2242 H   0  0  0  0  0  0  0  0  0  0  0  0
    0.4180    0.7304   -3.5509 C   0  0  0  0  0  0  0  0  0  0  0  0
   -0.5849    1.2370   -4.1140 O   0  5  0  0  0  0  0  0  0  0  0  0
    1.5688    0.6704   -4.0482 O   0  0  0  0  0  0  0  0  0  0  0  0
   -0.0313    1.5363    1.4718 C   0  0  0  0  0  0  0  0  0  0  0  0
    0.7411    2.4865    1.4374 O   0  0  0  0  0  0  0  0  0  0  0  0
   -0.7918    1.3444    2.6104 N   0  0  0  0  0  0  0  0  0  0  0  0
   -1.2379    0.4283    2.6707 H   0  0  0  0  0  0  0  0  0  0  0  0
   -0.6297    2.1281    3.8254 C   0  0  0  0  0  0  0  0  0  0  0  0
   -0.7854    3.1919    3.6184 H   0  0  0  0  0  0  0  0  0  0  0  0
   -1.3613    1.8125    4.5749 H   0  0  0  0  0  0  0  0  0  0  0  0
    0.3749    1.9905    4.2379 H   0  0  0  0  0  0  0  0  0  0  0  0
  1  2  1  0  0  0  0
  2  3  1  0  0  0  0
  2  4  1  0  0  0  0
  2  5  1  0  0  0  0
  5  6  2  0  0  0  0
  5  7  1  0  0  0  0
  7  8  1  0  0  0  0
  7  9  1  0  0  0  0
  9 10  1  0  0  0  0
  9 11  1  0  0  0  0
  9 20  1  0  0  0  0
 11 12  1  0  0  0  0
 11 13  1  0  0  0  0
 11 14  1  0  0  0  0
 14 15  1  0  0  0  0
 14 16  1  0  0  0  0
 14 17  1  0  0  0  0
 17 18  1  0  0  0  0
 17 19  2  0  0  0  0
 20 21  2  0  0  0  0
 20 22  1  0  0  0  0
 22 23  1  0  0  0  0
 22 24  1  0  0  0  0
 24 25  1  0  0  0  0
 24 26  1  0  0  0  0
 24 27  1  0  0  0  0
M  CHG  1  18  -1
M  END
$$$$

  -OEChem-01062216073D

 27 26  0     1  0  0  0  0  0999 V2000
   -3.2268   -2.8578    1.0669 H   0  0  0  0  0  0  0  0  0  0  0  0
   -3.1001   -1.9618    0.4528 C   0  0  0  0  0  0  0  0  0  0  0  0
   -3.9812   -1.3256    0.5686 H   0  0  0  0  0  0  0  0  0  0  0  0
   -3.0136   -2.2629   -0.5947 H   0  0  0  0  0  0  0  0  0  0  0  0
   -1.8552   -1.2042    0.8765 C   0  0  0  0  0  0  0  0  0  0  0  0
   -1.2036   -1.5752    1.8433 O   0  0  0  0  0  0  0  0  0  0  0  0
   -1.5045   -0.0438    0.2240 N   0  0  0  0  0  0  0  0  0  0  0  0
   -2.0393    0.1721   -0.6150 H   0  0  0  0  0  0  0  0  0  0  0  0
   -0.1540    0.5424    0.2875 C   0  0  1  0  0  0  0  0  0  0  0  0
    0.5964   -0.2390    0.4450 H   0  0  0  0  0  0  0  0  0  0  0  0
    0.1021    1.1806   -1.0908 C   0  0  0  0  0  0  0  0  0  0  0  0
   -0.6960    1.8918   -1.3305 H   0  0  0  0  0  0  0  0  0  0  0  0
    1.0452    1.7377   -1.0703 H   0  0  0  0  0  0  0  0  0  0  0  0
    0.1985    0.1026   -2.1877 C   0  0  0  0  0  0  0  0  0  0  0  0
    1.0234   -0.5795   -1.9612 H   0  0  0  0  0  0  0  0  0  0  0  0
   -0.7194   -0.4904   -2.2275 H   0  0  0  0  0  0  0  0  0  0  0  0
    0.4260    0.7287   -3.5612 C   0  0  0  0  0  0  0  0  0  0  0  0
   -0.5909    1.1511   -4.1667 O   0  5  0  0  0  0  0  0  0  0  0  0
    1.5967    0.7588   -4.0128 O   0  0  0  0  0  0  0  0  0  0  0  0
   -0.0139    1.5341    1.4677 C   0  0  0  0  0  0  0  0  0  0  0  0
    0.5381    2.6228    1.3635 O   0  0  0  0  0  0  0  0  0  0  0  0
   -0.5153    1.1640    2.7014 N   0  0  0  0  0  0  0  0  0  0  0  0
   -0.8518    0.2009    2.7656 H   0  0  0  0  0  0  0  0  0  0  0  0
   -0.3478    1.9449    3.9170 C   0  0  0  0  0  0  0  0  0  0  0  0
   -0.7815    2.9425    3.7934 H   0  0  0  0  0  0  0  0  0  0  0  0
   -0.8518    1.4502    4.7525 H   0  0  0  0  0  0  0  0  0  0  0  0
    0.7141    2.0473    4.1620 H   0  0  0  0  0  0  0  0  0  0  0  0
  1  2  1  0  0  0  0
  2  3  1  0  0  0  0
  2  4  1  0  0  0  0
  2  5  1  0  0  0  0
  5  6  2  0  0  0  0
  5  7  1  0  0  0  0
  7  8  1  0  0  0  0
  7  9  1  0  0  0  0
  9 10  1  0  0  0  0
  9 11  1  0  0  0  0
  9 20  1  0  0  0  0
 11 12  1  0  0  0  0
 11 13  1  0  0  0  0
 11 14  1  0  0  0  0
 14 15  1  0  0  0  0
 14 16  1  0  0  0  0
 14 17  1  0  0  0  0
 17 18  1  0  0  0  0
 17 19  2  0  0  0  0
 20 21  2  0  0  0  0
 20 22  1  0  0  0  0
 22 23  1  0  0  0  0
 22 24  1  0  0  0  0
 24 25  1  0  0  0  0
 24 26  1  0  0  0  0
 24 27  1  0  0  0  0
M  CHG  1  18  -1
M  END
$$$$

  -OEChem-01062216073D

 27 26  0     1  0  0  0  0  0999 V2000
   -3.2263   -2.8095    1.1304 H   0  0  0  0  0  0  0  0  0  0  0  0
   -3.1018   -1.9130    0.5164 C   0  0  0  0  0  0  0  0  0  0  0  0
   -3.9618   -1.2567    0.6713 H   0  0  0  0  0  0  0  0  0  0  0  0
   -3.0650   -2.2089   -0.5354 H   0  0  0  0  0  0  0  0  0  0  0  0
   -1.8220   -1.1893    0.8942 C   0  0  0  0  0  0  0  0  0  0  0  0
   -1.1318   -1.5960    1.8200 O   0  0  0  0  0  0  0  0  0  0  0  0
   -1.4702   -0.0311    0.2375 N   0  0  0  0  0  0  0  0  0  0  0  0
   -2.0309    0.2118   -0.5767 H   0  0  0  0  0  0  0  0  0  0  0  0
   -0.1114    0.5338    0.2755 C   0  0  1  0  0  0  0  0  0  0  0  0
    0.6321   -0.2575    0.4157 H   0  0  0  0  0  0  0  0  0  0  0  0
    0.1355    1.1763   -1.1018 C   0  0  0  0  0  0  0  0  0  0  0  0
   -0.6547    1.9013   -1.3261 H   0  0  0  0  0  0  0  0  0  0  0  0
    1.0872    1.7190   -1.0886 H   0  0  0  0  0  0  0  0  0  0  0  0
    0.1974    0.1034   -2.2061 C   0  0  0  0  0  0  0  0  0  0  0  0
    1.0130   -0.5952   -1.9963 H   0  0  0  0  0  0  0  0  0  0  0  0
   -0.7318   -0.4723   -2.2347 H   0  0  0  0  0  0  0  0  0  0  0  0
    0.4159    0.7331   -3.5793 C   0  0  0  0  0  0  0  0  0  0  0  0
   -0.6074    1.1289   -4.1916 O   0  5  0  0  0  0  0  0  0  0  0  0
    1.5889    0.7973   -4.0213 O   0  0  0  0  0  0  0  0  0  0  0  0
    0.0521    1.5149    1.4590 C   0  0  0  0  0  0  0  0  0  0  0  0
    0.3492    2.6955    1.3202 O   0  0  0  0  0  0  0  0  0  0  0  0
   -0.1445    1.0247    2.7356 N   0  0  0  0  0  0  0  0  0  0  0  0
   -0.4413    0.0477    2.7957 H   0  0  0  0  0  0  0  0  0  0  0  0
   -0.0716    1.8311    3.9440 C   0  0  0  0  0  0  0  0  0  0  0  0
   -0.8335    2.6169    3.9257 H   0  0  0  0  0  0  0  0  0  0  0  0
   -0.2405    1.2034    4.8238 H   0  0  0  0  0  0  0  0  0  0  0  0
    0.9156    2.2955    4.0352 H   0  0  0  0  0  0  0  0  0  0  0  0
  1  2  1  0  0  0  0
  2  3  1  0  0  0  0
  2  4  1  0  0  0  0
  2  5  1  0  0  0  0
  5  6  2  0  0  0  0
  5  7  1  0  0  0  0
  7  8  1  0  0  0  0
  7  9  1  0  0  0  0
  9 10  1  0  0  0  0
  9 11  1  0  0  0  0
  9 20  1  0  0  0  0
 11 12  1  0  0  0  0
 11 13  1  0  0  0  0
 11 14  1  0  0  0  0
 14 15  1  0  0  0  0
 14 16  1  0  0  0  0
 14 17  1  0  0  0  0
 17 18  1  0  0  0  0
 17 19  2  0  0  0  0
 20 21  2  0  0  0  0
 20 22  1  0  0  0  0
 22 23  1  0  0  0  0
 22 24  1  0  0  0  0
 24 25  1  0  0  0  0
 24 26  1  0  0  0  0
 24 27  1  0  0  0  0
M  CHG  1  18  -1
M  END
$$$$

  -OEChem-01062216073D

 27 26  0     1  0  0  0  0  0999 V2000
   -3.2138   -2.7640    1.2150 H   0  0  0  0  0  0  0  0  0  0  0  0
   -3.0943   -1.8788    0.5842 C   0  0  0  0  0  0  0  0  0  0  0  0
   -3.9387   -1.2063    0.7551 H   0  0  0  0  0  0  0  0  0  0  0  0
   -3.0937   -2.1899   -0.4638 H   0  0  0  0  0  0  0  0  0  0  0  0
   -1.7931   -1.1699    0.9125 C   0  0  0  0  0  0  0  0  0  0  0  0
   -1.0699   -1.5857    1.8097 O   0  0  0  0  0  0  0  0  0  0  0  0
   -1.4508   -0.0181    0.2394 N   0  0  0  0  0  0  0  0  0  0  0  0
   -2.0311    0.2348   -0.5577 H   0  0  0  0  0  0  0  0  0  0  0  0
   -0.0888    0.5340    0.2585 C   0  0  1  0  0  0  0  0  0  0  0  0
    0.6527   -0.2606    0.3917 H   0  0  0  0  0  0  0  0  0  0  0  0
    0.1569    1.1778   -1.1178 C   0  0  0  0  0  0  0  0  0  0  0  0
   -0.6284    1.9102   -1.3360 H   0  0  0  0  0  0  0  0  0  0  0  0
    1.1129    1.7127   -1.1061 H   0  0  0  0  0  0  0  0  0  0  0  0
    0.1995    0.1081   -2.2255 C   0  0  0  0  0  0  0  0  0  0  0  0
    1.0090   -0.5998   -2.0241 H   0  0  0  0  0  0  0  0  0  0  0  0
   -0.7361   -0.4575   -2.2478 H   0  0  0  0  0  0  0  0  0  0  0  0
    0.4171    0.7386   -3.5985 C   0  0  0  0  0  0  0  0  0  0  0  0
   -0.6095    1.0547   -4.2502 O   0  5  0  0  0  0  0  0  0  0  0  0
    1.5977    0.8885   -3.9980 O   0  0  0  0  0  0  0  0  0  0  0  0
    0.0791    1.5170    1.4365 C   0  0  0  0  0  0  0  0  0  0  0  0
    0.1186    2.7342    1.2992 O   0  0  0  0  0  0  0  0  0  0  0  0
    0.1976    0.9771    2.7027 N   0  0  0  0  0  0  0  0  0  0  0  0
   -0.0341   -0.0165    2.7715 H   0  0  0  0  0  0  0  0  0  0  0  0
    0.2389    1.7780    3.9163 C   0  0  0  0  0  0  0  0  0  0  0  0
   -0.6955    2.3348    4.0387 H   0  0  0  0  0  0  0  0  0  0  0  0
    0.3763    1.1310    4.7875 H   0  0  0  0  0  0  0  0  0  0  0  0
    1.0722    2.4870    3.8793 H   0  0  0  0  0  0  0  0  0  0  0  0
  1  2  1  0  0  0  0
  2  3  1  0  0  0  0
  2  4  1  0  0  0  0
  2  5  1  0  0  0  0
  5  6  2  0  0  0  0
  5  7  1  0  0  0  0
  7  8  1  0  0  0  0
  7  9  1  0  0  0  0
  9 10  1  0  0  0  0
  9 11  1  0  0  0  0
  9 20  1  0  0  0  0
 11 12  1  0  0  0  0
 11 13  1  0  0  0  0
 11 14  1  0  0  0  0
 14 15  1  0  0  0  0
 14 16  1  0  0  0  0
 14 17  1  0  0  0  0
 17 18  1  0  0  0  0
 17 19  2  0  0  0  0
 20 21  2  0  0  0  0
 20 22  1  0  0  0  0
 22 23  1  0  0  0  0
 22 24  1  0  0  0  0
 24 25  1  0  0  0  0
 24 26  1  0  0  0  0
 24 27  1  0  0  0  0
M  CHG  1  18  -1
M  END
$$$$

  -OEChem-01062216073D

 27 26  0     1  0  0  0  0  0999 V2000
   -3.2002   -2.7561    1.2612 H   0  0  0  0  0  0  0  0  0  0  0  0
   -3.0939   -1.8724    0.6262 C   0  0  0  0  0  0  0  0  0  0  0  0
   -3.9292   -1.1948    0.8203 H   0  0  0  0  0  0  0  0  0  0  0  0
   -3.1244   -2.1845   -0.4209 H   0  0  0  0  0  0  0  0  0  0  0  0
   -1.7800   -1.1705    0.9160 C   0  0  0  0  0  0  0  0  0  0  0  0
   -1.0265   -1.5972    1.7830 O   0  0  0  0  0  0  0  0  0  0  0  0
   -1.4502   -0.0225    0.2308 N   0  0  0  0  0  0  0  0  0  0  0  0
   -2.0511    0.2456   -0.5455 H   0  0  0  0  0  0  0  0  0  0  0  0
   -0.0919    0.5340    0.2445 C   0  0  1  0  0  0  0  0  0  0  0  0
    0.6529   -0.2576    0.3765 H   0  0  0  0  0  0  0  0  0  0  0  0
    0.1594    1.1804   -1.1286 C   0  0  0  0  0  0  0  0  0  0  0  0
   -0.6261    1.9115   -1.3498 H   0  0  0  0  0  0  0  0  0  0  0  0
    1.1140    1.7176   -1.1100 H   0  0  0  0  0  0  0  0  0  0  0  0
    0.2079    0.1138   -2.2382 C   0  0  0  0  0  0  0  0  0  0  0  0
    1.0166   -0.5946   -2.0355 H   0  0  0  0  0  0  0  0  0  0  0  0
   -0.7277   -0.4519   -2.2656 H   0  0  0  0  0  0  0  0  0  0  0  0
    0.4318    0.7501   -3.6076 C   0  0  0  0  0  0  0  0  0  0  0  0
   -0.5898    1.0463   -4.2761 O   0  5  0  0  0  0  0  0  0  0  0  0
    1.6158    0.9300   -3.9844 O   0  0  0  0  0  0  0  0  0  0  0  0
    0.0696    1.5257    1.4143 C   0  0  0  0  0  0  0  0  0  0  0  0
   -0.1605    2.7251    1.3088 O   0  0  0  0  0  0  0  0  0  0  0  0
    0.5019    1.0222    2.6263 N   0  0  0  0  0  0  0  0  0  0  0  0
    0.4268    0.0089    2.7174 H   0  0  0  0  0  0  0  0  0  0  0  0
    0.5702    1.8256    3.8374 C   0  0  0  0  0  0  0  0  0  0  0  0
   -0.4273    2.1763    4.1209 H   0  0  0  0  0  0  0  0  0  0  0  0
    0.9778    1.2302    4.6596 H   0  0  0  0  0  0  0  0  0  0  0  0
    1.2209    2.6927    3.6847 H   0  0  0  0  0  0  0  0  0  0  0  0
  1  2  1  0  0  0  0
  2  3  1  0  0  0  0
  2  4  1  0  0  0  0
  2  5  1  0  0  0  0
  5  6  2  0  0  0  0
  5  7  1  0  0  0  0
  7  8  1  0  0  0  0
  7  9  1  0  0  0  0
  9 10  1  0  0  0  0
  9 11  1  0  0  0  0
  9 20  1  0  0  0  0
 11 12  1  0  0  0  0
 11 13  1  0  0  0  0
 11 14  1  0  0  0  0
 14 15  1  0  0  0  0
 14 16  1  0  0  0  0
 14 17  1  0  0  0  0
 17 18  1  0  0  0  0
 17 19  2  0  0  0  0
 20 21  2  0  0  0  0
 20 22  1  0  0  0  0
 22 23  1  0  0  0  0
 22 24  1  0  0  0  0
 24 25  1  0  0  0  0
 24 26  1  0  0  0  0
 24 27  1  0  0  0  0
M  CHG  1  18  -1
M  END
$$$$

  -OEChem-01062216073D

 27 26  0     1  0  0  0  0  0999 V2000
   -3.2285   -2.7564    1.2920 H   0  0  0  0  0  0  0  0  0  0  0  0
   -3.1264   -1.8661    0.6654 C   0  0  0  0  0  0  0  0  0  0  0  0
   -3.9278   -1.1656    0.9135 H   0  0  0  0  0  0  0  0  0  0  0  0
   -3.2222   -2.1597   -0.3831 H   0  0  0  0  0  0  0  0  0  0  0  0
   -1.7765   -1.2114    0.8974 C   0  0  0  0  0  0  0  0  0  0  0  0
   -0.9913   -1.6850    1.7091 O   0  0  0  0  0  0  0  0  0  0  0  0
   -1.4463   -0.0622    0.2144 N   0  0  0  0  0  0  0  0  0  0  0  0
   -2.0902    0.2664   -0.5011 H   0  0  0  0  0  0  0  0  0  0  0  0
   -0.0989    0.5193    0.2317 C   0  0  1  0  0  0  0  0  0  0  0  0
    0.6545   -0.2633    0.3652 H   0  0  0  0  0  0  0  0  0  0  0  0
    0.1555    1.1764   -1.1349 C   0  0  0  0  0  0  0  0  0  0  0  0
   -0.6406    1.8950   -1.3591 H   0  0  0  0  0  0  0  0  0  0  0  0
    1.1002    1.7302   -1.1037 H   0  0  0  0  0  0  0  0  0  0  0  0
    0.2323    0.1201   -2.2521 C   0  0  0  0  0  0  0  0  0  0  0  0
    1.0504   -0.5771   -2.0485 H   0  0  0  0  0  0  0  0  0  0  0  0
   -0.6940   -0.4601   -2.2922 H   0  0  0  0  0  0  0  0  0  0  0  0
    0.4600    0.7730   -3.6132 C   0  0  0  0  0  0  0  0  0  0  0  0
   -0.5525    0.9951   -4.3228 O   0  5  0  0  0  0  0  0  0  0  0  0
    1.6409    1.0494   -3.9386 O   0  0  0  0  0  0  0  0  0  0  0  0
    0.0537    1.5234    1.3923 C   0  0  0  0  0  0  0  0  0  0  0  0
   -0.4572    2.6378    1.3626 O   0  0  0  0  0  0  0  0  0  0  0  0
    0.7791    1.1446    2.5065 N   0  0  0  0  0  0  0  0  0  0  0  0
    0.9741    0.1492    2.5823 H   0  0  0  0  0  0  0  0  0  0  0  0
    0.8722    1.9642    3.7057 C   0  0  0  0  0  0  0  0  0  0  0  0
   -0.1204    2.1211    4.1401 H   0  0  0  0  0  0  0  0  0  0  0  0
    1.5038    1.4703    4.4499 H   0  0  0  0  0  0  0  0  0  0  0  0
    1.3140    2.9378    3.4703 H   0  0  0  0  0  0  0  0  0  0  0  0
  1  2  1  0  0  0  0
  2  3  1  0  0  0  0
  2  4  1  0  0  0  0
  2  5  1  0  0  0  0
  5  6  2  0  0  0  0
  5  7  1  0  0  0  0
  7  8  1  0  0  0  0
  7  9  1  0  0  0  0
  9 10  1  0  0  0  0
  9 11  1  0  0  0  0
  9 20  1  0  0  0  0
 11 12  1  0  0  0  0
 11 13  1  0  0  0  0
 11 14  1  0  0  0  0
 14 15  1  0  0  0  0
 14 16  1  0  0  0  0
 14 17  1  0  0  0  0
 17 18  1  0  0  0  0
 17 19  2  0  0  0  0
 20 21  2  0  0  0  0
 20 22  1  0  0  0  0
 22 23  1  0  0  0  0
 22 24  1  0  0  0  0
 24 25  1  0  0  0  0
 24 26  1  0  0  0  0
 24 27  1  0  0  0  0
M  CHG  1  18  -1
M  END
$$$$

  -OEChem-01062216073D

 27 26  0     1  0  0  0  0  0999 V2000
   -3.2659   -2.7535    1.3075 H   0  0  0  0  0  0  0  0  0  0  0  0
   -3.1677   -1.8450    0.7070 C   0  0  0  0  0  0  0  0  0  0  0  0
   -3.9249   -1.1254    1.0283 H   0  0  0  0  0  0  0  0  0  0  0  0
   -3.3377   -2.0961   -0.3432 H   0  0  0  0  0  0  0  0  0  0  0  0
   -1.7820   -1.2488    0.8766 C   0  0  0  0  0  0  0  0  0  0  0  0
   -0.9713   -1.7779    1.6254 O   0  0  0  0  0  0  0  0  0  0  0  0
   -1.4480   -0.0988    0.1975 N   0  0  0  0  0  0  0  0  0  0  0  0
   -2.1407    0.3071   -0.4257 H   0  0  0  0  0  0  0  0  0  0  0  0
   -0.1101    0.5047    0.2193 C   0  0  1  0  0  0  0  0  0  0  0  0
    0.6479   -0.2721    0.3592 H   0  0  0  0  0  0  0  0  0  0  0  0
    0.1520    1.1711   -1.1401 C   0  0  0  0  0  0  0  0  0  0  0  0
   -0.6501    1.8816   -1.3683 H   0  0  0  0  0  0  0  0  0  0  0  0
    1.0893    1.7362   -1.0934 H   0  0  0  0  0  0  0  0  0  0  0  0
    0.2559    0.1248   -2.2646 C   0  0  0  0  0  0  0  0  0  0  0  0
    1.0813   -0.5625   -2.0581 H   0  0  0  0  0  0  0  0  0  0  0  0
   -0.6627   -0.4671   -2.3141 H   0  0  0  0  0  0  0  0  0  0  0  0
    0.4922    0.7856   -3.6218 C   0  0  0  0  0  0  0  0  0  0  0  0
   -0.4342    0.7201   -4.4676 O   0  5  0  0  0  0  0  0  0  0  0  0
    1.5925    1.3629   -3.8052 O   0  0  0  0  0  0  0  0  0  0  0  0
    0.0347    1.5197    1.3717 C   0  0  0  0  0  0  0  0  0  0  0  0
   -0.7162    2.4844    1.4736 O   0  0  0  0  0  0  0  0  0  0  0  0
    0.9994    1.3158    2.3411 N   0  0  0  0  0  0  0  0  0  0  0  0
    1.4874    0.4258    2.3122 H   0  0  0  0  0  0  0  0  0  0  0  0
    1.1243    2.1457    3.5301 C   0  0  0  0  0  0  0  0  0  0  0  0
    0.2127    2.0885    4.1334 H   0  0  0  0  0  0  0  0  0  0  0  0
    1.9665    1.8044    4.1391 H   0  0  0  0  0  0  0  0  0  0  0  0
    1.3007    3.1897    3.2517 H   0  0  0  0  0  0  0  0  0  0  0  0
  1  2  1  0  0  0  0
  2  3  1  0  0  0  0
  2  4  1  0  0  0  0
  2  5  1  0  0  0  0
  5  6  2  0  0  0  0
  5  7  1  0  0  0  0
  7  8  1  0  0  0  0
  7  9  1  0  0  0  0
  9 10  1  0  0  0  0
  9 11  1  0  0  0  0
  9 20  1  0  0  0  0
 11 12  1  0  0  0  0
 11 13  1  0  0  0  0
 11 14  1  0  0  0  0
 14 15  1  0  0  0  0
 14 16  1  0  0  0  0
 14 17  1  0  0  0  0
 17 18  1  0  0  0  0
 17 19  2  0  0  0  0
 20 21  2  0  0  0  0
 20 22  1  0  0  0  0
 22 23  1  0  0  0  0
 22 24  1  0  0  0  0
 24 25  1  0  0  0  0
 24 26  1  0  0  0  0
 24 27  1  0  0  0  0
M  CHG  1  18  -1
M  END
$$$$

  -OEChem-01062216073D

 27 26  0     1  0  0  0  0  0999 V2000
   -3.2908   -2.7849    1.3061 H   0  0  0  0  0  0  0  0  0  0  0  0
   -3.2049   -1.8483    0.7485 C   0  0  0  0  0  0  0  0  0  0  0  0
   -3.9079   -1.1229    1.1655 H   0  0  0  0  0  0  0  0  0  0  0  0
   -3.4637   -2.0354   -0.2968 H   0  0  0  0  0  0  0  0  0  0  0  0
   -1.7892   -1.3083    0.8413 C   0  0  0  0  0  0  0  0  0  0  0  0
   -0.9552   -1.8902    1.5216 O   0  0  0  0  0  0  0  0  0  0  0  0
   -1.4595   -0.1512    0.1714 N   0  0  0  0  0  0  0  0  0  0  0  0
   -2.1971    0.3344   -0.3310 H   0  0  0  0  0  0  0  0  0  0  0  0
   -0.1325    0.4768    0.2133 C   0  0  1  0  0  0  0  0  0  0  0  0
    0.6322   -0.2911    0.3645 H   0  0  0  0  0  0  0  0  0  0  0  0
    0.1479    1.1613   -1.1327 C   0  0  0  0  0  0  0  0  0  0  0  0
   -0.6603    1.8621   -1.3690 H   0  0  0  0  0  0  0  0  0  0  0  0
    1.0753    1.7402   -1.0593 H   0  0  0  0  0  0  0  0  0  0  0  0
    0.2919    0.1344   -2.2697 C   0  0  0  0  0  0  0  0  0  0  0  0
    1.1219   -0.5450   -2.0563 H   0  0  0  0  0  0  0  0  0  0  0  0
   -0.6179   -0.4680   -2.3475 H   0  0  0  0  0  0  0  0  0  0  0  0
    0.5470    0.8223   -3.6104 C   0  0  0  0  0  0  0  0  0  0  0  0
   -0.3326    0.7099   -4.4997 O   0  5  0  0  0  0  0  0  0  0  0  0
    1.6144    1.4734   -3.7349 O   0  0  0  0  0  0  0  0  0  0  0  0
   -0.0106    1.4953    1.3657 C   0  0  0  0  0  0  0  0  0  0  0  0
   -0.9196    2.2790    1.6218 O   0  0  0  0  0  0  0  0  0  0  0  0
    1.1194    1.4988    2.1627 N   0  0  0  0  0  0  0  0  0  0  0  0
    1.8353    0.8098    1.9552 H   0  0  0  0  0  0  0  0  0  0  0  0
    1.3038    2.3936    3.2955 C   0  0  0  0  0  0  0  0  0  0  0  0
    0.5363    2.2117    4.0547 H   0  0  0  0  0  0  0  0  0  0  0  0
    2.2860    2.2289    3.7483 H   0  0  0  0  0  0  0  0  0  0  0  0
    1.2432    3.4379    2.9722 H   0  0  0  0  0  0  0  0  0  0  0  0
  1  2  1  0  0  0  0
  2  3  1  0  0  0  0
  2  4  1  0  0  0  0
  2  5  1  0  0  0  0
  5  6  2  0  0  0  0
  5  7  1  0  0  0  0
  7  8  1  0  0  0  0
  7  9  1  0  0  0  0
  9 10  1  0  0  0  0
  9 11  1  0  0  0  0
  9 20  1  0  0  0  0
 11 12  1  0  0  0  0
 11 13  1  0  0  0  0
 11 14  1  0  0  0  0
 14 15  1  0  0  0  0
 14 16  1  0  0  0  0
 14 17  1  0  0  0  0
 17 18  1  0  0  0  0
 17 19  2  0  0  0  0
 20 21  2  0  0  0  0
 20 22  1  0  0  0  0
 22 23  1  0  0  0  0
 22 24  1  0  0  0  0
 24 25  1  0  0  0  0
 24 26  1  0  0  0  0
 24 27  1  0  0  0  0
M  CHG  1  18  -1
M  END
$$$$

  -OEChem-01062216073D

 27 26  0     1  0  0  0  0  0999 V2000
   -3.1650   -2.9211    1.3221 H   0  0  0  0  0  0  0  0  0  0  0  0
   -3.1045   -2.0017    0.7334 C   0  0  0  0  0  0  0  0  0  0  0  0
   -3.8409   -1.2893    1.1134 H   0  0  0  0  0  0  0  0  0  0  0  0
   -3.3376   -2.2339   -0.3089 H   0  0  0  0  0  0  0  0  0  0  0  0
   -1.7118   -1.4055    0.8290 C   0  0  0  0  0  0  0  0  0  0  0  0
   -0.8533   -1.9603    1.5011 O   0  0  0  0  0  0  0  0  0  0  0  0
   -1.4307   -0.2367    0.1574 N   0  0  0  0  0  0  0  0  0  0  0  0
   -2.1972    0.2294   -0.3194 H   0  0  0  0  0  0  0  0  0  0  0  0
   -0.1430    0.4665    0.2287 C   0  0  1  0  0  0  0  0  0  0  0  0
    0.6598   -0.2562    0.4055 H   0  0  0  0  0  0  0  0  0  0  0  0
    0.1240    1.1598   -1.1151 C   0  0  0  0  0  0  0  0  0  0  0  0
   -0.7209    1.8093   -1.3696 H   0  0  0  0  0  0  0  0  0  0  0  0
    1.0133    1.7939   -1.0307 H   0  0  0  0  0  0  0  0  0  0  0  0
    0.3518    0.1429   -2.2449 C   0  0  0  0  0  0  0  0  0  0  0  0
    1.2188   -0.4826   -2.0135 H   0  0  0  0  0  0  0  0  0  0  0  0
   -0.5160   -0.5152   -2.3467 H   0  0  0  0  0  0  0  0  0  0  0  0
    0.5903    0.8618   -3.5706 C   0  0  0  0  0  0  0  0  0  0  0  0
    1.7402    1.3236   -3.7770 O   0  5  0  0  0  0  0  0  0  0  0  0
   -0.3812    0.9732   -4.3586 O   0  0  0  0  0  0  0  0  0  0  0  0
   -0.0954    1.5033    1.3704 C   0  0  0  0  0  0  0  0  0  0  0  0
   -1.1105    2.0712    1.7625 O   0  0  0  0  0  0  0  0  0  0  0  0
    1.1108    1.7903    1.9830 N   0  0  0  0  0  0  0  0  0  0  0  0
    1.9409    1.3513    1.5967 H   0  0  0  0  0  0  0  0  0  0  0  0
    1.2611    2.7845    3.0353 C   0  0  0  0  0  0  0  0  0  0  0  0
    0.6084    2.5482    3.8819 H   0  0  0  0  0  0  0  0  0  0  0  0
    2.2953    2.8009    3.3915 H   0  0  0  0  0  0  0  0  0  0  0  0
    1.0069    3.7803    2.6583 H   0  0  0  0  0  0  0  0  0  0  0  0
  1  2  1  0  0  0  0
  2  3  1  0  0  0  0
  2  4  1  0  0  0  0
  2  5  1  0  0  0  0
  5  6  2  0  0  0  0
  5  7  1  0  0  0  0
  7  8  1  0  0  0  0
  7  9  1  0  0  0  0
  9 10  1  0  0  0  0
  9 11  1  0  0  0  0
  9 20  1  0  0  0  0
 11 12  1  0  0  0  0
 11 13  1  0  0  0  0
 11 14  1  0  0  0  0
 14 15  1  0  0  0  0
 14 16  1  0  0  0  0
 14 17  1  0  0  0  0
 17 18  1  0  0  0  0
 17 19  2  0  0  0  0
 20 21  2  0  0  0  0
 20 22  1  0  0  0  0
 22 23  1  0  0  0  0
 22 24  1  0  0  0  0
 24 25  1  0  0  0  0
 24 26  1  0  0  0  0
 24 27  1  0  0  0  0
M  CHG  1  18  -1
M  END
$$$$

  -OEChem-01062216073D

 27 26  0     1  0  0  0  0  0999 V2000
   -3.1765   -2.9355    1.2967 H   0  0  0  0  0  0  0  0  0  0  0  0
   -3.1235   -1.9905    0.7491 C   0  0  0  0  0  0  0  0  0  0  0  0
   -3.8320   -1.2857    1.1914 H   0  0  0  0  0  0  0  0  0  0  0  0
   -3.4023   -2.1703   -0.2924 H   0  0  0  0  0  0  0  0  0  0  0  0
   -1.7179   -1.4202    0.8171 C   0  0  0  0  0  0  0  0  0  0  0  0
   -0.8555   -1.9991    1.4633 O   0  0  0  0  0  0  0  0  0  0  0  0
   -1.4307   -0.2515    0.1469 N   0  0  0  0  0  0  0  0  0  0  0  0
   -2.2053    0.2364   -0.2926 H   0  0  0  0  0  0  0  0  0  0  0  0
   -0.1431    0.4524    0.2342 C   0  0  1  0  0  0  0  0  0  0  0  0
    0.6596   -0.2683    0.4199 H   0  0  0  0  0  0  0  0  0  0  0  0
    0.1313    1.1482   -1.1082 C   0  0  0  0  0  0  0  0  0  0  0  0
   -0.7141    1.7961   -1.3653 H   0  0  0  0  0  0  0  0  0  0  0  0
    1.0183    1.7846   -1.0198 H   0  0  0  0  0  0  0  0  0  0  0  0
    0.3693    0.1395   -2.2423 C   0  0  0  0  0  0  0  0  0  0  0  0
    1.2368   -0.4851   -2.0103 H   0  0  0  0  0  0  0  0  0  0  0  0
   -0.4964   -0.5199   -2.3535 H   0  0  0  0  0  0  0  0  0  0  0  0
    0.6137    0.8719   -3.5597 C   0  0  0  0  0  0  0  0  0  0  0  0
    1.7448    1.3925   -3.7272 O   0  5  0  0  0  0  0  0  0  0  0  0
   -0.3375    0.9416   -4.3766 O   0  0  0  0  0  0  0  0  0  0  0  0
   -0.1000    1.4940    1.3740 C   0  0  0  0  0  0  0  0  0  0  0  0
   -1.1235    1.8890    1.9250 O   0  0  0  0  0  0  0  0  0  0  0  0
    1.1181    2.0070    1.7822 N   0  0  0  0  0  0  0  0  0  0  0  0
    1.9329    1.7415    1.2366 H   0  0  0  0  0  0  0  0  0  0  0  0
    1.2528    3.0558    2.7826 C   0  0  0  0  0  0  0  0  0  0  0  0
    0.8085    2.7390    3.7317 H   0  0  0  0  0  0  0  0  0  0  0  0
    2.3104    3.2776    2.9539 H   0  0  0  0  0  0  0  0  0  0  0  0
    0.7558    3.9715    2.4461 H   0  0  0  0  0  0  0  0  0  0  0  0
  1  2  1  0  0  0  0
  2  3  1  0  0  0  0
  2  4  1  0  0  0  0
  2  5  1  0  0  0  0
  5  6  2  0  0  0  0
  5  7  1  0  0  0  0
  7  8  1  0  0  0  0
  7  9  1  0  0  0  0
  9 10  1  0  0  0  0
  9 11  1  0  0  0  0
  9 20  1  0  0  0  0
 11 12  1  0  0  0  0
 11 13  1  0  0  0  0
 11 14  1  0  0  0  0
 14 15  1  0  0  0  0
 14 16  1  0  0  0  0
 14 17  1  0  0  0  0
 17 18  1  0  0  0  0
 17 19  2  0  0  0  0
 20 21  2  0  0  0  0
 20 22  1  0  0  0  0
 22 23  1  0  0  0  0
 22 24  1  0  0  0  0
 24 25  1  0  0  0  0
 24 26  1  0  0  0  0
 24 27  1  0  0  0  0
M  CHG  1  18  -1
M  END
$$$$

  -OEChem-01062216073D

 27 26  0     1  0  0  0  0  0999 V2000
   -3.1401   -2.9424    1.2856 H   0  0  0  0  0  0  0  0  0  0  0  0
   -3.1139   -1.9545    0.8178 C   0  0  0  0  0  0  0  0  0  0  0  0
   -3.7244   -1.2670    1.4086 H   0  0  0  0  0  0  0  0  0  0  0  0
   -3.5328   -2.0295   -0.1887 H   0  0  0  0  0  0  0  0  0  0  0  0
   -1.6859   -1.4439    0.7477 C   0  0  0  0  0  0  0  0  0  0  0  0
   -0.7794   -2.0970    1.2462 O   0  0  0  0  0  0  0  0  0  0  0  0
   -1.4208   -0.2641    0.0860 N   0  0  0  0  0  0  0  0  0  0  0  0
   -2.2231    0.2763   -0.2227 H   0  0  0  0  0  0  0  0  0  0  0  0
   -0.1352    0.4402    0.2006 C   0  0  1  0  0  0  0  0  0  0  0  0
    0.6833   -0.2827    0.1223 H   0  0  0  0  0  0  0  0  0  0  0  0
   -0.0250    1.4347   -0.9685 C   0  0  0  0  0  0  0  0  0  0  0  0
   -0.8991    2.0950   -0.9721 H   0  0  0  0  0  0  0  0  0  0  0  0
    0.8613    2.0647   -0.8409 H   0  0  0  0  0  0  0  0  0  0  0  0
    0.0884    0.7246   -2.3258 C   0  0  0  0  0  0  0  0  0  0  0  0
    0.9829    0.0953   -2.3451 H   0  0  0  0  0  0  0  0  0  0  0  0
   -0.7783    0.0785   -2.4931 H   0  0  0  0  0  0  0  0  0  0  0  0
    0.1709    1.7545   -3.4503 C   0  0  0  0  0  0  0  0  0  0  0  0
    1.2656    2.3516   -3.6038 O   0  5  0  0  0  0  0  0  0  0  0  0
   -0.8680    1.9749   -4.1201 O   0  0  0  0  0  0  0  0  0  0  0  0
    0.0394    1.1846    1.5473 C   0  0  0  0  0  0  0  0  0  0  0  0
   -0.8615    1.2335    2.3803 O   0  0  0  0  0  0  0  0  0  0  0  0
    1.2037    1.8907    1.7947 N   0  0  0  0  0  0  0  0  0  0  0  0
    1.8774    1.9410    1.0354 H   0  0  0  0  0  0  0  0  0  0  0  0
    1.3985    2.7368    2.9631 C   0  0  0  0  0  0  0  0  0  0  0  0
    1.2889    2.1520    3.8821 H   0  0  0  0  0  0  0  0  0  0  0  0
    2.4025    3.1713    2.9484 H   0  0  0  0  0  0  0  0  0  0  0  0
    0.6671    3.5513    2.9713 H   0  0  0  0  0  0  0  0  0  0  0  0
  1  2  1  0  0  0  0
  2  3  1  0  0  0  0
  2  4  1  0  0  0  0
  2  5  1  0  0  0  0
  5  6  2  0  0  0  0
  5  7  1  0  0  0  0
  7  8  1  0  0  0  0
  7  9  1  0  0  0  0
  9 10  1  0  0  0  0
  9 11  1  0  0  0  0
  9 20  1  0  0  0  0
 11 12  1  0  0  0  0
 11 13  1  0  0  0  0
 11 14  1  0  0  0  0
 14 15  1  0  0  0  0
 14 16  1  0  0  0  0
 14 17  1  0  0  0  0
 17 18  1  0  0  0  0
 17 19  2  0  0  0  0
 20 21  2  0  0  0  0
 20 22  1  0  0  0  0
 22 23  1  0  0  0  0
 22 24  1  0  0  0  0
 24 25  1  0  0  0  0
 24 26  1  0  0  0  0
 24 27  1  0  0  0  0
M  CHG  1  18  -1
M  END
$$$$

  -OEChem-01062216073D

 27 26  0     1  0  0  0  0  0999 V2000
   -3.1428   -2.9028    1.3292 H   0  0  0  0  0  0  0  0  0  0  0  0
   -3.1068   -1.9379    0.8159 C   0  0  0  0  0  0  0  0  0  0  0  0
   -3.7248   -1.2232    1.3651 H   0  0  0  0  0  0  0  0  0  0  0  0
   -3.5102   -2.0586   -0.1927 H   0  0  0  0  0  0  0  0  0  0  0  0
   -1.6765   -1.4338    0.7445 C   0  0  0  0  0  0  0  0  0  0  0  0
   -0.7696   -2.1031    1.2202 O   0  0  0  0  0  0  0  0  0  0  0  0
   -1.4094   -0.2517    0.0866 N   0  0  0  0  0  0  0  0  0  0  0  0
   -2.2109    0.2862   -0.2273 H   0  0  0  0  0  0  0  0  0  0  0  0
   -0.1239    0.4534    0.2028 C   0  0  1  0  0  0  0  0  0  0  0  0
    0.6981   -0.2656    0.1257 H   0  0  0  0  0  0  0  0  0  0  0  0
   -0.0289    1.4355   -0.9807 C   0  0  0  0  0  0  0  0  0  0  0  0
   -0.9069    2.0909   -0.9854 H   0  0  0  0  0  0  0  0  0  0  0  0
    0.8554    2.0710   -0.8740 H   0  0  0  0  0  0  0  0  0  0  0  0
    0.0820    0.7119   -2.3311 C   0  0  0  0  0  0  0  0  0  0  0  0
    0.9828    0.0916   -2.3497 H   0  0  0  0  0  0  0  0  0  0  0  0
   -0.7792    0.0556   -2.4865 H   0  0  0  0  0  0  0  0  0  0  0  0
    0.1485    1.7316   -3.4659 C   0  0  0  0  0  0  0  0  0  0  0  0
    1.2203    2.3738   -3.5995 O   0  5  0  0  0  0  0  0  0  0  0  0
   -0.8835    1.9041   -4.1597 O   0  0  0  0  0  0  0  0  0  0  0  0
    0.0518    1.1979    1.5533 C   0  0  0  0  0  0  0  0  0  0  0  0
   -0.7410    1.0532    2.4792 O   0  0  0  0  0  0  0  0  0  0  0  0
    1.0488    2.1473    1.7000 N   0  0  0  0  0  0  0  0  0  0  0  0
    1.6189    2.3425    0.8812 H   0  0  0  0  0  0  0  0  0  0  0  0
    1.1969    2.9922    2.8761 C   0  0  0  0  0  0  0  0  0  0  0  0
    1.3217    2.3793    3.7745 H   0  0  0  0  0  0  0  0  0  0  0  0
    2.0781    3.6316    2.7694 H   0  0  0  0  0  0  0  0  0  0  0  0
    0.3169    3.6310    3.0014 H   0  0  0  0  0  0  0  0  0  0  0  0
  1  2  1  0  0  0  0
  2  3  1  0  0  0  0
  2  4  1  0  0  0  0
  2  5  1  0  0  0  0
  5  6  2  0  0  0  0
  5  7  1  0  0  0  0
  7  8  1  0  0  0  0
  7  9  1  0  0  0  0
  9 10  1  0  0  0  0
  9 11  1  0  0  0  0
  9 20  1  0  0  0  0
 11 12  1  0  0  0  0
 11 13  1  0  0  0  0
 11 14  1  0  0  0  0
 14 15  1  0  0  0  0
 14 16  1  0  0  0  0
 14 17  1  0  0  0  0
 17 18  1  0  0  0  0
 17 19  2  0  0  0  0
 20 21  2  0  0  0  0
 20 22  1  0  0  0  0
 22 23  1  0  0  0  0
 22 24  1  0  0  0  0
 24 25  1  0  0  0  0
 24 26  1  0  0  0  0
 24 27  1  0  0  0  0
M  CHG  1  18  -1
M  END
$$$$

  -OEChem-01062216073D

 27 26  0     1  0  0  0  0  0999 V2000
   -3.1348   -2.8938    1.3256 H   0  0  0  0  0  0  0  0  0  0  0  0
   -3.1000   -1.9178    0.8337 C   0  0  0  0  0  0  0  0  0  0  0  0
   -3.6985   -1.2098    1.4123 H   0  0  0  0  0  0  0  0  0  0  0  0
   -3.5259   -2.0119   -0.1684 H   0  0  0  0  0  0  0  0  0  0  0  0
   -1.6666   -1.4257    0.7440 C   0  0  0  0  0  0  0  0  0  0  0  0
   -0.7591   -2.1111    1.1940 O   0  0  0  0  0  0  0  0  0  0  0  0
   -1.3993   -0.2439    0.0846 N   0  0  0  0  0  0  0  0  0  0  0  0
   -2.2006    0.2876   -0.2402 H   0  0  0  0  0  0  0  0  0  0  0  0
   -0.1150    0.4652    0.1977 C   0  0  1  0  0  0  0  0  0  0  0  0
    0.7104   -0.2506    0.1258 H   0  0  0  0  0  0  0  0  0  0  0  0
   -0.0274    1.4333   -0.9994 C   0  0  0  0  0  0  0  0  0  0  0  0
   -0.9065    2.0872   -1.0096 H   0  0  0  0  0  0  0  0  0  0  0  0
    0.8579    2.0692   -0.9054 H   0  0  0  0  0  0  0  0  0  0  0  0
    0.0848    0.6978   -2.3431 C   0  0  0  0  0  0  0  0  0  0  0  0
    0.9894    0.0828   -2.3588 H   0  0  0  0  0  0  0  0  0  0  0  0
   -0.7731    0.0355   -2.4918 H   0  0  0  0  0  0  0  0  0  0  0  0
    0.1429    1.7117   -3.4838 C   0  0  0  0  0  0  0  0  0  0  0  0
    1.2018    2.3760   -3.6101 O   0  5  0  0  0  0  0  0  0  0  0  0
   -0.8889    1.8653   -4.1825 O   0  0  0  0  0  0  0  0  0  0  0  0
    0.0546    1.2135    1.5503 C   0  0  0  0  0  0  0  0  0  0  0  0
   -0.5791    0.8898    2.5497 O   0  0  0  0  0  0  0  0  0  0  0  0
    0.8175    2.3667    1.6314 N   0  0  0  0  0  0  0  0  0  0  0  0
    1.2560    2.6888    0.7724 H   0  0  0  0  0  0  0  0  0  0  0  0
    0.9147    3.1969    2.8235 C   0  0  0  0  0  0  0  0  0  0  0  0
    1.2938    2.6120    3.6678 H   0  0  0  0  0  0  0  0  0  0  0  0
    1.6012    4.0297    2.6444 H   0  0  0  0  0  0  0  0  0  0  0  0
   -0.0662    3.6058    3.0864 H   0  0  0  0  0  0  0  0  0  0  0  0
  1  2  1  0  0  0  0
  2  3  1  0  0  0  0
  2  4  1  0  0  0  0
  2  5  1  0  0  0  0
  5  6  2  0  0  0  0
  5  7  1  0  0  0  0
  7  8  1  0  0  0  0
  7  9  1  0  0  0  0
  9 10  1  0  0  0  0
  9 11  1  0  0  0  0
  9 20  1  0  0  0  0
 11 12  1  0  0  0  0
 11 13  1  0  0  0  0
 11 14  1  0  0  0  0
 14 15  1  0  0  0  0
 14 16  1  0  0  0  0
 14 17  1  0  0  0  0
 17 18  1  0  0  0  0
 17 19  2  0  0  0  0
 20 21  2  0  0  0  0
 20 22  1  0  0  0  0
 22 23  1  0  0  0  0
 22 24  1  0  0  0  0
 24 25  1  0  0  0  0
 24 26  1  0  0  0  0
 24 27  1  0  0  0  0
M  CHG  1  18  -1
M  END
$$$$

  -OEChem-01062216073D

 27 26  0     1  0  0  0  0  0999 V2000
   -3.1376   -2.8915    1.3150 H   0  0  0  0  0  0  0  0  0  0  0  0
   -3.0977   -1.9163    0.8222 C   0  0  0  0  0  0  0  0  0  0  0  0
   -3.7091   -1.2095    1.3887 H   0  0  0  0  0  0  0  0  0  0  0  0
   -3.5060   -2.0142   -0.1867 H   0  0  0  0  0  0  0  0  0  0  0  0
   -1.6647   -1.4188    0.7560 C   0  0  0  0  0  0  0  0  0  0  0  0
   -0.7619   -2.1090    1.2066 O   0  0  0  0  0  0  0  0  0  0  0  0
   -1.3939   -0.2385    0.0949 N   0  0  0  0  0  0  0  0  0  0  0  0
   -2.1913    0.2750   -0.2663 H   0  0  0  0  0  0  0  0  0  0  0  0
   -0.1148    0.4809    0.2033 C   0  0  1  0  0  0  0  0  0  0  0  0
    0.7159   -0.2300    0.1412 H   0  0  0  0  0  0  0  0  0  0  0  0
   -0.0313    1.4350   -1.0050 C   0  0  0  0  0  0  0  0  0  0  0  0
   -0.9124    2.0861   -1.0242 H   0  0  0  0  0  0  0  0  0  0  0  0
    0.8545    2.0717   -0.9142 H   0  0  0  0  0  0  0  0  0  0  0  0
    0.0890    0.6878   -2.3409 C   0  0  0  0  0  0  0  0  0  0  0  0
    0.9978    0.0788   -2.3493 H   0  0  0  0  0  0  0  0  0  0  0  0
   -0.7637    0.0183   -2.4864 H   0  0  0  0  0  0  0  0  0  0  0  0
    0.1414    1.6939   -3.4883 C   0  0  0  0  0  0  0  0  0  0  0  0
    1.2252    2.3000   -3.6770 O   0  5  0  0  0  0  0  0  0  0  0  0
   -0.9225    1.9120   -4.1186 O   0  0  0  0  0  0  0  0  0  0  0  0
    0.0447    1.2376    1.5530 C   0  0  0  0  0  0  0  0  0  0  0  0
   -0.3633    0.7652    2.6079 O   0  0  0  0  0  0  0  0  0  0  0  0
    0.5221    2.5378    1.5907 N   0  0  0  0  0  0  0  0  0  0  0  0
    0.7899    2.9560    0.7034 H   0  0  0  0  0  0  0  0  0  0  0  0
    0.6010    3.3439    2.8006 C   0  0  0  0  0  0  0  0  0  0  0  0
    1.2359    2.8543    3.5461 H   0  0  0  0  0  0  0  0  0  0  0  0
    1.0306    4.3235    2.5712 H   0  0  0  0  0  0  0  0  0  0  0  0
   -0.3964    3.4941    3.2263 H   0  0  0  0  0  0  0  0  0  0  0  0
  1  2  1  0  0  0  0
  2  3  1  0  0  0  0
  2  4  1  0  0  0  0
  2  5  1  0  0  0  0
  5  6  2  0  0  0  0
  5  7  1  0  0  0  0
  7  8  1  0  0  0  0
  7  9  1  0  0  0  0
  9 10  1  0  0  0  0
  9 11  1  0  0  0  0
  9 20  1  0  0  0  0
 11 12  1  0  0  0  0
 11 13  1  0  0  0  0
 11 14  1  0  0  0  0
 14 15  1  0  0  0  0
 14 16  1  0  0  0  0
 14 17  1  0  0  0  0
 17 18  1  0  0  0  0
 17 19  2  0  0  0  0
 20 21  2  0  0  0  0
 20 22  1  0  0  0  0
 22 23  1  0  0  0  0
 22 24  1  0  0  0  0
 24 25  1  0  0  0  0
 24 26  1  0  0  0  0
 24 27  1  0  0  0  0
M  CHG  1  18  -1
M  END
$$$$

  -OEChem-01062216073D

 27 26  0     1  0  0  0  0  0999 V2000
   -3.0788   -2.9158    1.3574 H   0  0  0  0  0  0  0  0  0  0  0  0
   -3.0459   -1.9727    0.8048 C   0  0  0  0  0  0  0  0  0  0  0  0
   -3.6945   -1.2495    1.3051 H   0  0  0  0  0  0  0  0  0  0  0  0
   -3.4160   -2.1441   -0.2091 H   0  0  0  0  0  0  0  0  0  0  0  0
   -1.6236   -1.4432    0.7552 C   0  0  0  0  0  0  0  0  0  0  0  0
   -0.7145   -2.1112    1.2234 O   0  0  0  0  0  0  0  0  0  0  0  0
   -1.3710   -0.2581    0.0948 N   0  0  0  0  0  0  0  0  0  0  0  0
   -2.1739    0.2283   -0.2901 H   0  0  0  0  0  0  0  0  0  0  0  0
   -0.1152    0.4988    0.2216 C   0  0  1  0  0  0  0  0  0  0  0  0
    0.7370   -0.1877    0.1781 H   0  0  0  0  0  0  0  0  0  0  0  0
   -0.0297    1.4610   -0.9790 C   0  0  0  0  0  0  0  0  0  0  0  0
   -0.9276    2.0885   -1.0099 H   0  0  0  0  0  0  0  0  0  0  0  0
    0.8375    2.1182   -0.8534 H   0  0  0  0  0  0  0  0  0  0  0  0
    0.1376    0.7364   -2.3276 C   0  0  0  0  0  0  0  0  0  0  0  0
    1.0570    0.1441   -2.3122 H   0  0  0  0  0  0  0  0  0  0  0  0
   -0.6994    0.0506   -2.4858 H   0  0  0  0  0  0  0  0  0  0  0  0
    0.1968    1.7040   -3.5171 C   0  0  0  0  0  0  0  0  0  0  0  0
    0.2179    1.1899   -4.6614 O   0  5  0  0  0  0  0  0  0  0  0  0
    0.2041    2.9423   -3.2907 O   0  0  0  0  0  0  0  0  0  0  0  0
   -0.0071    1.2633    1.5705 C   0  0  0  0  0  0  0  0  0  0  0  0
   -0.1438    0.6932    2.6457 O   0  0  0  0  0  0  0  0  0  0  0  0
    0.1254    2.6423    1.5983 N   0  0  0  0  0  0  0  0  0  0  0  0
    0.1941    3.1157    0.7001 H   0  0  0  0  0  0  0  0  0  0  0  0
    0.1569    3.4355    2.8186 C   0  0  0  0  0  0  0  0  0  0  0  0
    0.9772    3.1095    3.4662 H   0  0  0  0  0  0  0  0  0  0  0  0
    0.3073    4.4915    2.5755 H   0  0  0  0  0  0  0  0  0  0  0  0
   -0.7872    3.3359    3.3634 H   0  0  0  0  0  0  0  0  0  0  0  0
  1  2  1  0  0  0  0
  2  3  1  0  0  0  0
  2  4  1  0  0  0  0
  2  5  1  0  0  0  0
  5  6  2  0  0  0  0
  5  7  1  0  0  0  0
  7  8  1  0  0  0  0
  7  9  1  0  0  0  0
  9 10  1  0  0  0  0
  9 11  1  0  0  0  0
  9 20  1  0  0  0  0
 11 12  1  0  0  0  0
 11 13  1  0  0  0  0
 11 14  1  0  0  0  0
 14 15  1  0  0  0  0
 14 16  1  0  0  0  0
 14 17  1  0  0  0  0
 17 18  1  0  0  0  0
 17 19  2  0  0  0  0
 20 21  2  0  0  0  0
 20 22  1  0  0  0  0
 22 23  1  0  0  0  0
 22 24  1  0  0  0  0
 24 25  1  0  0  0  0
 24 26  1  0  0  0  0
 24 27  1  0  0  0  0
M  CHG  1  18  -1
M  END
$$$$

  -OEChem-01062216073D

 27 26  0     1  0  0  0  0  0999 V2000
   -3.2678   -2.8576    1.2635 H   0  0  0  0  0  0  0  0  0  0  0  0
   -3.1906   -1.8917    0.7566 C   0  0  0  0  0  0  0  0  0  0  0  0
   -3.8539   -1.1795    1.2531 H   0  0  0  0  0  0  0  0  0  0  0  0
   -3.5080   -2.0119   -0.2822 H   0  0  0  0  0  0  0  0  0  0  0  0
   -1.7601   -1.3853    0.8059 C   0  0  0  0  0  0  0  0  0  0  0  0
   -0.9035   -2.0572    1.3567 O   0  0  0  0  0  0  0  0  0  0  0  0
   -1.4421   -0.2153    0.1482 N   0  0  0  0  0  0  0  0  0  0  0  0
   -2.1880    0.2443   -0.3657 H   0  0  0  0  0  0  0  0  0  0  0  0
   -0.1458    0.4756    0.2333 C   0  0  1  0  0  0  0  0  0  0  0  0
    0.6686   -0.2534    0.1594 H   0  0  0  0  0  0  0  0  0  0  0  0
   -0.0670    1.4312   -0.9720 C   0  0  0  0  0  0  0  0  0  0  0  0
   -0.9382    2.0959   -0.9769 H   0  0  0  0  0  0  0  0  0  0  0  0
    0.8299    2.0541   -0.8830 H   0  0  0  0  0  0  0  0  0  0  0  0
    0.0102    0.6871   -2.3126 C   0  0  0  0  0  0  0  0  0  0  0  0
    0.9023    0.0542   -2.3399 H   0  0  0  0  0  0  0  0  0  0  0  0
   -0.8624    0.0414   -2.4469 H   0  0  0  0  0  0  0  0  0  0  0  0
    0.0590    1.6983   -3.4553 C   0  0  0  0  0  0  0  0  0  0  0  0
   -1.0292    2.2307   -3.7890 O   0  5  0  0  0  0  0  0  0  0  0  0
    1.1799    1.9923   -3.9366 O   0  0  0  0  0  0  0  0  0  0  0  0
    0.0516    1.2328    1.5725 C   0  0  0  0  0  0  0  0  0  0  0  0
    0.2749    0.6412    2.6201 O   0  0  0  0  0  0  0  0  0  0  0  0
   -0.0517    2.6133    1.6256 N   0  0  0  0  0  0  0  0  0  0  0  0
   -0.1943    3.0965    0.7427 H   0  0  0  0  0  0  0  0  0  0  0  0
    0.1510    3.3967    2.8359 C   0  0  0  0  0  0  0  0  0  0  0  0
    1.1623    3.2428    3.2260 H   0  0  0  0  0  0  0  0  0  0  0  0
    0.0210    4.4613    2.6199 H   0  0  0  0  0  0  0  0  0  0  0  0
   -0.5736    3.1086    3.6043 H   0  0  0  0  0  0  0  0  0  0  0  0
  1  2  1  0  0  0  0
  2  3  1  0  0  0  0
  2  4  1  0  0  0  0
  2  5  1  0  0  0  0
  5  6  2  0  0  0  0
  5  7  1  0  0  0  0
  7  8  1  0  0  0  0
  7  9  1  0  0  0  0
  9 10  1  0  0  0  0
  9 11  1  0  0  0  0
  9 20  1  0  0  0  0
 11 12  1  0  0  0  0
 11 13  1  0  0  0  0
 11 14  1  0  0  0  0
 14 15  1  0  0  0  0
 14 16  1  0  0  0  0
 14 17  1  0  0  0  0
 17 18  1  0  0  0  0
 17 19  2  0  0  0  0
 20 21  2  0  0  0  0
 20 22  1  0  0  0  0
 22 23  1  0  0  0  0
 22 24  1  0  0  0  0
 24 25  1  0  0  0  0
 24 26  1  0  0  0  0
 24 27  1  0  0  0  0
M  CHG  1  18  -1
M  END
$$$$

  -OEChem-01062216073D

 27 26  0     1  0  0  0  0  0999 V2000
   -3.2986   -2.8940    1.2006 H   0  0  0  0  0  0  0  0  0  0  0  0
   -3.1868   -1.9730    0.6217 C   0  0  0  0  0  0  0  0  0  0  0  0
   -3.9571   -1.2643    0.9354 H   0  0  0  0  0  0  0  0  0  0  0  0
   -3.3242   -2.2037   -0.4378 H   0  0  0  0  0  0  0  0  0  0  0  0
   -1.8097   -1.3740    0.8467 C   0  0  0  0  0  0  0  0  0  0  0  0
   -1.0104   -1.9568    1.5591 O   0  0  0  0  0  0  0  0  0  0  0  0
   -1.4732   -0.2080    0.1922 N   0  0  0  0  0  0  0  0  0  0  0  0
   -2.1410    0.1478   -0.4865 H   0  0  0  0  0  0  0  0  0  0  0  0
   -0.1722    0.4739    0.2815 C   0  0  1  0  0  0  0  0  0  0  0  0
    0.6388   -0.2589    0.2034 H   0  0  0  0  0  0  0  0  0  0  0  0
   -0.0944    1.4368   -0.9165 C   0  0  0  0  0  0  0  0  0  0  0  0
   -0.9633    2.1038   -0.9164 H   0  0  0  0  0  0  0  0  0  0  0  0
    0.8033    2.0581   -0.8221 H   0  0  0  0  0  0  0  0  0  0  0  0
   -0.0257    0.6965   -2.2608 C   0  0  0  0  0  0  0  0  0  0  0  0
    0.8638    0.0598   -2.2913 H   0  0  0  0  0  0  0  0  0  0  0  0
   -0.9016    0.0553   -2.3937 H   0  0  0  0  0  0  0  0  0  0  0  0
    0.0226    1.7051   -3.4061 C   0  0  0  0  0  0  0  0  0  0  0  0
   -1.0459    2.3126   -3.6684 O   0  5  0  0  0  0  0  0  0  0  0  0
    1.1198    1.8992   -3.9824 O   0  0  0  0  0  0  0  0  0  0  0  0
    0.0310    1.2310    1.6167 C   0  0  0  0  0  0  0  0  0  0  0  0
    0.6083    0.7140    2.5639 O   0  0  0  0  0  0  0  0  0  0  0  0
   -0.3603    2.5543    1.7361 N   0  0  0  0  0  0  0  0  0  0  0  0
   -0.7330    2.9960    0.9006 H   0  0  0  0  0  0  0  0  0  0  0  0
   -0.0851    3.3759    2.9058 C   0  0  0  0  0  0  0  0  0  0  0  0
    0.9946    3.4858    3.0499 H   0  0  0  0  0  0  0  0  0  0  0  0
   -0.5213    4.3708    2.7769 H   0  0  0  0  0  0  0  0  0  0  0  0
   -0.5187    2.9224    3.8029 H   0  0  0  0  0  0  0  0  0  0  0  0
  1  2  1  0  0  0  0
  2  3  1  0  0  0  0
  2  4  1  0  0  0  0
  2  5  1  0  0  0  0
  5  6  2  0  0  0  0
  5  7  1  0  0  0  0
  7  8  1  0  0  0  0
  7  9  1  0  0  0  0
  9 10  1  0  0  0  0
  9 11  1  0  0  0  0
  9 20  1  0  0  0  0
 11 12  1  0  0  0  0
 11 13  1  0  0  0  0
 11 14  1  0  0  0  0
 14 15  1  0  0  0  0
 14 16  1  0  0  0  0
 14 17  1  0  0  0  0
 17 18  1  0  0  0  0
 17 19  2  0  0  0  0
 20 21  2  0  0  0  0
 20 22  1  0  0  0  0
 22 23  1  0  0  0  0
 22 24  1  0  0  0  0
 24 25  1  0  0  0  0
 24 26  1  0  0  0  0
 24 27  1  0  0  0  0
M  CHG  1  18  -1
M  END
$$$$

  -OEChem-01062216073D

 27 26  0     1  0  0  0  0  0999 V2000
   -3.3059   -2.9185    1.1596 H   0  0  0  0  0  0  0  0  0  0  0  0
   -3.1781   -2.0129    0.5602 C   0  0  0  0  0  0  0  0  0  0  0  0
   -3.9876   -1.3175    0.7951 H   0  0  0  0  0  0  0  0  0  0  0  0
   -3.2325   -2.2799   -0.4982 H   0  0  0  0  0  0  0  0  0  0  0  0
   -1.8372   -1.3676    0.8623 C   0  0  0  0  0  0  0  0  0  0  0  0
   -1.0783   -1.8966    1.6561 O   0  0  0  0  0  0  0  0  0  0  0  0
   -1.4916   -0.2047    0.2081 N   0  0  0  0  0  0  0  0  0  0  0  0
   -2.1061    0.0939   -0.5452 H   0  0  0  0  0  0  0  0  0  0  0  0
   -0.1796    0.4553    0.3012 C   0  0  1  0  0  0  0  0  0  0  0  0
    0.6219   -0.2865    0.2127 H   0  0  0  0  0  0  0  0  0  0  0  0
   -0.0971    1.4350   -0.8815 C   0  0  0  0  0  0  0  0  0  0  0  0
   -0.9558    2.1150   -0.8663 H   0  0  0  0  0  0  0  0  0  0  0  0
    0.8091    2.0431   -0.7826 H   0  0  0  0  0  0  0  0  0  0  0  0
   -0.0492    0.7078   -2.2350 C   0  0  0  0  0  0  0  0  0  0  0  0
    0.8307    0.0588   -2.2770 H   0  0  0  0  0  0  0  0  0  0  0  0
   -0.9347    0.0801   -2.3679 H   0  0  0  0  0  0  0  0  0  0  0  0
    0.0046    1.7224   -3.3744 C   0  0  0  0  0  0  0  0  0  0  0  0
   -1.0509    2.3645   -3.6057 O   0  5  0  0  0  0  0  0  0  0  0  0
    1.0865    1.8709   -3.9914 O   0  0  0  0  0  0  0  0  0  0  0  0
    0.0319    1.2004    1.6384 C   0  0  0  0  0  0  0  0  0  0  0  0
    0.8525    0.8111    2.4596 O   0  0  0  0  0  0  0  0  0  0  0  0
   -0.6091    2.4061    1.8656 N   0  0  0  0  0  0  0  0  0  0  0  0
   -1.1764    2.7680    1.1050 H   0  0  0  0  0  0  0  0  0  0  0  0
   -0.3372    3.2590    3.0132 C   0  0  0  0  0  0  0  0  0  0  0  0
    0.6949    3.6224    2.9822 H   0  0  0  0  0  0  0  0  0  0  0  0
   -1.0102    4.1214    3.0080 H   0  0  0  0  0  0  0  0  0  0  0  0
   -0.4912    2.7067    3.9459 H   0  0  0  0  0  0  0  0  0  0  0  0
  1  2  1  0  0  0  0
  2  3  1  0  0  0  0
  2  4  1  0  0  0  0
  2  5  1  0  0  0  0
  5  6  2  0  0  0  0
  5  7  1  0  0  0  0
  7  8  1  0  0  0  0
  7  9  1  0  0  0  0
  9 10  1  0  0  0  0
  9 11  1  0  0  0  0
  9 20  1  0  0  0  0
 11 12  1  0  0  0  0
 11 13  1  0  0  0  0
 11 14  1  0  0  0  0
 14 15  1  0  0  0  0
 14 16  1  0  0  0  0
 14 17  1  0  0  0  0
 17 18  1  0  0  0  0
 17 19  2  0  0  0  0
 20 21  2  0  0  0  0
 20 22  1  0  0  0  0
 22 23  1  0  0  0  0
 22 24  1  0  0  0  0
 24 25  1  0  0  0  0
 24 26  1  0  0  0  0
 24 27  1  0  0  0  0
M  CHG  1  18  -1
M  END
$$$$

  -OEChem-01062216073D

 27 26  0     1  0  0  0  0  0999 V2000
   -3.3090   -2.9367    1.1348 H   0  0  0  0  0  0  0  0  0  0  0  0
   -3.1737   -2.0359    0.5297 C   0  0  0  0  0  0  0  0  0  0  0  0
   -4.0012   -1.3504    0.7280 H   0  0  0  0  0  0  0  0  0  0  0  0
   -3.1874   -2.3158   -0.5267 H   0  0  0  0  0  0  0  0  0  0  0  0
   -1.8542   -1.3662    0.8702 C   0  0  0  0  0  0  0  0  0  0  0  0
   -1.1217   -1.8623    1.7093 O   0  0  0  0  0  0  0  0  0  0  0  0
   -1.5008   -0.2063    0.2147 N   0  0  0  0  0  0  0  0  0  0  0  0
   -2.0827    0.0619   -0.5753 H   0  0  0  0  0  0  0  0  0  0  0  0
   -0.1764    0.4296    0.3075 C   0  0  1  0  0  0  0  0  0  0  0  0
    0.6144   -0.3220    0.2059 H   0  0  0  0  0  0  0  0  0  0  0  0
   -0.0887    1.4278   -0.8580 C   0  0  0  0  0  0  0  0  0  0  0  0
   -0.9340    2.1236   -0.8208 H   0  0  0  0  0  0  0  0  0  0  0  0
    0.8292    2.0179   -0.7576 H   0  0  0  0  0  0  0  0  0  0  0  0
   -0.0661    0.7200   -2.2228 C   0  0  0  0  0  0  0  0  0  0  0  0
    0.8026    0.0573   -2.2821 H   0  0  0  0  0  0  0  0  0  0  0  0
   -0.9625    0.1085   -2.3560 H   0  0  0  0  0  0  0  0  0  0  0  0
   -0.0062    1.7470   -3.3507 C   0  0  0  0  0  0  0  0  0  0  0  0
   -1.0588    2.3963   -3.5750 O   0  5  0  0  0  0  0  0  0  0  0  0
    1.0725    1.8881   -3.9748 O   0  0  0  0  0  0  0  0  0  0  0  0
    0.0503    1.1629    1.6462 C   0  0  0  0  0  0  0  0  0  0  0  0
    1.0395    0.9365    2.3321 O   0  0  0  0  0  0  0  0  0  0  0  0
   -0.7919    2.1991    2.0086 N   0  0  0  0  0  0  0  0  0  0  0  0
   -1.5251    2.4367    1.3483 H   0  0  0  0  0  0  0  0  0  0  0  0
   -0.5526    3.0700    3.1492 C   0  0  0  0  0  0  0  0  0  0  0  0
    0.3769    3.6317    3.0113 H   0  0  0  0  0  0  0  0  0  0  0  0
   -1.3765    3.7814    3.2578 H   0  0  0  0  0  0  0  0  0  0  0  0
   -0.4793    2.4829    4.0704 H   0  0  0  0  0  0  0  0  0  0  0  0
  1  2  1  0  0  0  0
  2  3  1  0  0  0  0
  2  4  1  0  0  0  0
  2  5  1  0  0  0  0
  5  6  2  0  0  0  0
  5  7  1  0  0  0  0
  7  8  1  0  0  0  0
  7  9  1  0  0  0  0
  9 10  1  0  0  0  0
  9 11  1  0  0  0  0
  9 20  1  0  0  0  0
 11 12  1  0  0  0  0
 11 13  1  0  0  0  0
 11 14  1  0  0  0  0
 14 15  1  0  0  0  0
 14 16  1  0  0  0  0
 14 17  1  0  0  0  0
 17 18  1  0  0  0  0
 17 19  2  0  0  0  0
 20 21  2  0  0  0  0
 20 22  1  0  0  0  0
 22 23  1  0  0  0  0
 22 24  1  0  0  0  0
 24 25  1  0  0  0  0
 24 26  1  0  0  0  0
 24 27  1  0  0  0  0
M  CHG  1  18  -1
M  END
$$$$

  -OEChem-01062216073D

 27 26  0     1  0  0  0  0  0999 V2000
   -3.3040   -2.9283    1.1212 H   0  0  0  0  0  0  0  0  0  0  0  0
   -3.1652   -2.0317    0.5106 C   0  0  0  0  0  0  0  0  0  0  0  0
   -4.0048   -1.3539    0.6831 H   0  0  0  0  0  0  0  0  0  0  0  0
   -3.1522   -2.3217   -0.5432 H   0  0  0  0  0  0  0  0  0  0  0  0
   -1.8607   -1.3447    0.8739 C   0  0  0  0  0  0  0  0  0  0  0  0
   -1.1470   -1.8165    1.7432 O   0  0  0  0  0  0  0  0  0  0  0  0
   -1.5010   -0.1895    0.2138 N   0  0  0  0  0  0  0  0  0  0  0  0
   -2.0595    0.0557   -0.6010 H   0  0  0  0  0  0  0  0  0  0  0  0
   -0.1652    0.4250    0.3015 C   0  0  1  0  0  0  0  0  0  0  0  0
    0.6147   -0.3364    0.1908 H   0  0  0  0  0  0  0  0  0  0  0  0
   -0.0775    1.4257   -0.8610 C   0  0  0  0  0  0  0  0  0  0  0  0
   -0.9125    2.1334   -0.8103 H   0  0  0  0  0  0  0  0  0  0  0  0
    0.8492    2.0032   -0.7700 H   0  0  0  0  0  0  0  0  0  0  0  0
   -0.0787    0.7171   -2.2269 C   0  0  0  0  0  0  0  0  0  0  0  0
    0.7818    0.0446   -2.2946 H   0  0  0  0  0  0  0  0  0  0  0  0
   -0.9828    0.1150   -2.3498 H   0  0  0  0  0  0  0  0  0  0  0  0
   -0.0186    1.7385   -3.3600 C   0  0  0  0  0  0  0  0  0  0  0  0
   -1.0762    2.3748   -3.5971 O   0  5  0  0  0  0  0  0  0  0  0  0
    1.0613    1.8805   -3.9823 O   0  0  0  0  0  0  0  0  0  0  0  0
    0.0834    1.1539    1.6383 C   0  0  0  0  0  0  0  0  0  0  0  0
    1.1767    1.1048    2.1886 O   0  0  0  0  0  0  0  0  0  0  0  0
   -0.8950    1.9808    2.1597 N   0  0  0  0  0  0  0  0  0  0  0  0
   -1.7639    2.0386    1.6394 H   0  0  0  0  0  0  0  0  0  0  0  0
   -0.7122    2.8033    3.3458 C   0  0  0  0  0  0  0  0  0  0  0  0
    0.1001    3.5209    3.1915 H   0  0  0  0  0  0  0  0  0  0  0  0
   -1.6291    3.3592    3.5626 H   0  0  0  0  0  0  0  0  0  0  0  0
   -0.4735    2.1775    4.2116 H   0  0  0  0  0  0  0  0  0  0  0  0
  1  2  1  0  0  0  0
  2  3  1  0  0  0  0
  2  4  1  0  0  0  0
  2  5  1  0  0  0  0
  5  6  2  0  0  0  0
  5  7  1  0  0  0  0
  7  8  1  0  0  0  0
  7  9  1  0  0  0  0
  9 10  1  0  0  0  0
  9 11  1  0  0  0  0
  9 20  1  0  0  0  0
 11 12  1  0  0  0  0
 11 13  1  0  0  0  0
 11 14  1  0  0  0  0
 14 15  1  0  0  0  0
 14 16  1  0  0  0  0
 14 17  1  0  0  0  0
 17 18  1  0  0  0  0
 17 19  2  0  0  0  0
 20 21  2  0  0  0  0
 20 22  1  0  0  0  0
 22 23  1  0  0  0  0
 22 24  1  0  0  0  0
 24 25  1  0  0  0  0
 24 26  1  0  0  0  0
 24 27  1  0  0  0  0
M  CHG  1  18  -1
M  END
$$$$

  -OEChem-01062216073D

 27 26  0     1  0  0  0  0  0999 V2000
   -3.3003   -2.8868    1.1468 H   0  0  0  0  0  0  0  0  0  0  0  0
   -3.1550   -2.0056    0.5156 C   0  0  0  0  0  0  0  0  0  0  0  0
   -3.9965   -1.3240    0.6620 H   0  0  0  0  0  0  0  0  0  0  0  0
   -3.1302   -2.3219   -0.5304 H   0  0  0  0  0  0  0  0  0  0  0  0
   -1.8549   -1.3096    0.8757 C   0  0  0  0  0  0  0  0  0  0  0  0
   -1.1503   -1.7577    1.7648 O   0  0  0  0  0  0  0  0  0  0  0  0
   -1.4953   -0.1598    0.2064 N   0  0  0  0  0  0  0  0  0  0  0  0
   -2.0483    0.0758   -0.6153 H   0  0  0  0  0  0  0  0  0  0  0  0
   -0.1556    0.4494    0.2866 C   0  0  1  0  0  0  0  0  0  0  0  0
    0.6205   -0.3162    0.1801 H   0  0  0  0  0  0  0  0  0  0  0  0
   -0.0687    1.4364   -0.8879 C   0  0  0  0  0  0  0  0  0  0  0  0
   -0.9017    2.1468   -0.8420 H   0  0  0  0  0  0  0  0  0  0  0  0
    0.8601    2.0124   -0.8080 H   0  0  0  0  0  0  0  0  0  0  0  0
   -0.0770    0.7072   -2.2442 C   0  0  0  0  0  0  0  0  0  0  0  0
    0.7801    0.0295   -2.3031 H   0  0  0  0  0  0  0  0  0  0  0  0
   -0.9840    0.1070   -2.3553 H   0  0  0  0  0  0  0  0  0  0  0  0
   -0.0176    1.7060   -3.3975 C   0  0  0  0  0  0  0  0  0  0  0  0
   -1.0699    2.3506   -3.6364 O   0  5  0  0  0  0  0  0  0  0  0  0
    1.0522    1.8102   -4.0443 O   0  0  0  0  0  0  0  0  0  0  0  0
    0.1050    1.1865    1.6170 C   0  0  0  0  0  0  0  0  0  0  0  0
    1.2445    1.3299    2.0432 O   0  0  0  0  0  0  0  0  0  0  0  0
   -0.9469    1.7682    2.3002 N   0  0  0  0  0  0  0  0  0  0  0  0
   -1.8744    1.5811    1.9355 H   0  0  0  0  0  0  0  0  0  0  0  0
   -0.8016    2.4607    3.5711 C   0  0  0  0  0  0  0  0  0  0  0  0
   -0.1245    3.3146    3.4657 H   0  0  0  0  0  0  0  0  0  0  0  0
   -1.7736    2.8302    3.9109 H   0  0  0  0  0  0  0  0  0  0  0  0
   -0.4020    1.7822    4.3317 H   0  0  0  0  0  0  0  0  0  0  0  0
  1  2  1  0  0  0  0
  2  3  1  0  0  0  0
  2  4  1  0  0  0  0
  2  5  1  0  0  0  0
  5  6  2  0  0  0  0
  5  7  1  0  0  0  0
  7  8  1  0  0  0  0
  7  9  1  0  0  0  0
  9 10  1  0  0  0  0
  9 11  1  0  0  0  0
  9 20  1  0  0  0  0
 11 12  1  0  0  0  0
 11 13  1  0  0  0  0
 11 14  1  0  0  0  0
 14 15  1  0  0  0  0
 14 16  1  0  0  0  0
 14 17  1  0  0  0  0
 17 18  1  0  0  0  0
 17 19  2  0  0  0  0
 20 21  2  0  0  0  0
 20 22  1  0  0  0  0
 22 23  1  0  0  0  0
 22 24  1  0  0  0  0
 24 25  1  0  0  0  0
 24 26  1  0  0  0  0
 24 27  1  0  0  0  0
M  CHG  1  18  -1
M  END
$$$$

  -OEChem-01062216073D

 27 26  0     1  0  0  0  0  0999 V2000
   -3.2936   -2.8931    1.0969 H   0  0  0  0  0  0  0  0  0  0  0  0
   -3.1510   -2.0052    0.4745 C   0  0  0  0  0  0  0  0  0  0  0  0
   -4.0082   -1.3400    0.6054 H   0  0  0  0  0  0  0  0  0  0  0  0
   -3.0977   -2.3147   -0.5725 H   0  0  0  0  0  0  0  0  0  0  0  0
   -1.8722   -1.2874    0.8672 C   0  0  0  0  0  0  0  0  0  0  0  0
   -1.1950   -1.7064    1.7912 O   0  0  0  0  0  0  0  0  0  0  0  0
   -1.5081   -0.1371    0.2021 N   0  0  0  0  0  0  0  0  0  0  0  0
   -2.0498    0.0928   -0.6290 H   0  0  0  0  0  0  0  0  0  0  0  0
   -0.1685    0.4745    0.2887 C   0  0  1  0  0  0  0  0  0  0  0  0
    0.6066   -0.2929    0.1882 H   0  0  0  0  0  0  0  0  0  0  0  0
   -0.0801    1.4466   -0.8995 C   0  0  0  0  0  0  0  0  0  0  0  0
   -0.9161    2.1539   -0.8677 H   0  0  0  0  0  0  0  0  0  0  0  0
    0.8459    2.0282   -0.8258 H   0  0  0  0  0  0  0  0  0  0  0  0
   -0.0785    0.6959   -2.2448 C   0  0  0  0  0  0  0  0  0  0  0  0
    0.7828    0.0225   -2.2892 H   0  0  0  0  0  0  0  0  0  0  0  0
   -0.9811    0.0883   -2.3507 H   0  0  0  0  0  0  0  0  0  0  0  0
   -0.0180    1.6741   -3.4156 C   0  0  0  0  0  0  0  0  0  0  0  0
   -1.0850    2.2738   -3.7015 O   0  5  0  0  0  0  0  0  0  0  0  0
    1.0672    1.8034   -4.0319 O   0  0  0  0  0  0  0  0  0  0  0  0
    0.1027    1.2165    1.6171 C   0  0  0  0  0  0  0  0  0  0  0  0
    1.2379    1.5664    1.9168 O   0  0  0  0  0  0  0  0  0  0  0  0
   -0.9411    1.5370    2.4653 N   0  0  0  0  0  0  0  0  0  0  0  0
   -1.8288    1.0974    2.2470 H   0  0  0  0  0  0  0  0  0  0  0  0
   -0.7520    2.1383    3.7766 C   0  0  0  0  0  0  0  0  0  0  0  0
   -0.2242    3.0933    3.6871 H   0  0  0  0  0  0  0  0  0  0  0  0
   -1.7216    2.3236    4.2476 H   0  0  0  0  0  0  0  0  0  0  0  0
   -0.1720    1.4713    4.4226 H   0  0  0  0  0  0  0  0  0  0  0  0
  1  2  1  0  0  0  0
  2  3  1  0  0  0  0
  2  4  1  0  0  0  0
  2  5  1  0  0  0  0
  5  6  2  0  0  0  0
  5  7  1  0  0  0  0
  7  8  1  0  0  0  0
  7  9  1  0  0  0  0
  9 10  1  0  0  0  0
  9 11  1  0  0  0  0
  9 20  1  0  0  0  0
 11 12  1  0  0  0  0
 11 13  1  0  0  0  0
 11 14  1  0  0  0  0
 14 15  1  0  0  0  0
 14 16  1  0  0  0  0
 14 17  1  0  0  0  0
 17 18  1  0  0  0  0
 17 19  2  0  0  0  0
 20 21  2  0  0  0  0
 20 22  1  0  0  0  0
 22 23  1  0  0  0  0
 22 24  1  0  0  0  0
 24 25  1  0  0  0  0
 24 26  1  0  0  0  0
 24 27  1  0  0  0  0
M  CHG  1  18  -1
M  END
$$$$

  -OEChem-01062216073D

 27 26  0     1  0  0  0  0  0999 V2000
   -3.3116   -2.8852    1.0511 H   0  0  0  0  0  0  0  0  0  0  0  0
   -3.1543   -2.0012    0.4266 C   0  0  0  0  0  0  0  0  0  0  0  0
   -4.0185   -1.3396    0.5259 H   0  0  0  0  0  0  0  0  0  0  0  0
   -3.0668   -2.3176   -0.6160 H   0  0  0  0  0  0  0  0  0  0  0  0
   -1.8920   -1.2740    0.8522 C   0  0  0  0  0  0  0  0  0  0  0  0
   -1.2476   -1.6711    1.8093 O   0  0  0  0  0  0  0  0  0  0  0  0
   -1.5189   -0.1188    0.2028 N   0  0  0  0  0  0  0  0  0  0  0  0
   -2.0566    0.1210   -0.6283 H   0  0  0  0  0  0  0  0  0  0  0  0
   -0.1801    0.4956    0.2964 C   0  0  1  0  0  0  0  0  0  0  0  0
    0.5932   -0.2728    0.1964 H   0  0  0  0  0  0  0  0  0  0  0  0
   -0.0900    1.4583   -0.9010 C   0  0  0  0  0  0  0  0  0  0  0  0
   -0.9284    2.1631   -0.8792 H   0  0  0  0  0  0  0  0  0  0  0  0
    0.8332    2.0445   -0.8324 H   0  0  0  0  0  0  0  0  0  0  0  0
   -0.0794    0.6914   -2.2381 C   0  0  0  0  0  0  0  0  0  0  0  0
    0.7839    0.0196   -2.2692 H   0  0  0  0  0  0  0  0  0  0  0  0
   -0.9798    0.0800   -2.3408 H   0  0  0  0  0  0  0  0  0  0  0  0
   -0.0173    1.6519   -3.4235 C   0  0  0  0  0  0  0  0  0  0  0  0
   -1.0775    2.2649   -3.7061 O   0  5  0  0  0  0  0  0  0  0  0  0
    1.0588    1.7438   -4.0625 O   0  0  0  0  0  0  0  0  0  0  0  0
    0.0984    1.2304    1.6306 C   0  0  0  0  0  0  0  0  0  0  0  0
    1.1640    1.8045    1.8206 O   0  0  0  0  0  0  0  0  0  0  0  0
   -0.8644    1.2759    2.6218 N   0  0  0  0  0  0  0  0  0  0  0  0
   -1.5953    0.5771    2.5217 H   0  0  0  0  0  0  0  0  0  0  0  0
   -0.6155    1.8317    3.9435 C   0  0  0  0  0  0  0  0  0  0  0  0
   -0.3073    2.8795    3.8669 H   0  0  0  0  0  0  0  0  0  0  0  0
   -1.5265    1.7846    4.5470 H   0  0  0  0  0  0  0  0  0  0  0  0
    0.1712    1.2668    4.4539 H   0  0  0  0  0  0  0  0  0  0  0  0
  1  2  1  0  0  0  0
  2  3  1  0  0  0  0
  2  4  1  0  0  0  0
  2  5  1  0  0  0  0
  5  6  2  0  0  0  0
  5  7  1  0  0  0  0
  7  8  1  0  0  0  0
  7  9  1  0  0  0  0
  9 10  1  0  0  0  0
  9 11  1  0  0  0  0
  9 20  1  0  0  0  0
 11 12  1  0  0  0  0
 11 13  1  0  0  0  0
 11 14  1  0  0  0  0
 14 15  1  0  0  0  0
 14 16  1  0  0  0  0
 14 17  1  0  0  0  0
 17 18  1  0  0  0  0
 17 19  2  0  0  0  0
 20 21  2  0  0  0  0
 20 22  1  0  0  0  0
 22 23  1  0  0  0  0
 22 24  1  0  0  0  0
 24 25  1  0  0  0  0
 24 26  1  0  0  0  0
 24 27  1  0  0  0  0
M  CHG  1  18  -1
M  END
$$$$

  -OEChem-01062216073D

 27 26  0     1  0  0  0  0  0999 V2000
   -3.3150   -2.8911    0.9902 H   0  0  0  0  0  0  0  0  0  0  0  0
   -3.1698   -1.9790    0.4047 C   0  0  0  0  0  0  0  0  0  0  0  0
   -4.0320   -1.3235    0.5513 H   0  0  0  0  0  0  0  0  0  0  0  0
   -3.1031   -2.2469   -0.6530 H   0  0  0  0  0  0  0  0  0  0  0  0
   -1.8995   -1.2703    0.8390 C   0  0  0  0  0  0  0  0  0  0  0  0
   -1.2526   -1.6922    1.7854 O   0  0  0  0  0  0  0  0  0  0  0  0
   -1.5193   -0.1070    0.2083 N   0  0  0  0  0  0  0  0  0  0  0  0
   -2.0699    0.1594   -0.6060 H   0  0  0  0  0  0  0  0  0  0  0  0
   -0.1830    0.5133    0.3035 C   0  0  1  0  0  0  0  0  0  0  0  0
    0.5902   -0.2548    0.2015 H   0  0  0  0  0  0  0  0  0  0  0  0
   -0.0953    1.4669   -0.9037 C   0  0  0  0  0  0  0  0  0  0  0  0
   -0.9379    2.1672   -0.8902 H   0  0  0  0  0  0  0  0  0  0  0  0
    0.8244    2.0586   -0.8424 H   0  0  0  0  0  0  0  0  0  0  0  0
   -0.0773    0.6842   -2.2319 C   0  0  0  0  0  0  0  0  0  0  0  0
    0.7896    0.0168   -2.2525 H   0  0  0  0  0  0  0  0  0  0  0  0
   -0.9740    0.0661   -2.3285 H   0  0  0  0  0  0  0  0  0  0  0  0
   -0.0175    1.6282   -3.4302 C   0  0  0  0  0  0  0  0  0  0  0  0
   -1.0863    2.2116   -3.7410 O   0  5  0  0  0  0  0  0  0  0  0  0
    1.0671    1.7342   -4.0525 O   0  0  0  0  0  0  0  0  0  0  0  0
    0.1010    1.2366    1.6461 C   0  0  0  0  0  0  0  0  0  0  0  0
    1.0369    2.0190    1.7616 O   0  0  0  0  0  0  0  0  0  0  0  0
   -0.7058    1.0149    2.7468 N   0  0  0  0  0  0  0  0  0  0  0  0
   -1.2562    0.1586    2.6853 H   0  0  0  0  0  0  0  0  0  0  0  0
   -0.4067    1.5465    4.0683 C   0  0  0  0  0  0  0  0  0  0  0  0
   -0.3451    2.6392    4.0377 H   0  0  0  0  0  0  0  0  0  0  0  0
   -1.1960    1.2665    4.7721 H   0  0  0  0  0  0  0  0  0  0  0  0
    0.5451    1.1478    4.4337 H   0  0  0  0  0  0  0  0  0  0  0  0
  1  2  1  0  0  0  0
  2  3  1  0  0  0  0
  2  4  1  0  0  0  0
  2  5  1  0  0  0  0
  5  6  2  0  0  0  0
  5  7  1  0  0  0  0
  7  8  1  0  0  0  0
  7  9  1  0  0  0  0
  9 10  1  0  0  0  0
  9 11  1  0  0  0  0
  9 20  1  0  0  0  0
 11 12  1  0  0  0  0
 11 13  1  0  0  0  0
 11 14  1  0  0  0  0
 14 15  1  0  0  0  0
 14 16  1  0  0  0  0
 14 17  1  0  0  0  0
 17 18  1  0  0  0  0
 17 19  2  0  0  0  0
 20 21  2  0  0  0  0
 20 22  1  0  0  0  0
 22 23  1  0  0  0  0
 22 24  1  0  0  0  0
 24 25  1  0  0  0  0
 24 26  1  0  0  0  0
 24 27  1  0  0  0  0
M  CHG  1  18  -1
M  END
$$$$

  -OEChem-01062216073D

 27 26  0     1  0  0  0  0  0999 V2000
   -3.3381   -2.8563    1.0303 H   0  0  0  0  0  0  0  0  0  0  0  0
   -3.1877   -1.9440    0.4465 C   0  0  0  0  0  0  0  0  0  0  0  0
   -4.0172   -1.2595    0.6411 H   0  0  0  0  0  0  0  0  0  0  0  0
   -3.1818   -2.2024   -0.6156 H   0  0  0  0  0  0  0  0  0  0  0  0
   -1.8732   -1.2861    0.8250 C   0  0  0  0  0  0  0  0  0  0  0  0
   -1.1750   -1.7718    1.7032 O   0  0  0  0  0  0  0  0  0  0  0  0
   -1.4978   -0.1138    0.2071 N   0  0  0  0  0  0  0  0  0  0  0  0
   -2.0859    0.1977   -0.5637 H   0  0  0  0  0  0  0  0  0  0  0  0
   -0.1671    0.5185    0.2976 C   0  0  1  0  0  0  0  0  0  0  0  0
    0.6114   -0.2433    0.1902 H   0  0  0  0  0  0  0  0  0  0  0  0
   -0.0868    1.4709   -0.9121 C   0  0  0  0  0  0  0  0  0  0  0  0
   -0.9338    2.1657   -0.8996 H   0  0  0  0  0  0  0  0  0  0  0  0
    0.8297    2.0682   -0.8546 H   0  0  0  0  0  0  0  0  0  0  0  0
   -0.0636    0.6857   -2.2387 C   0  0  0  0  0  0  0  0  0  0  0  0
    0.8084    0.0249   -2.2586 H   0  0  0  0  0  0  0  0  0  0  0  0
   -0.9558    0.0607   -2.3333 H   0  0  0  0  0  0  0  0  0  0  0  0
   -0.0111    1.6273   -3.4396 C   0  0  0  0  0  0  0  0  0  0  0  0
   -1.0876    2.1892   -3.7636 O   0  5  0  0  0  0  0  0  0  0  0  0
    1.0783    1.7538   -4.0498 O   0  0  0  0  0  0  0  0  0  0  0  0
    0.1106    1.2307    1.6497 C   0  0  0  0  0  0  0  0  0  0  0  0
    0.8543    2.2012    1.7291 O   0  0  0  0  0  0  0  0  0  0  0  0
   -0.4767    0.7716    2.8141 N   0  0  0  0  0  0  0  0  0  0  0  0
   -0.8915   -0.1593    2.7418 H   0  0  0  0  0  0  0  0  0  0  0  0
   -0.1657    1.2970    4.1350 C   0  0  0  0  0  0  0  0  0  0  0  0
   -0.3703    2.3716    4.1777 H   0  0  0  0  0  0  0  0  0  0  0  0
   -0.7811    0.7993    4.8900 H   0  0  0  0  0  0  0  0  0  0  0  0
    0.8883    1.1267    4.3760 H   0  0  0  0  0  0  0  0  0  0  0  0
  1  2  1  0  0  0  0
  2  3  1  0  0  0  0
  2  4  1  0  0  0  0
  2  5  1  0  0  0  0
  5  6  2  0  0  0  0
  5  7  1  0  0  0  0
  7  8  1  0  0  0  0
  7  9  1  0  0  0  0
  9 10  1  0  0  0  0
  9 11  1  0  0  0  0
  9 20  1  0  0  0  0
 11 12  1  0  0  0  0
 11 13  1  0  0  0  0
 11 14  1  0  0  0  0
 14 15  1  0  0  0  0
 14 16  1  0  0  0  0
 14 17  1  0  0  0  0
 17 18  1  0  0  0  0
 17 19  2  0  0  0  0
 20 21  2  0  0  0  0
 20 22  1  0  0  0  0
 22 23  1  0  0  0  0
 22 24  1  0  0  0  0
 24 25  1  0  0  0  0
 24 26  1  0  0  0  0
 24 27  1  0  0  0  0
M  CHG  1  18  -1
M  END
$$$$

  -OEChem-01062216073D

 27 26  0     1  0  0  0  0  0999 V2000
   -3.3286   -2.8415    1.0607 H   0  0  0  0  0  0  0  0  0  0  0  0
   -3.1938   -1.9127    0.4994 C   0  0  0  0  0  0  0  0  0  0  0  0
   -3.9993   -1.2221    0.7610 H   0  0  0  0  0  0  0  0  0  0  0  0
   -3.2498   -2.1358   -0.5692 H   0  0  0  0  0  0  0  0  0  0  0  0
   -1.8491   -1.2887    0.8267 C   0  0  0  0  0  0  0  0  0  0  0  0
   -1.1092   -1.8222    1.6418 O   0  0  0  0  0  0  0  0  0  0  0  0
   -1.4801   -0.1120    0.2119 N   0  0  0  0  0  0  0  0  0  0  0  0
   -2.1013    0.2357   -0.5161 H   0  0  0  0  0  0  0  0  0  0  0  0
   -0.1493    0.5200    0.2871 C   0  0  1  0  0  0  0  0  0  0  0  0
    0.6262   -0.2437    0.1711 H   0  0  0  0  0  0  0  0  0  0  0  0
   -0.0701    1.4726   -0.9224 C   0  0  0  0  0  0  0  0  0  0  0  0
   -0.9135    2.1717   -0.9066 H   0  0  0  0  0  0  0  0  0  0  0  0
    0.8498    2.0650   -0.8673 H   0  0  0  0  0  0  0  0  0  0  0  0
   -0.0564    0.6865   -2.2478 C   0  0  0  0  0  0  0  0  0  0  0  0
    0.8119    0.0212   -2.2718 H   0  0  0  0  0  0  0  0  0  0  0  0
   -0.9521    0.0659   -2.3364 H   0  0  0  0  0  0  0  0  0  0  0  0
   -0.0049    1.6268   -3.4495 C   0  0  0  0  0  0  0  0  0  0  0  0
   -1.0901    2.1526   -3.8032 O   0  5  0  0  0  0  0  0  0  0  0  0
    1.0970    1.7930   -4.0270 O   0  0  0  0  0  0  0  0  0  0  0  0
    0.1353    1.2206    1.6435 C   0  0  0  0  0  0  0  0  0  0  0  0
    0.6484    2.3310    1.7139 O   0  0  0  0  0  0  0  0  0  0  0  0
   -0.1790    0.5831    2.8285 N   0  0  0  0  0  0  0  0  0  0  0  0
   -0.5096   -0.3804    2.7381 H   0  0  0  0  0  0  0  0  0  0  0  0
    0.1191    1.1141    4.1500 C   0  0  0  0  0  0  0  0  0  0  0  0
   -0.3642    2.0863    4.2901 H   0  0  0  0  0  0  0  0  0  0  0  0
   -0.2509    0.4306    4.9197 H   0  0  0  0  0  0  0  0  0  0  0  0
    1.1996    1.2327    4.2797 H   0  0  0  0  0  0  0  0  0  0  0  0
  1  2  1  0  0  0  0
  2  3  1  0  0  0  0
  2  4  1  0  0  0  0
  2  5  1  0  0  0  0
  5  6  2  0  0  0  0
  5  7  1  0  0  0  0
  7  8  1  0  0  0  0
  7  9  1  0  0  0  0
  9 10  1  0  0  0  0
  9 11  1  0  0  0  0
  9 20  1  0  0  0  0
 11 12  1  0  0  0  0
 11 13  1  0  0  0  0
 11 14  1  0  0  0  0
 14 15  1  0  0  0  0
 14 16  1  0  0  0  0
 14 17  1  0  0  0  0
 17 18  1  0  0  0  0
 17 19  2  0  0  0  0
 20 21  2  0  0  0  0
 20 22  1  0  0  0  0
 22 23  1  0  0  0  0
 22 24  1  0  0  0  0
 24 25  1  0  0  0  0
 24 26  1  0  0  0  0
 24 27  1  0  0  0  0
M  CHG  1  18  -1
M  END
$$$$

  -OEChem-01062216073D

 27 26  0     1  0  0  0  0  0999 V2000
   -3.3025   -2.7994    1.1473 H   0  0  0  0  0  0  0  0  0  0  0  0
   -3.1782   -1.8695    0.5856 C   0  0  0  0  0  0  0  0  0  0  0  0
   -3.9535   -1.1638    0.8944 H   0  0  0  0  0  0  0  0  0  0  0  0
   -3.2962   -2.0831   -0.4799 H   0  0  0  0  0  0  0  0  0  0  0  0
   -1.8053   -1.2761    0.8447 C   0  0  0  0  0  0  0  0  0  0  0  0
   -1.0292   -1.8366    1.6071 O   0  0  0  0  0  0  0  0  0  0  0  0
   -1.4469   -0.1007    0.2217 N   0  0  0  0  0  0  0  0  0  0  0  0
   -2.0998    0.2765   -0.4622 H   0  0  0  0  0  0  0  0  0  0  0  0
   -0.1105    0.5178    0.2647 C   0  0  1  0  0  0  0  0  0  0  0  0
    0.6563   -0.2514    0.1305 H   0  0  0  0  0  0  0  0  0  0  0  0
   -0.0378    1.4737   -0.9410 C   0  0  0  0  0  0  0  0  0  0  0  0
   -0.8724    2.1828   -0.9098 H   0  0  0  0  0  0  0  0  0  0  0  0
    0.8902    2.0542   -0.8949 H   0  0  0  0  0  0  0  0  0  0  0  0
   -0.0583    0.6905   -2.2679 C   0  0  0  0  0  0  0  0  0  0  0  0
    0.7997    0.0127   -2.3086 H   0  0  0  0  0  0  0  0  0  0  0  0
   -0.9643    0.0827   -2.3411 H   0  0  0  0  0  0  0  0  0  0  0  0
   -0.0129    1.6314   -3.4689 C   0  0  0  0  0  0  0  0  0  0  0  0
   -1.1051    2.1280   -3.8428 O   0  5  0  0  0  0  0  0  0  0  0  0
    1.0958    1.8311   -4.0228 O   0  0  0  0  0  0  0  0  0  0  0  0
    0.1958    1.2050    1.6203 C   0  0  0  0  0  0  0  0  0  0  0  0
    0.4446    2.4010    1.7151 O   0  0  0  0  0  0  0  0  0  0  0  0
    0.1875    0.4491    2.7766 N   0  0  0  0  0  0  0  0  0  0  0  0
   -0.1116   -0.5234    2.6685 H   0  0  0  0  0  0  0  0  0  0  0  0
    0.3884    0.9906    4.1117 C   0  0  0  0  0  0  0  0  0  0  0  0
   -0.4050    1.7031    4.3588 H   0  0  0  0  0  0  0  0  0  0  0  0
    0.3729    0.1825    4.8489 H   0  0  0  0  0  0  0  0  0  0  0  0
    1.3555    1.4994    4.1773 H   0  0  0  0  0  0  0  0  0  0  0  0
  1  2  1  0  0  0  0
  2  3  1  0  0  0  0
  2  4  1  0  0  0  0
  2  5  1  0  0  0  0
  5  6  2  0  0  0  0
  5  7  1  0  0  0  0
  7  8  1  0  0  0  0
  7  9  1  0  0  0  0
  9 10  1  0  0  0  0
  9 11  1  0  0  0  0
  9 20  1  0  0  0  0
 11 12  1  0  0  0  0
 11 13  1  0  0  0  0
 11 14  1  0  0  0  0
 14 15  1  0  0  0  0
 14 16  1  0  0  0  0
 14 17  1  0  0  0  0
 17 18  1  0  0  0  0
 17 19  2  0  0  0  0
 20 21  2  0  0  0  0
 20 22  1  0  0  0  0
 22 23  1  0  0  0  0
 22 24  1  0  0  0  0
 24 25  1  0  0  0  0
 24 26  1  0  0  0  0
 24 27  1  0  0  0  0
M  CHG  1  18  -1
M  END
$$$$

  -OEChem-01062216073D

 27 26  0     1  0  0  0  0  0999 V2000
   -3.2516   -2.7700    1.2544 H   0  0  0  0  0  0  0  0  0  0  0  0
   -3.1496   -1.8487    0.6740 C   0  0  0  0  0  0  0  0  0  0  0  0
   -3.9118   -1.1379    1.0035 H   0  0  0  0  0  0  0  0  0  0  0  0
   -3.3101   -2.0779   -0.3827 H   0  0  0  0  0  0  0  0  0  0  0  0
   -1.7669   -1.2534    0.8694 C   0  0  0  0  0  0  0  0  0  0  0  0
   -0.9577   -1.8060    1.6039 O   0  0  0  0  0  0  0  0  0  0  0  0
   -1.4306   -0.0847    0.2219 N   0  0  0  0  0  0  0  0  0  0  0  0
   -2.1049    0.2997   -0.4365 H   0  0  0  0  0  0  0  0  0  0  0  0
   -0.0914    0.5229    0.2400 C   0  0  1  0  0  0  0  0  0  0  0  0
    0.6711   -0.2499    0.1000 H   0  0  0  0  0  0  0  0  0  0  0  0
   -0.0161    1.4798   -0.9636 C   0  0  0  0  0  0  0  0  0  0  0  0
   -0.8423    2.1985   -0.9249 H   0  0  0  0  0  0  0  0  0  0  0  0
    0.9189    2.0493   -0.9206 H   0  0  0  0  0  0  0  0  0  0  0  0
   -0.0588    0.7002   -2.2917 C   0  0  0  0  0  0  0  0  0  0  0  0
    0.7894    0.0109   -2.3426 H   0  0  0  0  0  0  0  0  0  0  0  0
   -0.9732    0.1041   -2.3567 H   0  0  0  0  0  0  0  0  0  0  0  0
   -0.0105    1.6441   -3.4905 C   0  0  0  0  0  0  0  0  0  0  0  0
   -1.1087    2.0818   -3.9161 O   0  5  0  0  0  0  0  0  0  0  0  0
    1.1117    1.9121   -3.9857 O   0  0  0  0  0  0  0  0  0  0  0  0
    0.2141    1.2117    1.5918 C   0  0  0  0  0  0  0  0  0  0  0  0
    0.2104    2.4292    1.7322 O   0  0  0  0  0  0  0  0  0  0  0  0
    0.5090    0.4185    2.6839 N   0  0  0  0  0  0  0  0  0  0  0  0
    0.2752   -0.5707    2.5676 H   0  0  0  0  0  0  0  0  0  0  0  0
    0.6817    0.9412    4.0307 C   0  0  0  0  0  0  0  0  0  0  0  0
   -0.2433    1.4106    4.3803 H   0  0  0  0  0  0  0  0  0  0  0  0
    0.9421    0.1297    4.7166 H   0  0  0  0  0  0  0  0  0  0  0  0
    1.4866    1.6830    4.0537 H   0  0  0  0  0  0  0  0  0  0  0  0
  1  2  1  0  0  0  0
  2  3  1  0  0  0  0
  2  4  1  0  0  0  0
  2  5  1  0  0  0  0
  5  6  2  0  0  0  0
  5  7  1  0  0  0  0
  7  8  1  0  0  0  0
  7  9  1  0  0  0  0
  9 10  1  0  0  0  0
  9 11  1  0  0  0  0
  9 20  1  0  0  0  0
 11 12  1  0  0  0  0
 11 13  1  0  0  0  0
 11 14  1  0  0  0  0
 14 15  1  0  0  0  0
 14 16  1  0  0  0  0
 14 17  1  0  0  0  0
 17 18  1  0  0  0  0
 17 19  2  0  0  0  0
 20 21  2  0  0  0  0
 20 22  1  0  0  0  0
 22 23  1  0  0  0  0
 22 24  1  0  0  0  0
 24 25  1  0  0  0  0
 24 26  1  0  0  0  0
 24 27  1  0  0  0  0
M  CHG  1  18  -1
M  END
$$$$

  -OEChem-01062216073D

 27 26  0     1  0  0  0  0  0999 V2000
   -3.2078   -2.7610    1.3306 H   0  0  0  0  0  0  0  0  0  0  0  0
   -3.1297   -1.8454    0.7378 C   0  0  0  0  0  0  0  0  0  0  0  0
   -3.8827   -1.1339    1.0861 H   0  0  0  0  0  0  0  0  0  0  0  0
   -3.3252   -2.0863   -0.3102 H   0  0  0  0  0  0  0  0  0  0  0  0
   -1.7438   -1.2426    0.8798 C   0  0  0  0  0  0  0  0  0  0  0  0
   -0.9055   -1.7826    1.5921 O   0  0  0  0  0  0  0  0  0  0  0  0
   -1.4307   -0.0797    0.2108 N   0  0  0  0  0  0  0  0  0  0  0  0
   -2.1258    0.3161   -0.4181 H   0  0  0  0  0  0  0  0  0  0  0  0
   -0.0932    0.5262    0.2189 C   0  0  1  0  0  0  0  0  0  0  0  0
    0.6705   -0.2455    0.0806 H   0  0  0  0  0  0  0  0  0  0  0  0
   -0.0078    1.4864   -0.9799 C   0  0  0  0  0  0  0  0  0  0  0  0
   -0.8297    2.2099   -0.9418 H   0  0  0  0  0  0  0  0  0  0  0  0
    0.9305    2.0499   -0.9304 H   0  0  0  0  0  0  0  0  0  0  0  0
   -0.0534    0.7120   -2.3101 C   0  0  0  0  0  0  0  0  0  0  0  0
    0.7903    0.0174   -2.3629 H   0  0  0  0  0  0  0  0  0  0  0  0
   -0.9719    0.1224   -2.3774 H   0  0  0  0  0  0  0  0  0  0  0  0
    0.0053    1.6601   -3.5048 C   0  0  0  0  0  0  0  0  0  0  0  0
   -1.0895    2.0354   -3.9937 O   0  5  0  0  0  0  0  0  0  0  0  0
    1.1369    2.0008   -3.9286 O   0  0  0  0  0  0  0  0  0  0  0  0
    0.1962    1.2219    1.5673 C   0  0  0  0  0  0  0  0  0  0  0  0
   -0.0577    2.4042    1.7690 O   0  0  0  0  0  0  0  0  0  0  0  0
    0.7833    0.4776    2.5723 N   0  0  0  0  0  0  0  0  0  0  0  0
    0.6832   -0.5318    2.4543 H   0  0  0  0  0  0  0  0  0  0  0  0
    0.9871    0.9949    3.9169 C   0  0  0  0  0  0  0  0  0  0  0  0
    0.0267    1.2371    4.3832 H   0  0  0  0  0  0  0  0  0  0  0  0
    1.4961    0.2477    4.5326 H   0  0  0  0  0  0  0  0  0  0  0  0
    1.6060    1.8975    3.8899 H   0  0  0  0  0  0  0  0  0  0  0  0
  1  2  1  0  0  0  0
  2  3  1  0  0  0  0
  2  4  1  0  0  0  0
  2  5  1  0  0  0  0
  5  6  2  0  0  0  0
  5  7  1  0  0  0  0
  7  8  1  0  0  0  0
  7  9  1  0  0  0  0
  9 10  1  0  0  0  0
  9 11  1  0  0  0  0
  9 20  1  0  0  0  0
 11 12  1  0  0  0  0
 11 13  1  0  0  0  0
 11 14  1  0  0  0  0
 14 15  1  0  0  0  0
 14 16  1  0  0  0  0
 14 17  1  0  0  0  0
 17 18  1  0  0  0  0
 17 19  2  0  0  0  0
 20 21  2  0  0  0  0
 20 22  1  0  0  0  0
 22 23  1  0  0  0  0
 22 24  1  0  0  0  0
 24 25  1  0  0  0  0
 24 26  1  0  0  0  0
 24 27  1  0  0  0  0
M  CHG  1  18  -1
M  END
$$$$

  -OEChem-01062216073D

 27 26  0     1  0  0  0  0  0999 V2000
   -3.2005   -2.7633    1.3483 H   0  0  0  0  0  0  0  0  0  0  0  0
   -3.1343   -1.8372    0.7706 C   0  0  0  0  0  0  0  0  0  0  0  0
   -3.8653   -1.1244    1.1604 H   0  0  0  0  0  0  0  0  0  0  0  0
   -3.3722   -2.0548   -0.2739 H   0  0  0  0  0  0  0  0  0  0  0  0
   -1.7370   -1.2526    0.8715 C   0  0  0  0  0  0  0  0  0  0  0  0
   -0.8806   -1.8079    1.5487 O   0  0  0  0  0  0  0  0  0  0  0  0
   -1.4312   -0.0930    0.1951 N   0  0  0  0  0  0  0  0  0  0  0  0
   -2.1521    0.3389   -0.3780 H   0  0  0  0  0  0  0  0  0  0  0  0
   -0.0984    0.5199    0.2038 C   0  0  1  0  0  0  0  0  0  0  0  0
    0.6665   -0.2508    0.0664 H   0  0  0  0  0  0  0  0  0  0  0  0
   -0.0091    1.4851   -0.9897 C   0  0  0  0  0  0  0  0  0  0  0  0
   -0.8337    2.2055   -0.9522 H   0  0  0  0  0  0  0  0  0  0  0  0
    0.9269    2.0516   -0.9326 H   0  0  0  0  0  0  0  0  0  0  0  0
   -0.0471    0.7177   -2.3238 C   0  0  0  0  0  0  0  0  0  0  0  0
    0.7979    0.0248   -2.3771 H   0  0  0  0  0  0  0  0  0  0  0  0
   -0.9642    0.1263   -2.3965 H   0  0  0  0  0  0  0  0  0  0  0  0
    0.0160    1.6722   -3.5135 C   0  0  0  0  0  0  0  0  0  0  0  0
   -1.0707    1.9782   -4.0648 O   0  5  0  0  0  0  0  0  0  0  0  0
    1.1453    2.0930   -3.8663 O   0  0  0  0  0  0  0  0  0  0  0  0
    0.1844    1.2268    1.5472 C   0  0  0  0  0  0  0  0  0  0  0  0
   -0.3279    2.3034    1.8346 O   0  0  0  0  0  0  0  0  0  0  0  0
    1.0410    0.6252    2.4500 N   0  0  0  0  0  0  0  0  0  0  0  0
    1.2000   -0.3671    2.2901 H   0  0  0  0  0  0  0  0  0  0  0  0
    1.2641    1.1488    3.7897 C   0  0  0  0  0  0  0  0  0  0  0  0
    0.3311    1.1446    4.3623 H   0  0  0  0  0  0  0  0  0  0  0  0
    1.9990    0.5321    4.3154 H   0  0  0  0  0  0  0  0  0  0  0  0
    1.6464    2.1737    3.7420 H   0  0  0  0  0  0  0  0  0  0  0  0
  1  2  1  0  0  0  0
  2  3  1  0  0  0  0
  2  4  1  0  0  0  0
  2  5  1  0  0  0  0
  5  6  2  0  0  0  0
  5  7  1  0  0  0  0
  7  8  1  0  0  0  0
  7  9  1  0  0  0  0
  9 10  1  0  0  0  0
  9 11  1  0  0  0  0
  9 20  1  0  0  0  0
 11 12  1  0  0  0  0
 11 13  1  0  0  0  0
 11 14  1  0  0  0  0
 14 15  1  0  0  0  0
 14 16  1  0  0  0  0
 14 17  1  0  0  0  0
 17 18  1  0  0  0  0
 17 19  2  0  0  0  0
 20 21  2  0  0  0  0
 20 22  1  0  0  0  0
 22 23  1  0  0  0  0
 22 24  1  0  0  0  0
 24 25  1  0  0  0  0
 24 26  1  0  0  0  0
 24 27  1  0  0  0  0
M  CHG  1  18  -1
M  END
$$$$

  -OEChem-01062216073D

 27 26  0     1  0  0  0  0  0999 V2000
   -3.2085   -2.7704    1.3801 H   0  0  0  0  0  0  0  0  0  0  0  0
   -3.1540   -1.8258    0.8319 C   0  0  0  0  0  0  0  0  0  0  0  0
   -3.8272   -1.1047    1.3022 H   0  0  0  0  0  0  0  0  0  0  0  0
   -3.4777   -1.9961   -0.1980 H   0  0  0  0  0  0  0  0  0  0  0  0
   -1.7333   -1.2909    0.8446 C   0  0  0  0  0  0  0  0  0  0  0  0
   -0.8560   -1.8850    1.4578 O   0  0  0  0  0  0  0  0  0  0  0  0
   -1.4346   -0.1320    0.1636 N   0  0  0  0  0  0  0  0  0  0  0  0
   -2.1931    0.3654   -0.2952 H   0  0  0  0  0  0  0  0  0  0  0  0
   -0.1102    0.4993    0.1816 C   0  0  1  0  0  0  0  0  0  0  0  0
    0.6613   -0.2657    0.0531 H   0  0  0  0  0  0  0  0  0  0  0  0
   -0.0105    1.4743   -1.0019 C   0  0  0  0  0  0  0  0  0  0  0  0
   -0.8410    2.1879   -0.9681 H   0  0  0  0  0  0  0  0  0  0  0  0
    0.9199    2.0475   -0.9247 H   0  0  0  0  0  0  0  0  0  0  0  0
   -0.0236    0.7255   -2.3463 C   0  0  0  0  0  0  0  0  0  0  0  0
    0.8261    0.0388   -2.3986 H   0  0  0  0  0  0  0  0  0  0  0  0
   -0.9363    0.1296   -2.4376 H   0  0  0  0  0  0  0  0  0  0  0  0
    0.0510    1.6984   -3.5216 C   0  0  0  0  0  0  0  0  0  0  0  0
   -0.9981    1.8862   -4.1864 O   0  5  0  0  0  0  0  0  0  0  0  0
    1.1524    2.2600   -3.7432 O   0  0  0  0  0  0  0  0  0  0  0  0
    0.1565    1.2214    1.5196 C   0  0  0  0  0  0  0  0  0  0  0  0
   -0.5823    2.1155    1.9194 O   0  0  0  0  0  0  0  0  0  0  0  0
    1.2277    0.8349    2.3037 N   0  0  0  0  0  0  0  0  0  0  0  0
    1.6847   -0.0324    2.0390 H   0  0  0  0  0  0  0  0  0  0  0  0
    1.4716    1.3730    3.6338 C   0  0  0  0  0  0  0  0  0  0  0  0
    0.6379    1.1337    4.3018 H   0  0  0  0  0  0  0  0  0  0  0  0
    2.3868    0.9424    4.0506 H   0  0  0  0  0  0  0  0  0  0  0  0
    1.5913    2.4605    3.5906 H   0  0  0  0  0  0  0  0  0  0  0  0
  1  2  1  0  0  0  0
  2  3  1  0  0  0  0
  2  4  1  0  0  0  0
  2  5  1  0  0  0  0
  5  6  2  0  0  0  0
  5  7  1  0  0  0  0
  7  8  1  0  0  0  0
  7  9  1  0  0  0  0
  9 10  1  0  0  0  0
  9 11  1  0  0  0  0
  9 20  1  0  0  0  0
 11 12  1  0  0  0  0
 11 13  1  0  0  0  0
 11 14  1  0  0  0  0
 14 15  1  0  0  0  0
 14 16  1  0  0  0  0
 14 17  1  0  0  0  0
 17 18  1  0  0  0  0
 17 19  2  0  0  0  0
 20 21  2  0  0  0  0
 20 22  1  0  0  0  0
 22 23  1  0  0  0  0
 22 24  1  0  0  0  0
 24 25  1  0  0  0  0
 24 26  1  0  0  0  0
 24 27  1  0  0  0  0
M  CHG  1  18  -1
M  END
$$$$

  -OEChem-01062216073D

 27 26  0     1  0  0  0  0  0999 V2000
   -3.2464   -2.7399    1.4582 H   0  0  0  0  0  0  0  0  0  0  0  0
   -3.1773   -1.8378    0.8443 C   0  0  0  0  0  0  0  0  0  0  0  0
   -3.8378   -1.0743    1.2633 H   0  0  0  0  0  0  0  0  0  0  0  0
   -3.5056   -2.0748   -0.1710 H   0  0  0  0  0  0  0  0  0  0  0  0
   -1.7478   -1.3272    0.8187 C   0  0  0  0  0  0  0  0  0  0  0  0
   -0.8622   -1.9511    1.3879 O   0  0  0  0  0  0  0  0  0  0  0  0
   -1.4541   -0.1638    0.1431 N   0  0  0  0  0  0  0  0  0  0  0  0
   -2.2307    0.3715   -0.2348 H   0  0  0  0  0  0  0  0  0  0  0  0
   -0.1360    0.4819    0.1802 C   0  0  1  0  0  0  0  0  0  0  0  0
    0.6401   -0.2802    0.0615 H   0  0  0  0  0  0  0  0  0  0  0  0
   -0.0213    1.4663   -0.9928 C   0  0  0  0  0  0  0  0  0  0  0  0
   -0.8565    2.1747   -0.9664 H   0  0  0  0  0  0  0  0  0  0  0  0
    0.9044    2.0440   -0.8944 H   0  0  0  0  0  0  0  0  0  0  0  0
   -0.0056    0.7326   -2.3447 C   0  0  0  0  0  0  0  0  0  0  0  0
    0.8490    0.0514   -2.3901 H   0  0  0  0  0  0  0  0  0  0  0  0
   -0.9137    0.1333   -2.4580 H   0  0  0  0  0  0  0  0  0  0  0  0
    0.0844    1.7218   -3.5052 C   0  0  0  0  0  0  0  0  0  0  0  0
   -0.9442    1.8941   -4.2051 O   0  5  0  0  0  0  0  0  0  0  0  0
    1.1772    2.3179   -3.6748 O   0  0  0  0  0  0  0  0  0  0  0  0
    0.1193    1.2091    1.5179 C   0  0  0  0  0  0  0  0  0  0  0  0
   -0.7534    1.8917    2.0461 O   0  0  0  0  0  0  0  0  0  0  0  0
    1.3364    1.0659    2.1584 N   0  0  0  0  0  0  0  0  0  0  0  0
    2.0116    0.4388    1.7332 H   0  0  0  0  0  0  0  0  0  0  0  0
    1.6385    1.6594    3.4522 C   0  0  0  0  0  0  0  0  0  0  0  0
    0.9480    1.2854    4.2149 H   0  0  0  0  0  0  0  0  0  0  0  0
    2.6589    1.4044    3.7528 H   0  0  0  0  0  0  0  0  0  0  0  0
    1.5547    2.7498    3.4014 H   0  0  0  0  0  0  0  0  0  0  0  0
  1  2  1  0  0  0  0
  2  3  1  0  0  0  0
  2  4  1  0  0  0  0
  2  5  1  0  0  0  0
  5  6  2  0  0  0  0
  5  7  1  0  0  0  0
  7  8  1  0  0  0  0
  7  9  1  0  0  0  0
  9 10  1  0  0  0  0
  9 11  1  0  0  0  0
  9 20  1  0  0  0  0
 11 12  1  0  0  0  0
 11 13  1  0  0  0  0
 11 14  1  0  0  0  0
 14 15  1  0  0  0  0
 14 16  1  0  0  0  0
 14 17  1  0  0  0  0
 17 18  1  0  0  0  0
 17 19  2  0  0  0  0
 20 21  2  0  0  0  0
 20 22  1  0  0  0  0
 22 23  1  0  0  0  0
 22 24  1  0  0  0  0
 24 25  1  0  0  0  0
 24 26  1  0  0  0  0
 24 27  1  0  0  0  0
M  CHG  1  18  -1
M  END
$$$$

  -OEChem-01062216073D

 27 26  0     1  0  0  0  0  0999 V2000
   -3.1276   -2.9029    1.3823 H   0  0  0  0  0  0  0  0  0  0  0  0
   -3.0935   -1.9796    0.7973 C   0  0  0  0  0  0  0  0  0  0  0  0
   -3.7695   -1.2499    1.2504 H   0  0  0  0  0  0  0  0  0  0  0  0
   -3.4290   -2.1928   -0.2208 H   0  0  0  0  0  0  0  0  0  0  0  0
   -1.6803   -1.4260    0.7697 C   0  0  0  0  0  0  0  0  0  0  0  0
   -0.7747   -2.0305    1.3280 O   0  0  0  0  0  0  0  0  0  0  0  0
   -1.4265   -0.2486    0.1014 N   0  0  0  0  0  0  0  0  0  0  0  0
   -2.2267    0.2674   -0.2530 H   0  0  0  0  0  0  0  0  0  0  0  0
   -0.1459    0.4649    0.1906 C   0  0  1  0  0  0  0  0  0  0  0  0
    0.6718   -0.2574    0.1040 H   0  0  0  0  0  0  0  0  0  0  0  0
   -0.0384    1.4585   -0.9752 C   0  0  0  0  0  0  0  0  0  0  0  0
   -0.9109    2.1212   -0.9779 H   0  0  0  0  0  0  0  0  0  0  0  0
    0.8506    2.0849   -0.8422 H   0  0  0  0  0  0  0  0  0  0  0  0
    0.0676    0.7381   -2.3288 C   0  0  0  0  0  0  0  0  0  0  0  0
    0.9595    0.1049   -2.3457 H   0  0  0  0  0  0  0  0  0  0  0  0
   -0.8017    0.0928   -2.4864 H   0  0  0  0  0  0  0  0  0  0  0  0
    0.1486    1.7522   -3.4672 C   0  0  0  0  0  0  0  0  0  0  0  0
    1.2701    2.2665   -3.7035 O   0  5  0  0  0  0  0  0  0  0  0  0
   -0.9134    2.0321   -4.0762 O   0  0  0  0  0  0  0  0  0  0  0  0
    0.0304    1.2096    1.5321 C   0  0  0  0  0  0  0  0  0  0  0  0
   -0.9344    1.6465    2.1529 O   0  0  0  0  0  0  0  0  0  0  0  0
    1.2985    1.3895    2.0538 N   0  0  0  0  0  0  0  0  0  0  0  0
    2.0799    1.0584    1.4966 H   0  0  0  0  0  0  0  0  0  0  0  0
    1.5650    2.1038    3.2935 C   0  0  0  0  0  0  0  0  0  0  0  0
    1.0204    1.6445    4.1248 H   0  0  0  0  0  0  0  0  0  0  0  0
    2.6344    2.0724    3.5225 H   0  0  0  0  0  0  0  0  0  0  0  0
    1.2589    3.1511    3.2043 H   0  0  0  0  0  0  0  0  0  0  0  0
  1  2  1  0  0  0  0
  2  3  1  0  0  0  0
  2  4  1  0  0  0  0
  2  5  1  0  0  0  0
  5  6  2  0  0  0  0
  5  7  1  0  0  0  0
  7  8  1  0  0  0  0
  7  9  1  0  0  0  0
  9 10  1  0  0  0  0
  9 11  1  0  0  0  0
  9 20  1  0  0  0  0
 11 12  1  0  0  0  0
 11 13  1  0  0  0  0
 11 14  1  0  0  0  0
 14 15  1  0  0  0  0
 14 16  1  0  0  0  0
 14 17  1  0  0  0  0
 17 18  1  0  0  0  0
 17 19  2  0  0  0  0
 20 21  2  0  0  0  0
 20 22  1  0  0  0  0
 22 23  1  0  0  0  0
 22 24  1  0  0  0  0
 24 25  1  0  0  0  0
 24 26  1  0  0  0  0
 24 27  1  0  0  0  0
M  CHG  1  18  -1
M  END
$$$$

  -OEChem-01062216073D

 27 26  0     1  0  0  0  0  0999 V2000
   -3.1436   -2.9413    1.3079 H   0  0  0  0  0  0  0  0  0  0  0  0
   -3.1133   -1.9805    0.7867 C   0  0  0  0  0  0  0  0  0  0  0  0
   -3.7698   -1.2770    1.3048 H   0  0  0  0  0  0  0  0  0  0  0  0
   -3.4756   -2.1213   -0.2348 H   0  0  0  0  0  0  0  0  0  0  0  0
   -1.6949   -1.4398    0.7620 C   0  0  0  0  0  0  0  0  0  0  0  0
   -0.7927   -2.0657    1.3017 O   0  0  0  0  0  0  0  0  0  0  0  0
   -1.4312   -0.2601    0.1006 N   0  0  0  0  0  0  0  0  0  0  0  0
   -2.2292    0.2646   -0.2450 H   0  0  0  0  0  0  0  0  0  0  0  0
   -0.1488    0.4497    0.2072 C   0  0  1  0  0  0  0  0  0  0  0  0
    0.6688   -0.2735    0.1264 H   0  0  0  0  0  0  0  0  0  0  0  0
   -0.0358    1.4452   -0.9578 C   0  0  0  0  0  0  0  0  0  0  0  0
   -0.9100    2.1055   -0.9636 H   0  0  0  0  0  0  0  0  0  0  0  0
    0.8506    2.0742   -0.8223 H   0  0  0  0  0  0  0  0  0  0  0  0
    0.0795    0.7310   -2.3133 C   0  0  0  0  0  0  0  0  0  0  0  0
    0.9732    0.1004   -2.3281 H   0  0  0  0  0  0  0  0  0  0  0  0
   -0.7877    0.0851   -2.4797 H   0  0  0  0  0  0  0  0  0  0  0  0
    0.1655    1.7531   -3.4440 C   0  0  0  0  0  0  0  0  0  0  0  0
    1.2770    2.3058   -3.6371 O   0  5  0  0  0  0  0  0  0  0  0  0
   -0.8842    2.0066   -4.0846 O   0  0  0  0  0  0  0  0  0  0  0  0
    0.0311    1.1957    1.5490 C   0  0  0  0  0  0  0  0  0  0  0  0
   -0.9215    1.4424    2.2832 O   0  0  0  0  0  0  0  0  0  0  0  0
    1.2893    1.6380    1.9165 N   0  0  0  0  0  0  0  0  0  0  0  0
    2.0345    1.5152    1.2373 H   0  0  0  0  0  0  0  0  0  0  0  0
    1.5438    2.4426    3.1023 C   0  0  0  0  0  0  0  0  0  0  0  0
    1.2089    1.9166    4.0022 H   0  0  0  0  0  0  0  0  0  0  0  0
    2.6154    2.6408    3.1979 H   0  0  0  0  0  0  0  0  0  0  0  0
    1.0179    3.4004    3.0344 H   0  0  0  0  0  0  0  0  0  0  0  0
  1  2  1  0  0  0  0
  2  3  1  0  0  0  0
  2  4  1  0  0  0  0
  2  5  1  0  0  0  0
  5  6  2  0  0  0  0
  5  7  1  0  0  0  0
  7  8  1  0  0  0  0
  7  9  1  0  0  0  0
  9 10  1  0  0  0  0
  9 11  1  0  0  0  0
  9 20  1  0  0  0  0
 11 12  1  0  0  0  0
 11 13  1  0  0  0  0
 11 14  1  0  0  0  0
 14 15  1  0  0  0  0
 14 16  1  0  0  0  0
 14 17  1  0  0  0  0
 17 18  1  0  0  0  0
 17 19  2  0  0  0  0
 20 21  2  0  0  0  0
 20 22  1  0  0  0  0
 22 23  1  0  0  0  0
 22 24  1  0  0  0  0
 24 25  1  0  0  0  0
 24 26  1  0  0  0  0
 24 27  1  0  0  0  0
M  CHG  1  18  -1
M  END
$$$$

  -OEChem-01062216073D

 27 26  0     1  0  0  0  0  0999 V2000
   -3.1369   -2.9203    1.3186 H   0  0  0  0  0  0  0  0  0  0  0  0
   -3.1072   -1.9481    0.8192 C   0  0  0  0  0  0  0  0  0  0  0  0
   -3.6818   -1.2308    1.4105 H   0  0  0  0  0  0  0  0  0  0  0  0
   -3.5635   -2.0436   -0.1691 H   0  0  0  0  0  0  0  0  0  0  0  0
   -1.6728   -1.4702    0.6826 C   0  0  0  0  0  0  0  0  0  0  0  0
   -0.7520   -2.1819    1.0604 O   0  0  0  0  0  0  0  0  0  0  0  0
   -1.4142   -0.2748    0.0451 N   0  0  0  0  0  0  0  0  0  0  0  0
   -2.2246    0.2889   -0.1933 H   0  0  0  0  0  0  0  0  0  0  0  0
   -0.1342    0.4359    0.1896 C   0  0  1  0  0  0  0  0  0  0  0  0
    0.6726   -0.2203   -0.1509 H   0  0  0  0  0  0  0  0  0  0  0  0
   -0.1791    1.6787   -0.7172 C   0  0  0  0  0  0  0  0  0  0  0  0
   -1.0604    2.2814   -0.4709 H   0  0  0  0  0  0  0  0  0  0  0  0
    0.7034    2.3028   -0.5433 H   0  0  0  0  0  0  0  0  0  0  0  0
   -0.2091    1.3041   -2.2068 C   0  0  0  0  0  0  0  0  0  0  0  0
    0.6903    0.7386   -2.4674 H   0  0  0  0  0  0  0  0  0  0  0  0
   -1.0757    0.6735   -2.4264 H   0  0  0  0  0  0  0  0  0  0  0  0
   -0.2774    2.5654   -3.0643 C   0  0  0  0  0  0  0  0  0  0  0  0
    0.7831    3.2243   -3.2038 O   0  5  0  0  0  0  0  0  0  0  0  0
   -1.3935    2.8903   -3.5385 O   0  0  0  0  0  0  0  0  0  0  0  0
    0.2109    0.8531    1.6430 C   0  0  0  0  0  0  0  0  0  0  0  0
   -0.5934    0.7324    2.5629 O   0  0  0  0  0  0  0  0  0  0  0  0
    1.3942    1.5261    1.8939 N   0  0  0  0  0  0  0  0  0  0  0  0
    1.9693    1.7533    1.0874 H   0  0  0  0  0  0  0  0  0  0  0  0
    1.7256    2.1208    3.1805 C   0  0  0  0  0  0  0  0  0  0  0  0
    1.7123    1.3608    3.9685 H   0  0  0  0  0  0  0  0  0  0  0  0
    2.7265    2.5609    3.1432 H   0  0  0  0  0  0  0  0  0  0  0  0
    1.0087    2.9085    3.4340 H   0  0  0  0  0  0  0  0  0  0  0  0
  1  2  1  0  0  0  0
  2  3  1  0  0  0  0
  2  4  1  0  0  0  0
  2  5  1  0  0  0  0
  5  6  2  0  0  0  0
  5  7  1  0  0  0  0
  7  8  1  0  0  0  0
  7  9  1  0  0  0  0
  9 10  1  0  0  0  0
  9 11  1  0  0  0  0
  9 20  1  0  0  0  0
 11 12  1  0  0  0  0
 11 13  1  0  0  0  0
 11 14  1  0  0  0  0
 14 15  1  0  0  0  0
 14 16  1  0  0  0  0
 14 17  1  0  0  0  0
 17 18  1  0  0  0  0
 17 19  2  0  0  0  0
 20 21  2  0  0  0  0
 20 22  1  0  0  0  0
 22 23  1  0  0  0  0
 22 24  1  0  0  0  0
 24 25  1  0  0  0  0
 24 26  1  0  0  0  0
 24 27  1  0  0  0  0
M  CHG  1  18  -1
M  END
$$$$

  -OEChem-01062216073D

 27 26  0     1  0  0  0  0  0999 V2000
   -3.1309   -2.9054    1.3118 H   0  0  0  0  0  0  0  0  0  0  0  0
   -3.0983   -1.9222    0.8344 C   0  0  0  0  0  0  0  0  0  0  0  0
   -3.6447   -1.2097    1.4575 H   0  0  0  0  0  0  0  0  0  0  0  0
   -3.5818   -1.9870   -0.1435 H   0  0  0  0  0  0  0  0  0  0  0  0
   -1.6599   -1.4648    0.6718 C   0  0  0  0  0  0  0  0  0  0  0  0
   -0.7420   -2.2015    1.0062 O   0  0  0  0  0  0  0  0  0  0  0  0
   -1.3978   -0.2668    0.0401 N   0  0  0  0  0  0  0  0  0  0  0  0
   -2.2082    0.2989   -0.1931 H   0  0  0  0  0  0  0  0  0  0  0  0
   -0.1183    0.4456    0.1895 C   0  0  1  0  0  0  0  0  0  0  0  0
    0.6925   -0.2069   -0.1494 H   0  0  0  0  0  0  0  0  0  0  0  0
   -0.1816    1.6793   -0.7331 C   0  0  0  0  0  0  0  0  0  0  0  0
   -1.0686    2.2746   -0.4898 H   0  0  0  0  0  0  0  0  0  0  0  0
    0.6938    2.3168   -0.5763 H   0  0  0  0  0  0  0  0  0  0  0  0
   -0.2108    1.2925   -2.2198 C   0  0  0  0  0  0  0  0  0  0  0  0
    0.6957    0.7380   -2.4794 H   0  0  0  0  0  0  0  0  0  0  0  0
   -1.0692    0.6487   -2.4330 H   0  0  0  0  0  0  0  0  0  0  0  0
   -0.2977    2.5483   -3.0839 C   0  0  0  0  0  0  0  0  0  0  0  0
    0.7437    3.2420   -3.1962 O   0  5  0  0  0  0  0  0  0  0  0  0
   -1.4122    2.8384   -3.5836 O   0  0  0  0  0  0  0  0  0  0  0  0
    0.2297    0.8639    1.6468 C   0  0  0  0  0  0  0  0  0  0  0  0
   -0.4658    0.5375    2.6040 O   0  0  0  0  0  0  0  0  0  0  0  0
    1.2314    1.7916    1.8790 N   0  0  0  0  0  0  0  0  0  0  0  0
    1.7021    2.1707    1.0615 H   0  0  0  0  0  0  0  0  0  0  0  0
    1.5019    2.3839    3.1815 C   0  0  0  0  0  0  0  0  0  0  0  0
    1.7237    1.6048    3.9180 H   0  0  0  0  0  0  0  0  0  0  0  0
    2.3650    3.0532    3.1171 H   0  0  0  0  0  0  0  0  0  0  0  0
    0.6383    2.9622    3.5255 H   0  0  0  0  0  0  0  0  0  0  0  0
  1  2  1  0  0  0  0
  2  3  1  0  0  0  0
  2  4  1  0  0  0  0
  2  5  1  0  0  0  0
  5  6  2  0  0  0  0
  5  7  1  0  0  0  0
  7  8  1  0  0  0  0
  7  9  1  0  0  0  0
  9 10  1  0  0  0  0
  9 11  1  0  0  0  0
  9 20  1  0  0  0  0
 11 12  1  0  0  0  0
 11 13  1  0  0  0  0
 11 14  1  0  0  0  0
 14 15  1  0  0  0  0
 14 16  1  0  0  0  0
 14 17  1  0  0  0  0
 17 18  1  0  0  0  0
 17 19  2  0  0  0  0
 20 21  2  0  0  0  0
 20 22  1  0  0  0  0
 22 23  1  0  0  0  0
 22 24  1  0  0  0  0
 24 25  1  0  0  0  0
 24 26  1  0  0  0  0
 24 27  1  0  0  0  0
M  CHG  1  18  -1
M  END
$$$$

  -OEChem-01062216073D

 27 26  0     1  0  0  0  0  0999 V2000
   -3.1323   -2.8970    1.3018 H   0  0  0  0  0  0  0  0  0  0  0  0
   -3.0953   -1.9031    0.8473 C   0  0  0  0  0  0  0  0  0  0  0  0
   -3.6239   -1.1996    1.4954 H   0  0  0  0  0  0  0  0  0  0  0  0
   -3.5945   -1.9390   -0.1242 H   0  0  0  0  0  0  0  0  0  0  0  0
   -1.6538   -1.4589    0.6732 C   0  0  0  0  0  0  0  0  0  0  0  0
   -0.7424   -2.2171    0.9736 O   0  0  0  0  0  0  0  0  0  0  0  0
   -1.3862   -0.2601    0.0440 N   0  0  0  0  0  0  0  0  0  0  0  0
   -2.1960    0.2997   -0.2045 H   0  0  0  0  0  0  0  0  0  0  0  0
   -0.1099    0.4607    0.1920 C   0  0  1  0  0  0  0  0  0  0  0  0
    0.7056   -0.1890   -0.1410 H   0  0  0  0  0  0  0  0  0  0  0  0
   -0.1845    1.6811   -0.7492 C   0  0  0  0  0  0  0  0  0  0  0  0
   -1.0727    2.2770   -0.5115 H   0  0  0  0  0  0  0  0  0  0  0  0
    0.6912    2.3215   -0.6092 H   0  0  0  0  0  0  0  0  0  0  0  0
   -0.2092    1.2787   -2.2311 C   0  0  0  0  0  0  0  0  0  0  0  0
    0.7025    0.7302   -2.4850 H   0  0  0  0  0  0  0  0  0  0  0  0
   -1.0616    0.6256   -2.4394 H   0  0  0  0  0  0  0  0  0  0  0  0
   -0.3079    2.5281   -3.1033 C   0  0  0  0  0  0  0  0  0  0  0  0
    0.7257    3.2327   -3.2195 O   0  5  0  0  0  0  0  0  0  0  0  0
   -1.4288    2.8099   -3.5936 O   0  0  0  0  0  0  0  0  0  0  0  0
    0.2378    0.8878    1.6507 C   0  0  0  0  0  0  0  0  0  0  0  0
   -0.2812    0.3621    2.6295 O   0  0  0  0  0  0  0  0  0  0  0  0
    0.9954    2.0235    1.8884 N   0  0  0  0  0  0  0  0  0  0  0  0
    1.3242    2.5345    1.0733 H   0  0  0  0  0  0  0  0  0  0  0  0
    1.2232    2.5916    3.2098 C   0  0  0  0  0  0  0  0  0  0  0  0
    1.7045    1.8578    3.8643 H   0  0  0  0  0  0  0  0  0  0  0  0
    1.8757    3.4664    3.1340 H   0  0  0  0  0  0  0  0  0  0  0  0
    0.2756    2.9031    3.6609 H   0  0  0  0  0  0  0  0  0  0  0  0
  1  2  1  0  0  0  0
  2  3  1  0  0  0  0
  2  4  1  0  0  0  0
  2  5  1  0  0  0  0
  5  6  2  0  0  0  0
  5  7  1  0  0  0  0
  7  8  1  0  0  0  0
  7  9  1  0  0  0  0
  9 10  1  0  0  0  0
  9 11  1  0  0  0  0
  9 20  1  0  0  0  0
 11 12  1  0  0  0  0
 11 13  1  0  0  0  0
 11 14  1  0  0  0  0
 14 15  1  0  0  0  0
 14 16  1  0  0  0  0
 14 17  1  0  0  0  0
 17 18  1  0  0  0  0
 17 19  2  0  0  0  0
 20 21  2  0  0  0  0
 20 22  1  0  0  0  0
 22 23  1  0  0  0  0
 22 24  1  0  0  0  0
 24 25  1  0  0  0  0
 24 26  1  0  0  0  0
 24 27  1  0  0  0  0
M  CHG  1  18  -1
M  END
$$$$

  -OEChem-01062216073D

 27 26  0     1  0  0  0  0  0999 V2000
   -3.1331   -2.8872    1.3145 H   0  0  0  0  0  0  0  0  0  0  0  0
   -3.0927   -1.8966    0.8532 C   0  0  0  0  0  0  0  0  0  0  0  0
   -3.6187   -1.1872    1.4968 H   0  0  0  0  0  0  0  0  0  0  0  0
   -3.5926   -1.9382   -0.1177 H   0  0  0  0  0  0  0  0  0  0  0  0
   -1.6495   -1.4586    0.6763 C   0  0  0  0  0  0  0  0  0  0  0  0
   -0.7439   -2.2281    0.9611 O   0  0  0  0  0  0  0  0  0  0  0  0
   -1.3796   -0.2607    0.0463 N   0  0  0  0  0  0  0  0  0  0  0  0
   -2.1907    0.2872   -0.2235 H   0  0  0  0  0  0  0  0  0  0  0  0
   -0.1128    0.4772    0.1970 C   0  0  1  0  0  0  0  0  0  0  0  0
    0.7137   -0.1664   -0.1213 H   0  0  0  0  0  0  0  0  0  0  0  0
   -0.1910    1.6844   -0.7604 C   0  0  0  0  0  0  0  0  0  0  0  0
   -1.0855    2.2767   -0.5378 H   0  0  0  0  0  0  0  0  0  0  0  0
    0.6817    2.3298   -0.6194 H   0  0  0  0  0  0  0  0  0  0  0  0
   -0.1970    1.2697   -2.2384 C   0  0  0  0  0  0  0  0  0  0  0  0
    0.7222    0.7284   -2.4808 H   0  0  0  0  0  0  0  0  0  0  0  0
   -1.0415    0.6079   -2.4514 H   0  0  0  0  0  0  0  0  0  0  0  0
   -0.3010    2.5160   -3.1138 C   0  0  0  0  0  0  0  0  0  0  0  0
    0.7483    3.1802   -3.3007 O   0  5  0  0  0  0  0  0  0  0  0  0
   -1.4429    2.8477   -3.5168 O   0  0  0  0  0  0  0  0  0  0  0  0
    0.2175    0.9185    1.6565 C   0  0  0  0  0  0  0  0  0  0  0  0
   -0.0435    0.2224    2.6300 O   0  0  0  0  0  0  0  0  0  0  0  0
    0.6773    2.1988    1.9218 N   0  0  0  0  0  0  0  0  0  0  0  0
    0.8242    2.8093    1.1222 H   0  0  0  0  0  0  0  0  0  0  0  0
    0.9064    2.7277    3.2591 C   0  0  0  0  0  0  0  0  0  0  0  0
    1.6419    2.1165    3.7919 H   0  0  0  0  0  0  0  0  0  0  0  0
    1.2883    3.7511    3.1967 H   0  0  0  0  0  0  0  0  0  0  0  0
   -0.0268    2.7404    3.8311 H   0  0  0  0  0  0  0  0  0  0  0  0
  1  2  1  0  0  0  0
  2  3  1  0  0  0  0
  2  4  1  0  0  0  0
  2  5  1  0  0  0  0
  5  6  2  0  0  0  0
  5  7  1  0  0  0  0
  7  8  1  0  0  0  0
  7  9  1  0  0  0  0
  9 10  1  0  0  0  0
  9 11  1  0  0  0  0
  9 20  1  0  0  0  0
 11 12  1  0  0  0  0
 11 13  1  0  0  0  0
 11 14  1  0  0  0  0
 14 15  1  0  0  0  0
 14 16  1  0  0  0  0
 14 17  1  0  0  0  0
 17 18  1  0  0  0  0
 17 19  2  0  0  0  0
 20 21  2  0  0  0  0
 20 22  1  0  0  0  0
 22 23  1  0  0  0  0
 22 24  1  0  0  0  0
 24 25  1  0  0  0  0
 24 26  1  0  0  0  0
 24 27  1  0  0  0  0
M  CHG  1  18  -1
M  END
$$$$

  -OEChem-01062216073D

 27 26  0     1  0  0  0  0  0999 V2000
   -3.1018   -2.9301    1.2637 H   0  0  0  0  0  0  0  0  0  0  0  0
   -3.0598   -1.9520    0.7762 C   0  0  0  0  0  0  0  0  0  0  0  0
   -3.6478   -1.2416    1.3626 H   0  0  0  0  0  0  0  0  0  0  0  0
   -3.4935   -2.0365   -0.2234 H   0  0  0  0  0  0  0  0  0  0  0  0
   -1.6211   -1.4756    0.6785 C   0  0  0  0  0  0  0  0  0  0  0  0
   -0.7170   -2.2197    1.0228 O   0  0  0  0  0  0  0  0  0  0  0  0
   -1.3536   -0.2730    0.0565 N   0  0  0  0  0  0  0  0  0  0  0  0
   -2.1639    0.2438   -0.2699 H   0  0  0  0  0  0  0  0  0  0  0  0
   -0.1118    0.5006    0.2333 C   0  0  1  0  0  0  0  0  0  0  0  0
    0.7400   -0.1216   -0.0605 H   0  0  0  0  0  0  0  0  0  0  0  0
   -0.1920    1.7088   -0.7208 C   0  0  0  0  0  0  0  0  0  0  0  0
   -1.1065    2.2770   -0.5173 H   0  0  0  0  0  0  0  0  0  0  0  0
    0.6632    2.3696   -0.5420 H   0  0  0  0  0  0  0  0  0  0  0  0
   -0.1513    1.3092   -2.2074 C   0  0  0  0  0  0  0  0  0  0  0  0
    0.7830    0.7808   -2.4170 H   0  0  0  0  0  0  0  0  0  0  0  0
   -0.9775    0.6290   -2.4320 H   0  0  0  0  0  0  0  0  0  0  0  0
   -0.2562    2.5155   -3.1496 C   0  0  0  0  0  0  0  0  0  0  0  0
   -0.3186    2.2672   -4.3776 O   0  5  0  0  0  0  0  0  0  0  0  0
   -0.2939    3.6710   -2.6521 O   0  0  0  0  0  0  0  0  0  0  0  0
    0.1641    0.9536    1.6979 C   0  0  0  0  0  0  0  0  0  0  0  0
    0.2315    0.1630    2.6292 O   0  0  0  0  0  0  0  0  0  0  0  0
    0.2731    2.2990    2.0123 N   0  0  0  0  0  0  0  0  0  0  0  0
    0.1935    2.9589    1.2416 H   0  0  0  0  0  0  0  0  0  0  0  0
    0.4970    2.8095    3.3573 C   0  0  0  0  0  0  0  0  0  0  0  0
    1.4153    2.3885    3.7796 H   0  0  0  0  0  0  0  0  0  0  0  0
    0.5960    3.8988    3.3328 H   0  0  0  0  0  0  0  0  0  0  0  0
   -0.3442    2.5517    4.0087 H   0  0  0  0  0  0  0  0  0  0  0  0
  1  2  1  0  0  0  0
  2  3  1  0  0  0  0
  2  4  1  0  0  0  0
  2  5  1  0  0  0  0
  5  6  2  0  0  0  0
  5  7  1  0  0  0  0
  7  8  1  0  0  0  0
  7  9  1  0  0  0  0
  9 10  1  0  0  0  0
  9 11  1  0  0  0  0
  9 20  1  0  0  0  0
 11 12  1  0  0  0  0
 11 13  1  0  0  0  0
 11 14  1  0  0  0  0
 14 15  1  0  0  0  0
 14 16  1  0  0  0  0
 14 17  1  0  0  0  0
 17 18  1  0  0  0  0
 17 19  2  0  0  0  0
 20 21  2  0  0  0  0
 20 22  1  0  0  0  0
 22 23  1  0  0  0  0
 22 24  1  0  0  0  0
 24 25  1  0  0  0  0
 24 26  1  0  0  0  0
 24 27  1  0  0  0  0
M  CHG  1  18  -1
M  END
$$$$

  -OEChem-01062216073D

 27 26  0     1  0  0  0  0  0999 V2000
   -3.3173   -2.8653    1.1940 H   0  0  0  0  0  0  0  0  0  0  0  0
   -3.2170   -1.8902    0.7092 C   0  0  0  0  0  0  0  0  0  0  0  0
   -3.8670   -1.1751    1.2193 H   0  0  0  0  0  0  0  0  0  0  0  0
   -3.5331   -1.9805   -0.3332 H   0  0  0  0  0  0  0  0  0  0  0  0
   -1.7756   -1.4162    0.7747 C   0  0  0  0  0  0  0  0  0  0  0  0
   -0.9366   -2.1279    1.2982 O   0  0  0  0  0  0  0  0  0  0  0  0
   -1.4357   -0.2361    0.1467 N   0  0  0  0  0  0  0  0  0  0  0  0
   -2.1832    0.2459   -0.3452 H   0  0  0  0  0  0  0  0  0  0  0  0
   -0.1509    0.4758    0.2600 C   0  0  1  0  0  0  0  0  0  0  0  0
    0.6570   -0.1859   -0.0694 H   0  0  0  0  0  0  0  0  0  0  0  0
   -0.2334    1.6783   -0.6994 C   0  0  0  0  0  0  0  0  0  0  0  0
   -1.1159    2.2830   -0.4622 H   0  0  0  0  0  0  0  0  0  0  0  0
    0.6518    2.3106   -0.5675 H   0  0  0  0  0  0  0  0  0  0  0  0
   -0.2880    1.2533   -2.1744 C   0  0  0  0  0  0  0  0  0  0  0  0
    0.6121    0.6882   -2.4347 H   0  0  0  0  0  0  0  0  0  0  0  0
   -1.1526    0.6098   -2.3603 H   0  0  0  0  0  0  0  0  0  0  0  0
   -0.3947    2.4909   -3.0617 C   0  0  0  0  0  0  0  0  0  0  0  0
   -1.5142    3.0598   -3.1072 O   0  5  0  0  0  0  0  0  0  0  0  0
    0.6433    2.8995   -3.6358 O   0  0  0  0  0  0  0  0  0  0  0  0
    0.2145    0.9266    1.7009 C   0  0  0  0  0  0  0  0  0  0  0  0
    0.6984    0.1564    2.5187 O   0  0  0  0  0  0  0  0  0  0  0  0
    0.1005    2.2572    2.0709 N   0  0  0  0  0  0  0  0  0  0  0  0
   -0.2148    2.9059    1.3548 H   0  0  0  0  0  0  0  0  0  0  0  0
    0.5332    2.7828    3.3577 C   0  0  0  0  0  0  0  0  0  0  0  0
    1.6123    2.6468    3.4831 H   0  0  0  0  0  0  0  0  0  0  0  0
    0.3085    3.8517    3.4208 H   0  0  0  0  0  0  0  0  0  0  0  0
    0.0134    2.2712    4.1743 H   0  0  0  0  0  0  0  0  0  0  0  0
  1  2  1  0  0  0  0
  2  3  1  0  0  0  0
  2  4  1  0  0  0  0
  2  5  1  0  0  0  0
  5  6  2  0  0  0  0
  5  7  1  0  0  0  0
  7  8  1  0  0  0  0
  7  9  1  0  0  0  0
  9 10  1  0  0  0  0
  9 11  1  0  0  0  0
  9 20  1  0  0  0  0
 11 12  1  0  0  0  0
 11 13  1  0  0  0  0
 11 14  1  0  0  0  0
 14 15  1  0  0  0  0
 14 16  1  0  0  0  0
 14 17  1  0  0  0  0
 17 18  1  0  0  0  0
 17 19  2  0  0  0  0
 20 21  2  0  0  0  0
 20 22  1  0  0  0  0
 22 23  1  0  0  0  0
 22 24  1  0  0  0  0
 24 25  1  0  0  0  0
 24 26  1  0  0  0  0
 24 27  1  0  0  0  0
M  CHG  1  18  -1
M  END
$$$$

  -OEChem-01062216073D

 27 26  0     1  0  0  0  0  0999 V2000
   -3.3549   -2.8770    1.1568 H   0  0  0  0  0  0  0  0  0  0  0  0
   -3.2196   -1.9502    0.5922 C   0  0  0  0  0  0  0  0  0  0  0  0
   -3.9654   -1.2237    0.9243 H   0  0  0  0  0  0  0  0  0  0  0  0
   -3.3725   -2.1591   -0.4696 H   0  0  0  0  0  0  0  0  0  0  0  0
   -1.8225   -1.3983    0.8149 C   0  0  0  0  0  0  0  0  0  0  0  0
   -1.0366   -2.0219    1.5056 O   0  0  0  0  0  0  0  0  0  0  0  0
   -1.4624   -0.2257    0.1851 N   0  0  0  0  0  0  0  0  0  0  0  0
   -2.1471    0.1810   -0.4473 H   0  0  0  0  0  0  0  0  0  0  0  0
   -0.1657    0.4649    0.2923 C   0  0  1  0  0  0  0  0  0  0  0  0
    0.6324   -0.2041   -0.0469 H   0  0  0  0  0  0  0  0  0  0  0  0
   -0.2420    1.6774   -0.6531 C   0  0  0  0  0  0  0  0  0  0  0  0
   -1.1152    2.2904   -0.4036 H   0  0  0  0  0  0  0  0  0  0  0  0
    0.6510    2.2982   -0.5185 H   0  0  0  0  0  0  0  0  0  0  0  0
   -0.3190    1.2613   -2.1309 C   0  0  0  0  0  0  0  0  0  0  0  0
    0.5703    0.6841   -2.4020 H   0  0  0  0  0  0  0  0  0  0  0  0
   -1.1945    0.6314   -2.3099 H   0  0  0  0  0  0  0  0  0  0  0  0
   -0.4194    2.4998   -3.0182 C   0  0  0  0  0  0  0  0  0  0  0  0
   -1.5066    3.1295   -2.9856 O   0  5  0  0  0  0  0  0  0  0  0  0
    0.5829    2.8301   -3.6961 O   0  0  0  0  0  0  0  0  0  0  0  0
    0.2086    0.9070    1.7294 C   0  0  0  0  0  0  0  0  0  0  0  0
    0.9818    0.2512    2.4155 O   0  0  0  0  0  0  0  0  0  0  0  0
   -0.1705    2.1553    2.1946 N   0  0  0  0  0  0  0  0  0  0  0  0
   -0.6974    2.7400    1.5524 H   0  0  0  0  0  0  0  0  0  0  0  0
    0.2875    2.7237    3.4538 C   0  0  0  0  0  0  0  0  0  0  0  0
    1.3759    2.8414    3.4468 H   0  0  0  0  0  0  0  0  0  0  0  0
   -0.1673    3.7065    3.6091 H   0  0  0  0  0  0  0  0  0  0  0  0
    0.0056    2.0762    4.2904 H   0  0  0  0  0  0  0  0  0  0  0  0
  1  2  1  0  0  0  0
  2  3  1  0  0  0  0
  2  4  1  0  0  0  0
  2  5  1  0  0  0  0
  5  6  2  0  0  0  0
  5  7  1  0  0  0  0
  7  8  1  0  0  0  0
  7  9  1  0  0  0  0
  9 10  1  0  0  0  0
  9 11  1  0  0  0  0
  9 20  1  0  0  0  0
 11 12  1  0  0  0  0
 11 13  1  0  0  0  0
 11 14  1  0  0  0  0
 14 15  1  0  0  0  0
 14 16  1  0  0  0  0
 14 17  1  0  0  0  0
 17 18  1  0  0  0  0
 17 19  2  0  0  0  0
 20 21  2  0  0  0  0
 20 22  1  0  0  0  0
 22 23  1  0  0  0  0
 22 24  1  0  0  0  0
 24 25  1  0  0  0  0
 24 26  1  0  0  0  0
 24 27  1  0  0  0  0
M  CHG  1  18  -1
M  END
$$$$

  -OEChem-01062216073D

 27 26  0     1  0  0  0  0  0999 V2000
   -3.3549   -2.8893    1.1469 H   0  0  0  0  0  0  0  0  0  0  0  0
   -3.2129   -1.9750    0.5640 C   0  0  0  0  0  0  0  0  0  0  0  0
   -3.9857   -1.2551    0.8446 H   0  0  0  0  0  0  0  0  0  0  0  0
   -3.3161   -2.2142   -0.4974 H   0  0  0  0  0  0  0  0  0  0  0  0
   -1.8377   -1.3891    0.8308 C   0  0  0  0  0  0  0  0  0  0  0  0
   -1.0747   -1.9666    1.5849 O   0  0  0  0  0  0  0  0  0  0  0  0
   -1.4743   -0.2219    0.1933 N   0  0  0  0  0  0  0  0  0  0  0  0
   -2.1261    0.1446   -0.4962 H   0  0  0  0  0  0  0  0  0  0  0  0
   -0.1652    0.4458    0.2904 C   0  0  1  0  0  0  0  0  0  0  0  0
    0.6203   -0.2315   -0.0614 H   0  0  0  0  0  0  0  0  0  0  0  0
   -0.2310    1.6727   -0.6352 C   0  0  0  0  0  0  0  0  0  0  0  0
   -1.0879    2.2999   -0.3659 H   0  0  0  0  0  0  0  0  0  0  0  0
    0.6752    2.2741   -0.5014 H   0  0  0  0  0  0  0  0  0  0  0  0
   -0.3352    1.2753   -2.1172 C   0  0  0  0  0  0  0  0  0  0  0  0
    0.5399    0.6848   -2.4051 H   0  0  0  0  0  0  0  0  0  0  0  0
   -1.2243    0.6632   -2.2913 H   0  0  0  0  0  0  0  0  0  0  0  0
   -0.4250    2.5218   -2.9945 C   0  0  0  0  0  0  0  0  0  0  0  0
   -1.4949    3.1782   -2.9316 O   0  5  0  0  0  0  0  0  0  0  0  0
    0.5610    2.8206   -3.7099 O   0  0  0  0  0  0  0  0  0  0  0  0
    0.2193    0.8747    1.7256 C   0  0  0  0  0  0  0  0  0  0  0  0
    1.1753    0.3691    2.3007 O   0  0  0  0  0  0  0  0  0  0  0  0
   -0.3911    1.9752    2.3021 N   0  0  0  0  0  0  0  0  0  0  0  0
   -1.0879    2.4548    1.7404 H   0  0  0  0  0  0  0  0  0  0  0  0
    0.0233    2.5582    3.5694 C   0  0  0  0  0  0  0  0  0  0  0  0
    1.0528    2.9243    3.5034 H   0  0  0  0  0  0  0  0  0  0  0  0
   -0.6286    3.3983    3.8267 H   0  0  0  0  0  0  0  0  0  0  0  0
   -0.0386    1.8147    4.3705 H   0  0  0  0  0  0  0  0  0  0  0  0
  1  2  1  0  0  0  0
  2  3  1  0  0  0  0
  2  4  1  0  0  0  0
  2  5  1  0  0  0  0
  5  6  2  0  0  0  0
  5  7  1  0  0  0  0
  7  8  1  0  0  0  0
  7  9  1  0  0  0  0
  9 10  1  0  0  0  0
  9 11  1  0  0  0  0
  9 20  1  0  0  0  0
 11 12  1  0  0  0  0
 11 13  1  0  0  0  0
 11 14  1  0  0  0  0
 14 15  1  0  0  0  0
 14 16  1  0  0  0  0
 14 17  1  0  0  0  0
 17 18  1  0  0  0  0
 17 19  2  0  0  0  0
 20 21  2  0  0  0  0
 20 22  1  0  0  0  0
 22 23  1  0  0  0  0
 22 24  1  0  0  0  0
 24 25  1  0  0  0  0
 24 26  1  0  0  0  0
 24 27  1  0  0  0  0
M  CHG  1  18  -1
M  END
$$$$

  -OEChem-01062216073D

 27 26  0     1  0  0  0  0  0999 V2000
   -3.3653   -2.8846    1.1442 H   0  0  0  0  0  0  0  0  0  0  0  0
   -3.2150   -1.9789    0.5499 C   0  0  0  0  0  0  0  0  0  0  0  0
   -3.9969   -1.2581    0.8019 H   0  0  0  0  0  0  0  0  0  0  0  0
   -3.2945   -2.2358   -0.5095 H   0  0  0  0  0  0  0  0  0  0  0  0
   -1.8485   -1.3818    0.8361 C   0  0  0  0  0  0  0  0  0  0  0  0
   -1.0976   -1.9392    1.6180 O   0  0  0  0  0  0  0  0  0  0  0  0
   -1.4779   -0.2198    0.1935 N   0  0  0  0  0  0  0  0  0  0  0  0
   -2.1102    0.1292   -0.5231 H   0  0  0  0  0  0  0  0  0  0  0  0
   -0.1570    0.4257    0.2841 C   0  0  1  0  0  0  0  0  0  0  0  0
    0.6179   -0.2579   -0.0787 H   0  0  0  0  0  0  0  0  0  0  0  0
   -0.2172    1.6639   -0.6248 C   0  0  0  0  0  0  0  0  0  0  0  0
   -1.0601    2.3011   -0.3356 H   0  0  0  0  0  0  0  0  0  0  0  0
    0.6997    2.2502   -0.4963 H   0  0  0  0  0  0  0  0  0  0  0  0
   -0.3462    1.2804   -2.1091 C   0  0  0  0  0  0  0  0  0  0  0  0
    0.5171    0.6806   -2.4129 H   0  0  0  0  0  0  0  0  0  0  0  0
   -1.2452    0.6812   -2.2771 H   0  0  0  0  0  0  0  0  0  0  0  0
   -0.4304    2.5330   -2.9778 C   0  0  0  0  0  0  0  0  0  0  0  0
   -1.5049    3.1827   -2.9244 O   0  5  0  0  0  0  0  0  0  0  0  0
    0.5601    2.8376   -3.6847 O   0  0  0  0  0  0  0  0  0  0  0  0
    0.2392    0.8449    1.7168 C   0  0  0  0  0  0  0  0  0  0  0  0
    1.3210    0.5196    2.1912 O   0  0  0  0  0  0  0  0  0  0  0  0
   -0.5529    1.7430    2.4099 N   0  0  0  0  0  0  0  0  0  0  0  0
   -1.3840    2.0772    1.9329 H   0  0  0  0  0  0  0  0  0  0  0  0
   -0.1842    2.3231    3.6923 C   0  0  0  0  0  0  0  0  0  0  0  0
    0.7136    2.9405    3.5881 H   0  0  0  0  0  0  0  0  0  0  0  0
   -0.9973    2.9514    4.0675 H   0  0  0  0  0  0  0  0  0  0  0  0
    0.0103    1.5353    4.4270 H   0  0  0  0  0  0  0  0  0  0  0  0
  1  2  1  0  0  0  0
  2  3  1  0  0  0  0
  2  4  1  0  0  0  0
  2  5  1  0  0  0  0
  5  6  2  0  0  0  0
  5  7  1  0  0  0  0
  7  8  1  0  0  0  0
  7  9  1  0  0  0  0
  9 10  1  0  0  0  0
  9 11  1  0  0  0  0
  9 20  1  0  0  0  0
 11 12  1  0  0  0  0
 11 13  1  0  0  0  0
 11 14  1  0  0  0  0
 14 15  1  0  0  0  0
 14 16  1  0  0  0  0
 14 17  1  0  0  0  0
 17 18  1  0  0  0  0
 17 19  2  0  0  0  0
 20 21  2  0  0  0  0
 20 22  1  0  0  0  0
 22 23  1  0  0  0  0
 22 24  1  0  0  0  0
 24 25  1  0  0  0  0
 24 26  1  0  0  0  0
 24 27  1  0  0  0  0
M  CHG  1  18  -1
M  END
$$$$

  -OEChem-01062216073D

 27 26  0     1  0  0  0  0  0999 V2000
   -3.3554   -2.8641    1.1589 H   0  0  0  0  0  0  0  0  0  0  0  0
   -3.2057   -1.9653    0.5541 C   0  0  0  0  0  0  0  0  0  0  0  0
   -3.9954   -1.2473    0.7887 H   0  0  0  0  0  0  0  0  0  0  0  0
   -3.2735   -2.2362   -0.5025 H   0  0  0  0  0  0  0  0  0  0  0  0
   -1.8462   -1.3551    0.8455 C   0  0  0  0  0  0  0  0  0  0  0  0
   -1.1035   -1.8898    1.6511 O   0  0  0  0  0  0  0  0  0  0  0  0
   -1.4739   -0.1993    0.1926 N   0  0  0  0  0  0  0  0  0  0  0  0
   -2.0934    0.1311   -0.5443 H   0  0  0  0  0  0  0  0  0  0  0  0
   -0.1455    0.4349    0.2714 C   0  0  1  0  0  0  0  0  0  0  0  0
    0.6216   -0.2548   -0.0958 H   0  0  0  0  0  0  0  0  0  0  0  0
   -0.2069    1.6709   -0.6398 C   0  0  0  0  0  0  0  0  0  0  0  0
   -1.0421    2.3146   -0.3424 H   0  0  0  0  0  0  0  0  0  0  0  0
    0.7146    2.2524   -0.5228 H   0  0  0  0  0  0  0  0  0  0  0  0
   -0.3532    1.2795   -2.1215 C   0  0  0  0  0  0  0  0  0  0  0  0
    0.5045    0.6731   -2.4282 H   0  0  0  0  0  0  0  0  0  0  0  0
   -1.2564    0.6834   -2.2770 H   0  0  0  0  0  0  0  0  0  0  0  0
   -0.4392    2.5236   -3.0024 C   0  0  0  0  0  0  0  0  0  0  0  0
   -1.5130    3.1748   -2.9516 O   0  5  0  0  0  0  0  0  0  0  0  0
    0.5434    2.8122   -3.7270 O   0  0  0  0  0  0  0  0  0  0  0  0
    0.2679    0.8588    1.6971 C   0  0  0  0  0  0  0  0  0  0  0  0
    1.4254    0.7319    2.0785 O   0  0  0  0  0  0  0  0  0  0  0  0
   -0.6418    1.5109    2.5092 N   0  0  0  0  0  0  0  0  0  0  0  0
   -1.5829    1.6130    2.1450 H   0  0  0  0  0  0  0  0  0  0  0  0
   -0.3323    1.9916    3.8466 C   0  0  0  0  0  0  0  0  0  0  0  0
    0.4562    2.7499    3.8067 H   0  0  0  0  0  0  0  0  0  0  0  0
   -1.2214    2.4396    4.2997 H   0  0  0  0  0  0  0  0  0  0  0  0
    0.0015    1.1647    4.4819 H   0  0  0  0  0  0  0  0  0  0  0  0
  1  2  1  0  0  0  0
  2  3  1  0  0  0  0
  2  4  1  0  0  0  0
  2  5  1  0  0  0  0
  5  6  2  0  0  0  0
  5  7  1  0  0  0  0
  7  8  1  0  0  0  0
  7  9  1  0  0  0  0
  9 10  1  0  0  0  0
  9 11  1  0  0  0  0
  9 20  1  0  0  0  0
 11 12  1  0  0  0  0
 11 13  1  0  0  0  0
 11 14  1  0  0  0  0
 14 15  1  0  0  0  0
 14 16  1  0  0  0  0
 14 17  1  0  0  0  0
 17 18  1  0  0  0  0
 17 19  2  0  0  0  0
 20 21  2  0  0  0  0
 20 22  1  0  0  0  0
 22 23  1  0  0  0  0
 22 24  1  0  0  0  0
 24 25  1  0  0  0  0
 24 26  1  0  0  0  0
 24 27  1  0  0  0  0
M  CHG  1  18  -1
M  END
$$$$

  -OEChem-01062216073D

 27 26  0     1  0  0  0  0  0999 V2000
   -3.3584   -2.8525    1.1358 H   0  0  0  0  0  0  0  0  0  0  0  0
   -3.2013   -1.9598    0.5238 C   0  0  0  0  0  0  0  0  0  0  0  0
   -4.0072   -1.2492    0.7230 H   0  0  0  0  0  0  0  0  0  0  0  0
   -3.2322   -2.2463   -0.5306 H   0  0  0  0  0  0  0  0  0  0  0  0
   -1.8598   -1.3277    0.8490 C   0  0  0  0  0  0  0  0  0  0  0  0
   -1.1382   -1.8353    1.6907 O   0  0  0  0  0  0  0  0  0  0  0  0
   -1.4808   -0.1761    0.1932 N   0  0  0  0  0  0  0  0  0  0  0  0
   -2.0878    0.1437   -0.5591 H   0  0  0  0  0  0  0  0  0  0  0  0
   -0.1505    0.4566    0.2741 C   0  0  1  0  0  0  0  0  0  0  0  0
    0.6152   -0.2365   -0.0891 H   0  0  0  0  0  0  0  0  0  0  0  0
   -0.2150    1.6824   -0.6509 C   0  0  0  0  0  0  0  0  0  0  0  0
   -1.0519    2.3270   -0.3601 H   0  0  0  0  0  0  0  0  0  0  0  0
    0.7049    2.2678   -0.5412 H   0  0  0  0  0  0  0  0  0  0  0  0
   -0.3577    1.2707   -2.1282 C   0  0  0  0  0  0  0  0  0  0  0  0
    0.5027    0.6633   -2.4252 H   0  0  0  0  0  0  0  0  0  0  0  0
   -1.2577    0.6682   -2.2772 H   0  0  0  0  0  0  0  0  0  0  0  0
   -0.4477    2.4996   -3.0297 C   0  0  0  0  0  0  0  0  0  0  0  0
   -1.5392    3.1225   -3.0227 O   0  5  0  0  0  0  0  0  0  0  0  0
    0.5473    2.7996   -3.7324 O   0  0  0  0  0  0  0  0  0  0  0  0
    0.2762    0.8945    1.6931 C   0  0  0  0  0  0  0  0  0  0  0  0
    1.4626    0.9859    1.9857 O   0  0  0  0  0  0  0  0  0  0  0  0
   -0.6767    1.2736    2.6205 N   0  0  0  0  0  0  0  0  0  0  0  0
   -1.6397    1.0821    2.3679 H   0  0  0  0  0  0  0  0  0  0  0  0
   -0.3602    1.6372    3.9929 C   0  0  0  0  0  0  0  0  0  0  0  0
    0.3240    2.4916    4.0138 H   0  0  0  0  0  0  0  0  0  0  0  0
   -1.2734    1.9133    4.5282 H   0  0  0  0  0  0  0  0  0  0  0  0
    0.1076    0.7948    4.5127 H   0  0  0  0  0  0  0  0  0  0  0  0
  1  2  1  0  0  0  0
  2  3  1  0  0  0  0
  2  4  1  0  0  0  0
  2  5  1  0  0  0  0
  5  6  2  0  0  0  0
  5  7  1  0  0  0  0
  7  8  1  0  0  0  0
  7  9  1  0  0  0  0
  9 10  1  0  0  0  0
  9 11  1  0  0  0  0
  9 20  1  0  0  0  0
 11 12  1  0  0  0  0
 11 13  1  0  0  0  0
 11 14  1  0  0  0  0
 14 15  1  0  0  0  0
 14 16  1  0  0  0  0
 14 17  1  0  0  0  0
 17 18  1  0  0  0  0
 17 19  2  0  0  0  0
 20 21  2  0  0  0  0
 20 22  1  0  0  0  0
 22 23  1  0  0  0  0
 22 24  1  0  0  0  0
 24 25  1  0  0  0  0
 24 26  1  0  0  0  0
 24 27  1  0  0  0  0
M  CHG  1  18  -1
M  END
$$$$

  -OEChem-01062216073D

 27 26  0     1  0  0  0  0  0999 V2000
   -3.3767   -2.8629    1.0514 H   0  0  0  0  0  0  0  0  0  0  0  0
   -3.2176   -1.9532    0.4657 C   0  0  0  0  0  0  0  0  0  0  0  0
   -4.0340   -1.2553    0.6681 H   0  0  0  0  0  0  0  0  0  0  0  0
   -3.2265   -2.2124   -0.5962 H   0  0  0  0  0  0  0  0  0  0  0  0
   -1.8885   -1.3173    0.8309 C   0  0  0  0  0  0  0  0  0  0  0  0
   -1.2011   -1.8073    1.7110 O   0  0  0  0  0  0  0  0  0  0  0  0
   -1.4943   -0.1623    0.1919 N   0  0  0  0  0  0  0  0  0  0  0  0
   -2.0893    0.1611   -0.5688 H   0  0  0  0  0  0  0  0  0  0  0  0
   -0.1668    0.4774    0.2900 C   0  0  1  0  0  0  0  0  0  0  0  0
    0.6027   -0.2145   -0.0671 H   0  0  0  0  0  0  0  0  0  0  0  0
   -0.2334    1.6931   -0.6506 C   0  0  0  0  0  0  0  0  0  0  0  0
   -1.0803    2.3325   -0.3776 H   0  0  0  0  0  0  0  0  0  0  0  0
    0.6783    2.2909   -0.5397 H   0  0  0  0  0  0  0  0  0  0  0  0
   -0.3538    1.2590   -2.1244 C   0  0  0  0  0  0  0  0  0  0  0  0
    0.5172    0.6575   -2.4021 H   0  0  0  0  0  0  0  0  0  0  0  0
   -1.2444    0.6435   -2.2760 H   0  0  0  0  0  0  0  0  0  0  0  0
   -0.4468    2.4707   -3.0485 C   0  0  0  0  0  0  0  0  0  0  0  0
   -1.5528    3.0664   -3.0838 O   0  5  0  0  0  0  0  0  0  0  0  0
    0.5581    2.7784   -3.7338 O   0  0  0  0  0  0  0  0  0  0  0  0
    0.2666    0.9206    1.7088 C   0  0  0  0  0  0  0  0  0  0  0  0
    1.4252    1.2575    1.9227 O   0  0  0  0  0  0  0  0  0  0  0  0
   -0.6523    1.0055    2.7386 N   0  0  0  0  0  0  0  0  0  0  0  0
   -1.5106    0.4890    2.5757 H   0  0  0  0  0  0  0  0  0  0  0  0
   -0.2747    1.3000    4.1129 C   0  0  0  0  0  0  0  0  0  0  0  0
    0.2301    2.2697    4.1732 H   0  0  0  0  0  0  0  0  0  0  0  0
   -1.1659    1.3367    4.7461 H   0  0  0  0  0  0  0  0  0  0  0  0
    0.3961    0.5258    4.4989 H   0  0  0  0  0  0  0  0  0  0  0  0
  1  2  1  0  0  0  0
  2  3  1  0  0  0  0
  2  4  1  0  0  0  0
  2  5  1  0  0  0  0
  5  6  2  0  0  0  0
  5  7  1  0  0  0  0
  7  8  1  0  0  0  0
  7  9  1  0  0  0  0
  9 10  1  0  0  0  0
  9 11  1  0  0  0  0
  9 20  1  0  0  0  0
 11 12  1  0  0  0  0
 11 13  1  0  0  0  0
 11 14  1  0  0  0  0
 14 15  1  0  0  0  0
 14 16  1  0  0  0  0
 14 17  1  0  0  0  0
 17 18  1  0  0  0  0
 17 19  2  0  0  0  0
 20 21  2  0  0  0  0
 20 22  1  0  0  0  0
 22 23  1  0  0  0  0
 22 24  1  0  0  0  0
 24 25  1  0  0  0  0
 24 26  1  0  0  0  0
 24 27  1  0  0  0  0
M  CHG  1  18  -1
M  END
$$$$

  -OEChem-01062216073D

 27 26  0     1  0  0  0  0  0999 V2000
   -3.4183   -2.8641    0.9649 H   0  0  0  0  0  0  0  0  0  0  0  0
   -3.2426   -1.9432    0.4018 C   0  0  0  0  0  0  0  0  0  0  0  0
   -4.0578   -1.2439    0.6047 H   0  0  0  0  0  0  0  0  0  0  0  0
   -3.2347   -2.1795   -0.6655 H   0  0  0  0  0  0  0  0  0  0  0  0
   -1.9158   -1.3246    0.8029 C   0  0  0  0  0  0  0  0  0  0  0  0
   -1.2470   -1.8365    1.6862 O   0  0  0  0  0  0  0  0  0  0  0  0
   -1.5033   -0.1605    0.1932 N   0  0  0  0  0  0  0  0  0  0  0  0
   -2.0996    0.1907   -0.5541 H   0  0  0  0  0  0  0  0  0  0  0  0
   -0.1790    0.4854    0.3093 C   0  0  1  0  0  0  0  0  0  0  0  0
    0.5929   -0.2028   -0.0484 H   0  0  0  0  0  0  0  0  0  0  0  0
   -0.2496    1.6966   -0.6401 C   0  0  0  0  0  0  0  0  0  0  0  0
   -1.1062    2.3278   -0.3785 H   0  0  0  0  0  0  0  0  0  0  0  0
    0.6535    2.3070   -0.5287 H   0  0  0  0  0  0  0  0  0  0  0  0
   -0.3510    1.2499   -2.1125 C   0  0  0  0  0  0  0  0  0  0  0  0
    0.5287    0.6549   -2.3759 H   0  0  0  0  0  0  0  0  0  0  0  0
   -1.2336    0.6242   -2.2682 H   0  0  0  0  0  0  0  0  0  0  0  0
   -0.4481    2.4518   -3.0491 C   0  0  0  0  0  0  0  0  0  0  0  0
   -1.5497    3.0561   -3.0769 O   0  5  0  0  0  0  0  0  0  0  0  0
    0.5470    2.7373   -3.7583 O   0  0  0  0  0  0  0  0  0  0  0  0
    0.2627    0.9193    1.7324 C   0  0  0  0  0  0  0  0  0  0  0  0
    1.3335    1.4916    1.8989 O   0  0  0  0  0  0  0  0  0  0  0  0
   -0.5446    0.7094    2.8351 N   0  0  0  0  0  0  0  0  0  0  0  0
   -1.2256   -0.0362    2.7016 H   0  0  0  0  0  0  0  0  0  0  0  0
   -0.1071    0.9939    4.1941 C   0  0  0  0  0  0  0  0  0  0  0  0
    0.1585    2.0510    4.2981 H   0  0  0  0  0  0  0  0  0  0  0  0
   -0.9114    0.7703    4.9011 H   0  0  0  0  0  0  0  0  0  0  0  0
    0.7640    0.3827    4.4515 H   0  0  0  0  0  0  0  0  0  0  0  0
  1  2  1  0  0  0  0
  2  3  1  0  0  0  0
  2  4  1  0  0  0  0
  2  5  1  0  0  0  0
  5  6  2  0  0  0  0
  5  7  1  0  0  0  0
  7  8  1  0  0  0  0
  7  9  1  0  0  0  0
  9 10  1  0  0  0  0
  9 11  1  0  0  0  0
  9 20  1  0  0  0  0
 11 12  1  0  0  0  0
 11 13  1  0  0  0  0
 11 14  1  0  0  0  0
 14 15  1  0  0  0  0
 14 16  1  0  0  0  0
 14 17  1  0  0  0  0
 17 18  1  0  0  0  0
 17 19  2  0  0  0  0
 20 21  2  0  0  0  0
 20 22  1  0  0  0  0
 22 23  1  0  0  0  0
 22 24  1  0  0  0  0
 24 25  1  0  0  0  0
 24 26  1  0  0  0  0
 24 27  1  0  0  0  0
M  CHG  1  18  -1
M  END
$$$$

  -OEChem-01062216073D

 27 26  0     1  0  0  0  0  0999 V2000
   -3.4411   -2.8464    0.9566 H   0  0  0  0  0  0  0  0  0  0  0  0
   -3.2657   -1.9108    0.4183 C   0  0  0  0  0  0  0  0  0  0  0  0
   -4.0457   -1.1954    0.6911 H   0  0  0  0  0  0  0  0  0  0  0  0
   -3.3226   -2.1066   -0.6556 H   0  0  0  0  0  0  0  0  0  0  0  0
   -1.9003   -1.3477    0.7692 C   0  0  0  0  0  0  0  0  0  0  0  0
   -1.1922   -1.9308    1.5756 O   0  0  0  0  0  0  0  0  0  0  0  0
   -1.4862   -0.1718    0.1828 N   0  0  0  0  0  0  0  0  0  0  0  0
   -2.1151    0.2301   -0.5103 H   0  0  0  0  0  0  0  0  0  0  0  0
   -0.1712    0.4916    0.3120 C   0  0  1  0  0  0  0  0  0  0  0  0
    0.6102   -0.1862   -0.0450 H   0  0  0  0  0  0  0  0  0  0  0  0
   -0.2547    1.6992   -0.6440 C   0  0  0  0  0  0  0  0  0  0  0  0
   -1.1227    2.3183   -0.3910 H   0  0  0  0  0  0  0  0  0  0  0  0
    0.6373    2.3251   -0.5324 H   0  0  0  0  0  0  0  0  0  0  0  0
   -0.3370    1.2445   -2.1154 C   0  0  0  0  0  0  0  0  0  0  0  0
    0.5549    0.6639   -2.3695 H   0  0  0  0  0  0  0  0  0  0  0  0
   -1.2073    0.6025   -2.2756 H   0  0  0  0  0  0  0  0  0  0  0  0
   -0.4468    2.4397   -3.0589 C   0  0  0  0  0  0  0  0  0  0  0  0
   -1.5717    2.9951   -3.1348 O   0  5  0  0  0  0  0  0  0  0  0  0
    0.5648    2.7703   -3.7239 O   0  0  0  0  0  0  0  0  0  0  0  0
    0.2625    0.9178    1.7437 C   0  0  0  0  0  0  0  0  0  0  0  0
    1.1932    1.6975    1.9091 O   0  0  0  0  0  0  0  0  0  0  0  0
   -0.3730    0.4326    2.8718 N   0  0  0  0  0  0  0  0  0  0  0  0
   -0.9100   -0.4199    2.7091 H   0  0  0  0  0  0  0  0  0  0  0  0
    0.0972    0.6945    4.2242 C   0  0  0  0  0  0  0  0  0  0  0  0
    0.1248    1.7715    4.4190 H   0  0  0  0  0  0  0  0  0  0  0  0
   -0.5762    0.2307    4.9508 H   0  0  0  0  0  0  0  0  0  0  0  0
    1.1012    0.2821    4.3659 H   0  0  0  0  0  0  0  0  0  0  0  0
  1  2  1  0  0  0  0
  2  3  1  0  0  0  0
  2  4  1  0  0  0  0
  2  5  1  0  0  0  0
  5  6  2  0  0  0  0
  5  7  1  0  0  0  0
  7  8  1  0  0  0  0
  7  9  1  0  0  0  0
  9 10  1  0  0  0  0
  9 11  1  0  0  0  0
  9 20  1  0  0  0  0
 11 12  1  0  0  0  0
 11 13  1  0  0  0  0
 11 14  1  0  0  0  0
 14 15  1  0  0  0  0
 14 16  1  0  0  0  0
 14 17  1  0  0  0  0
 17 18  1  0  0  0  0
 17 19  2  0  0  0  0
 20 21  2  0  0  0  0
 20 22  1  0  0  0  0
 22 23  1  0  0  0  0
 22 24  1  0  0  0  0
 24 25  1  0  0  0  0
 24 26  1  0  0  0  0
 24 27  1  0  0  0  0
M  CHG  1  18  -1
M  END
$$$$

  -OEChem-01062216073D

 27 26  0     1  0  0  0  0  0999 V2000
   -3.4428   -2.8285    0.9925 H   0  0  0  0  0  0  0  0  0  0  0  0
   -3.2756   -1.8800    0.4747 C   0  0  0  0  0  0  0  0  0  0  0  0
   -4.0104   -1.1520    0.8274 H   0  0  0  0  0  0  0  0  0  0  0  0
   -3.4152   -2.0352   -0.5982 H   0  0  0  0  0  0  0  0  0  0  0  0
   -1.8714   -1.3702    0.7450 C   0  0  0  0  0  0  0  0  0  0  0  0
   -1.1170   -2.0204    1.4535 O   0  0  0  0  0  0  0  0  0  0  0  0
   -1.4660   -0.1835    0.1731 N   0  0  0  0  0  0  0  0  0  0  0  0
   -2.1325    0.2639   -0.4537 H   0  0  0  0  0  0  0  0  0  0  0  0
   -0.1567    0.4912    0.3016 C   0  0  1  0  0  0  0  0  0  0  0  0
    0.6279   -0.1800   -0.0601 H   0  0  0  0  0  0  0  0  0  0  0  0
   -0.2465    1.6994   -0.6547 C   0  0  0  0  0  0  0  0  0  0  0  0
   -1.1175    2.3139   -0.4016 H   0  0  0  0  0  0  0  0  0  0  0  0
    0.6424    2.3299   -0.5443 H   0  0  0  0  0  0  0  0  0  0  0  0
   -0.3243    1.2470   -2.1267 C   0  0  0  0  0  0  0  0  0  0  0  0
    0.5705    0.6711   -2.3816 H   0  0  0  0  0  0  0  0  0  0  0  0
   -1.1914    0.6010   -2.2882 H   0  0  0  0  0  0  0  0  0  0  0  0
   -0.4399    2.4447   -3.0668 C   0  0  0  0  0  0  0  0  0  0  0  0
   -1.5679    2.9934   -3.1459 O   0  5  0  0  0  0  0  0  0  0  0  0
    0.5731    2.7845   -3.7252 O   0  0  0  0  0  0  0  0  0  0  0  0
    0.2729    0.9016    1.7416 C   0  0  0  0  0  0  0  0  0  0  0  0
    1.0035    1.8655    1.9376 O   0  0  0  0  0  0  0  0  0  0  0  0
   -0.1319    0.1857    2.8525 N   0  0  0  0  0  0  0  0  0  0  0  0
   -0.5541   -0.7223    2.6501 H   0  0  0  0  0  0  0  0  0  0  0  0
    0.3411    0.4479    4.2037 C   0  0  0  0  0  0  0  0  0  0  0  0
    0.1143    1.4781    4.4967 H   0  0  0  0  0  0  0  0  0  0  0  0
   -0.1516   -0.2270    4.9098 H   0  0  0  0  0  0  0  0  0  0  0  0
    1.4225    0.2905    4.2671 H   0  0  0  0  0  0  0  0  0  0  0  0
  1  2  1  0  0  0  0
  2  3  1  0  0  0  0
  2  4  1  0  0  0  0
  2  5  1  0  0  0  0
  5  6  2  0  0  0  0
  5  7  1  0  0  0  0
  7  8  1  0  0  0  0
  7  9  1  0  0  0  0
  9 10  1  0  0  0  0
  9 11  1  0  0  0  0
  9 20  1  0  0  0  0
 11 12  1  0  0  0  0
 11 13  1  0  0  0  0
 11 14  1  0  0  0  0
 14 15  1  0  0  0  0
 14 16  1  0  0  0  0
 14 17  1  0  0  0  0
 17 18  1  0  0  0  0
 17 19  2  0  0  0  0
 20 21  2  0  0  0  0
 20 22  1  0  0  0  0
 22 23  1  0  0  0  0
 22 24  1  0  0  0  0
 24 25  1  0  0  0  0
 24 26  1  0  0  0  0
 24 27  1  0  0  0  0
M  CHG  1  18  -1
M  END
$$$$

  -OEChem-01062216073D

 27 26  0     1  0  0  0  0  0999 V2000
   -3.4172   -2.8164    1.0424 H   0  0  0  0  0  0  0  0  0  0  0  0
   -3.2677   -1.8542    0.5444 C   0  0  0  0  0  0  0  0  0  0  0  0
   -3.9703   -1.1283    0.9616 H   0  0  0  0  0  0  0  0  0  0  0  0
   -3.4720   -1.9740   -0.5227 H   0  0  0  0  0  0  0  0  0  0  0  0
   -1.8427   -1.3712    0.7462 C   0  0  0  0  0  0  0  0  0  0  0  0
   -1.0536   -2.0608    1.3760 O   0  0  0  0  0  0  0  0  0  0  0  0
   -1.4513   -0.1782    0.1773 N   0  0  0  0  0  0  0  0  0  0  0  0
   -2.1503    0.3037   -0.3847 H   0  0  0  0  0  0  0  0  0  0  0  0
   -0.1394    0.4932    0.2843 C   0  0  1  0  0  0  0  0  0  0  0  0
    0.6353   -0.1809   -0.0929 H   0  0  0  0  0  0  0  0  0  0  0  0
   -0.2268    1.7037   -0.6685 C   0  0  0  0  0  0  0  0  0  0  0  0
   -1.0892    2.3266   -0.4071 H   0  0  0  0  0  0  0  0  0  0  0  0
    0.6702    2.3241   -0.5646 H   0  0  0  0  0  0  0  0  0  0  0  0
   -0.3230    1.2509   -2.1390 C   0  0  0  0  0  0  0  0  0  0  0  0
    0.5637    0.6662   -2.4024 H   0  0  0  0  0  0  0  0  0  0  0  0
   -1.1977    0.6124   -2.2900 H   0  0  0  0  0  0  0  0  0  0  0  0
   -0.4362    2.4478   -3.0798 C   0  0  0  0  0  0  0  0  0  0  0  0
   -1.5685    2.9842   -3.1785 O   0  5  0  0  0  0  0  0  0  0  0  0
    0.5855    2.8018   -3.7171 O   0  0  0  0  0  0  0  0  0  0  0  0
    0.3087    0.8815    1.7244 C   0  0  0  0  0  0  0  0  0  0  0  0
    0.7984    1.9760    1.9763 O   0  0  0  0  0  0  0  0  0  0  0  0
    0.1814   -0.0030    2.7779 N   0  0  0  0  0  0  0  0  0  0  0  0
   -0.1735   -0.9324    2.5421 H   0  0  0  0  0  0  0  0  0  0  0  0
    0.6148    0.2689    4.1400 C   0  0  0  0  0  0  0  0  0  0  0  0
    0.0964    1.1470    4.5383 H   0  0  0  0  0  0  0  0  0  0  0  0
    0.3887   -0.5871    4.7825 H   0  0  0  0  0  0  0  0  0  0  0  0
    1.6940    0.4498    4.1685 H   0  0  0  0  0  0  0  0  0  0  0  0
  1  2  1  0  0  0  0
  2  3  1  0  0  0  0
  2  4  1  0  0  0  0
  2  5  1  0  0  0  0
  5  6  2  0  0  0  0
  5  7  1  0  0  0  0
  7  8  1  0  0  0  0
  7  9  1  0  0  0  0
  9 10  1  0  0  0  0
  9 11  1  0  0  0  0
  9 20  1  0  0  0  0
 11 12  1  0  0  0  0
 11 13  1  0  0  0  0
 11 14  1  0  0  0  0
 14 15  1  0  0  0  0
 14 16  1  0  0  0  0
 14 17  1  0  0  0  0
 17 18  1  0  0  0  0
 17 19  2  0  0  0  0
 20 21  2  0  0  0  0
 20 22  1  0  0  0  0
 22 23  1  0  0  0  0
 22 24  1  0  0  0  0
 24 25  1  0  0  0  0
 24 26  1  0  0  0  0
 24 27  1  0  0  0  0
M  CHG  1  18  -1
M  END
$$$$

  -OEChem-01062216073D

 27 26  0     1  0  0  0  0  0999 V2000
   -3.3589   -2.7989    1.1342 H   0  0  0  0  0  0  0  0  0  0  0  0
   -3.2315   -1.8306    0.6423 C   0  0  0  0  0  0  0  0  0  0  0  0
   -3.9057   -1.1069    1.1073 H   0  0  0  0  0  0  0  0  0  0  0  0
   -3.4947   -1.9347   -0.4136 H   0  0  0  0  0  0  0  0  0  0  0  0
   -1.7950   -1.3574    0.7731 C   0  0  0  0  0  0  0  0  0  0  0  0
   -0.9782   -2.0553    1.3575 O   0  0  0  0  0  0  0  0  0  0  0  0
   -1.4220   -0.1674    0.1860 N   0  0  0  0  0  0  0  0  0  0  0  0
   -2.1433    0.3303   -0.3323 H   0  0  0  0  0  0  0  0  0  0  0  0
   -0.1025    0.4906    0.2522 C   0  0  1  0  0  0  0  0  0  0  0  0
    0.6567   -0.1902   -0.1447 H   0  0  0  0  0  0  0  0  0  0  0  0
   -0.1920    1.7059   -0.6924 C   0  0  0  0  0  0  0  0  0  0  0  0
   -1.0378    2.3416   -0.4082 H   0  0  0  0  0  0  0  0  0  0  0  0
    0.7184    2.3091   -0.6033 H   0  0  0  0  0  0  0  0  0  0  0  0
   -0.3330    1.2606   -2.1609 C   0  0  0  0  0  0  0  0  0  0  0  0
    0.5351    0.6603   -2.4497 H   0  0  0  0  0  0  0  0  0  0  0  0
   -1.2228    0.6386   -2.2905 H   0  0  0  0  0  0  0  0  0  0  0  0
   -0.4481    2.4631   -3.0944 C   0  0  0  0  0  0  0  0  0  0  0  0
   -1.5865    2.9811   -3.2155 O   0  5  0  0  0  0  0  0  0  0  0  0
    0.5837    2.8443   -3.6991 O   0  0  0  0  0  0  0  0  0  0  0  0
    0.3725    0.8660    1.6847 C   0  0  0  0  0  0  0  0  0  0  0  0
    0.6085    2.0237    2.0105 O   0  0  0  0  0  0  0  0  0  0  0  0
    0.5397   -0.1113    2.6467 N   0  0  0  0  0  0  0  0  0  0  0  0
    0.2038   -1.0431    2.3904 H   0  0  0  0  0  0  0  0  0  0  0  0
    0.8665    0.1626    4.0380 C   0  0  0  0  0  0  0  0  0  0  0  0
    0.0774    0.7602    4.5055 H   0  0  0  0  0  0  0  0  0  0  0  0
    0.9663   -0.7760    4.5908 H   0  0  0  0  0  0  0  0  0  0  0  0
    1.8137    0.7070    4.1090 H   0  0  0  0  0  0  0  0  0  0  0  0
  1  2  1  0  0  0  0
  2  3  1  0  0  0  0
  2  4  1  0  0  0  0
  2  5  1  0  0  0  0
  5  6  2  0  0  0  0
  5  7  1  0  0  0  0
  7  8  1  0  0  0  0
  7  9  1  0  0  0  0
  9 10  1  0  0  0  0
  9 11  1  0  0  0  0
  9 20  1  0  0  0  0
 11 12  1  0  0  0  0
 11 13  1  0  0  0  0
 11 14  1  0  0  0  0
 14 15  1  0  0  0  0
 14 16  1  0  0  0  0
 14 17  1  0  0  0  0
 17 18  1  0  0  0  0
 17 19  2  0  0  0  0
 20 21  2  0  0  0  0
 20 22  1  0  0  0  0
 22 23  1  0  0  0  0
 22 24  1  0  0  0  0
 24 25  1  0  0  0  0
 24 26  1  0  0  0  0
 24 27  1  0  0  0  0
M  CHG  1  18  -1
M  END
$$$$

  -OEChem-01062216073D

 27 26  0     1  0  0  0  0  0999 V2000
   -3.2822   -2.7942    1.2338 H   0  0  0  0  0  0  0  0  0  0  0  0
   -3.1847   -1.8313    0.7249 C   0  0  0  0  0  0  0  0  0  0  0  0
   -3.8509   -1.1096    1.2043 H   0  0  0  0  0  0  0  0  0  0  0  0
   -3.4840   -1.9523   -0.3194 H   0  0  0  0  0  0  0  0  0  0  0  0
   -1.7507   -1.3388    0.7982 C   0  0  0  0  0  0  0  0  0  0  0  0
   -0.9016   -2.0130    1.3662 O   0  0  0  0  0  0  0  0  0  0  0  0
   -1.4114   -0.1529    0.1833 N   0  0  0  0  0  0  0  0  0  0  0  0
   -2.1525    0.3463   -0.3042 H   0  0  0  0  0  0  0  0  0  0  0  0
   -0.0941    0.5047    0.2297 C   0  0  1  0  0  0  0  0  0  0  0  0
    0.6647   -0.1763   -0.1675 H   0  0  0  0  0  0  0  0  0  0  0  0
   -0.1786    1.7199   -0.7131 C   0  0  0  0  0  0  0  0  0  0  0  0
   -1.0201    2.3603   -0.4259 H   0  0  0  0  0  0  0  0  0  0  0  0
    0.7356    2.3172   -0.6238 H   0  0  0  0  0  0  0  0  0  0  0  0
   -0.3318    1.2755   -2.1803 C   0  0  0  0  0  0  0  0  0  0  0  0
    0.5306    0.6696   -2.4737 H   0  0  0  0  0  0  0  0  0  0  0  0
   -1.2267    0.6593   -2.3033 H   0  0  0  0  0  0  0  0  0  0  0  0
   -0.4419    2.4778   -3.1146 C   0  0  0  0  0  0  0  0  0  0  0  0
   -1.5834    2.9816   -3.2643 O   0  5  0  0  0  0  0  0  0  0  0  0
    0.6014    2.8759   -3.6885 O   0  0  0  0  0  0  0  0  0  0  0  0
    0.3670    0.8826    1.6621 C   0  0  0  0  0  0  0  0  0  0  0  0
    0.3627    2.0394    2.0674 O   0  0  0  0  0  0  0  0  0  0  0  0
    0.8187   -0.1066    2.5143 N   0  0  0  0  0  0  0  0  0  0  0  0
    0.5532   -1.0548    2.2364 H   0  0  0  0  0  0  0  0  0  0  0  0
    1.1535    0.1355    3.9098 C   0  0  0  0  0  0  0  0  0  0  0  0
    0.2776    0.5000    4.4560 H   0  0  0  0  0  0  0  0  0  0  0  0
    1.4961   -0.7915    4.3788 H   0  0  0  0  0  0  0  0  0  0  0  0
    1.9546    0.8776    3.9879 H   0  0  0  0  0  0  0  0  0  0  0  0
  1  2  1  0  0  0  0
  2  3  1  0  0  0  0
  2  4  1  0  0  0  0
  2  5  1  0  0  0  0
  5  6  2  0  0  0  0
  5  7  1  0  0  0  0
  7  8  1  0  0  0  0
  7  9  1  0  0  0  0
  9 10  1  0  0  0  0
  9 11  1  0  0  0  0
  9 20  1  0  0  0  0
 11 12  1  0  0  0  0
 11 13  1  0  0  0  0
 11 14  1  0  0  0  0
 14 15  1  0  0  0  0
 14 16  1  0  0  0  0
 14 17  1  0  0  0  0
 17 18  1  0  0  0  0
 17 19  2  0  0  0  0
 20 21  2  0  0  0  0
 20 22  1  0  0  0  0
 22 23  1  0  0  0  0
 22 24  1  0  0  0  0
 24 25  1  0  0  0  0
 24 26  1  0  0  0  0
 24 27  1  0  0  0  0
M  CHG  1  18  -1
M  END
$$$$

  -OEChem-01062216073D

 27 26  0     1  0  0  0  0  0999 V2000
   -3.1984   -2.7993    1.3281 H   0  0  0  0  0  0  0  0  0  0  0  0
   -3.1393   -1.8386    0.8091 C   0  0  0  0  0  0  0  0  0  0  0  0
   -3.7936   -1.1238    1.3147 H   0  0  0  0  0  0  0  0  0  0  0  0
   -3.4847   -1.9717   -0.2194 H   0  0  0  0  0  0  0  0  0  0  0  0
   -1.7111   -1.3242    0.8129 C   0  0  0  0  0  0  0  0  0  0  0  0
   -0.8255   -1.9717    1.3576 O   0  0  0  0  0  0  0  0  0  0  0  0
   -1.4103   -0.1439    0.1685 N   0  0  0  0  0  0  0  0  0  0  0  0
   -2.1736    0.3632   -0.2738 H   0  0  0  0  0  0  0  0  0  0  0  0
   -0.0953    0.5130    0.2003 C   0  0  1  0  0  0  0  0  0  0  0  0
    0.6636   -0.1688   -0.1957 H   0  0  0  0  0  0  0  0  0  0  0  0
   -0.1674    1.7323   -0.7358 C   0  0  0  0  0  0  0  0  0  0  0  0
   -1.0030    2.3791   -0.4463 H   0  0  0  0  0  0  0  0  0  0  0  0
    0.7526    2.3197   -0.6416 H   0  0  0  0  0  0  0  0  0  0  0  0
   -0.3280    1.2957   -2.2034 C   0  0  0  0  0  0  0  0  0  0  0  0
    0.5268    0.6815   -2.5019 H   0  0  0  0  0  0  0  0  0  0  0  0
   -1.2298    0.6892   -2.3251 H   0  0  0  0  0  0  0  0  0  0  0  0
   -0.4254    2.5038   -3.1319 C   0  0  0  0  0  0  0  0  0  0  0  0
   -1.5739    2.9575   -3.3640 O   0  5  0  0  0  0  0  0  0  0  0  0
    0.6402    2.9631   -3.6115 O   0  0  0  0  0  0  0  0  0  0  0  0
    0.3442    0.8942    1.6351 C   0  0  0  0  0  0  0  0  0  0  0  0
    0.0902    1.9882    2.1269 O   0  0  0  0  0  0  0  0  0  0  0  0
    1.0675   -0.0201    2.3769 N   0  0  0  0  0  0  0  0  0  0  0  0
    0.9404   -0.9856    2.0696 H   0  0  0  0  0  0  0  0  0  0  0  0
    1.4177    0.2065    3.7712 C   0  0  0  0  0  0  0  0  0  0  0  0
    0.5142    0.3028    4.3818 H   0  0  0  0  0  0  0  0  0  0  0  0
    2.0075   -0.6331    4.1502 H   0  0  0  0  0  0  0  0  0  0  0  0
    2.0135    1.1194    3.8731 H   0  0  0  0  0  0  0  0  0  0  0  0
  1  2  1  0  0  0  0
  2  3  1  0  0  0  0
  2  4  1  0  0  0  0
  2  5  1  0  0  0  0
  5  6  2  0  0  0  0
  5  7  1  0  0  0  0
  7  8  1  0  0  0  0
  7  9  1  0  0  0  0
  9 10  1  0  0  0  0
  9 11  1  0  0  0  0
  9 20  1  0  0  0  0
 11 12  1  0  0  0  0
 11 13  1  0  0  0  0
 11 14  1  0  0  0  0
 14 15  1  0  0  0  0
 14 16  1  0  0  0  0
 14 17  1  0  0  0  0
 17 18  1  0  0  0  0
 17 19  2  0  0  0  0
 20 21  2  0  0  0  0
 20 22  1  0  0  0  0
 22 23  1  0  0  0  0
 22 24  1  0  0  0  0
 24 25  1  0  0  0  0
 24 26  1  0  0  0  0
 24 27  1  0  0  0  0
M  CHG  1  18  -1
M  END
$$$$

  -OEChem-01062216073D

 27 26  0     1  0  0  0  0  0999 V2000
   -3.1499   -2.8024    1.3922 H   0  0  0  0  0  0  0  0  0  0  0  0
   -3.1190   -1.8335    0.8865 C   0  0  0  0  0  0  0  0  0  0  0  0
   -3.7349   -1.1238    1.4447 H   0  0  0  0  0  0  0  0  0  0  0  0
   -3.5303   -1.9475   -0.1197 H   0  0  0  0  0  0  0  0  0  0  0  0
   -1.6905   -1.3263    0.8075 C   0  0  0  0  0  0  0  0  0  0  0  0
   -0.7783   -1.9731    1.3071 O   0  0  0  0  0  0  0  0  0  0  0  0
   -1.4186   -0.1497    0.1439 N   0  0  0  0  0  0  0  0  0  0  0  0
   -2.2051    0.3842   -0.2182 H   0  0  0  0  0  0  0  0  0  0  0  0
   -0.1074    0.5111    0.1707 C   0  0  1  0  0  0  0  0  0  0  0  0
    0.6509   -0.1727   -0.2219 H   0  0  0  0  0  0  0  0  0  0  0  0
   -0.1631    1.7352   -0.7581 C   0  0  0  0  0  0  0  0  0  0  0  0
   -0.9955    2.3870   -0.4700 H   0  0  0  0  0  0  0  0  0  0  0  0
    0.7613    2.3142   -0.6539 H   0  0  0  0  0  0  0  0  0  0  0  0
   -0.3194    1.3099   -2.2291 C   0  0  0  0  0  0  0  0  0  0  0  0
    0.5308    0.6906   -2.5295 H   0  0  0  0  0  0  0  0  0  0  0  0
   -1.2260    0.7118   -2.3576 H   0  0  0  0  0  0  0  0  0  0  0  0
   -0.3996    2.5262   -3.1486 C   0  0  0  0  0  0  0  0  0  0  0  0
   -1.5424    2.9003   -3.5124 O   0  5  0  0  0  0  0  0  0  0  0  0
    0.6777    3.0801   -3.4796 O   0  0  0  0  0  0  0  0  0  0  0  0
    0.3183    0.9004    1.6056 C   0  0  0  0  0  0  0  0  0  0  0  0
   -0.1883    1.8523    2.1900 O   0  0  0  0  0  0  0  0  0  0  0  0
    1.2881    0.1542    2.2486 N   0  0  0  0  0  0  0  0  0  0  0  0
    1.4261   -0.7773    1.8630 H   0  0  0  0  0  0  0  0  0  0  0  0
    1.6465    0.3733    3.6423 C   0  0  0  0  0  0  0  0  0  0  0  0
    0.7851    0.1883    4.2921 H   0  0  0  0  0  0  0  0  0  0  0  0
    2.4550   -0.3042    3.9323 H   0  0  0  0  0  0  0  0  0  0  0  0
    1.9899    1.4021    3.7927 H   0  0  0  0  0  0  0  0  0  0  0  0
  1  2  1  0  0  0  0
  2  3  1  0  0  0  0
  2  4  1  0  0  0  0
  2  5  1  0  0  0  0
  5  6  2  0  0  0  0
  5  7  1  0  0  0  0
  7  8  1  0  0  0  0
  7  9  1  0  0  0  0
  9 10  1  0  0  0  0
  9 11  1  0  0  0  0
  9 20  1  0  0  0  0
 11 12  1  0  0  0  0
 11 13  1  0  0  0  0
 11 14  1  0  0  0  0
 14 15  1  0  0  0  0
 14 16  1  0  0  0  0
 14 17  1  0  0  0  0
 17 18  1  0  0  0  0
 17 19  2  0  0  0  0
 20 21  2  0  0  0  0
 20 22  1  0  0  0  0
 22 23  1  0  0  0  0
 22 24  1  0  0  0  0
 24 25  1  0  0  0  0
 24 26  1  0  0  0  0
 24 27  1  0  0  0  0
M  CHG  1  18  -1
M  END
$$$$

  -OEChem-01062216073D

 27 26  0     1  0  0  0  0  0999 V2000
   -3.1489   -2.8084    1.4046 H   0  0  0  0  0  0  0  0  0  0  0  0
   -3.1251   -1.8278    0.9214 C   0  0  0  0  0  0  0  0  0  0  0  0
   -3.7071   -1.1236    1.5215 H   0  0  0  0  0  0  0  0  0  0  0  0
   -3.5784   -1.9115   -0.0695 H   0  0  0  0  0  0  0  0  0  0  0  0
   -1.6939   -1.3375    0.7964 C   0  0  0  0  0  0  0  0  0  0  0  0
   -0.7744   -1.9969    1.2638 O   0  0  0  0  0  0  0  0  0  0  0  0
   -1.4313   -0.1638    0.1242 N   0  0  0  0  0  0  0  0  0  0  0  0
   -2.2284    0.3907   -0.1770 H   0  0  0  0  0  0  0  0  0  0  0  0
   -0.1232    0.5028    0.1569 C   0  0  1  0  0  0  0  0  0  0  0  0
    0.6358   -0.1838   -0.2291 H   0  0  0  0  0  0  0  0  0  0  0  0
   -0.1679    1.7306   -0.7657 C   0  0  0  0  0  0  0  0  0  0  0  0
   -1.0011    2.3823   -0.4803 H   0  0  0  0  0  0  0  0  0  0  0  0
    0.7562    2.3073   -0.6496 H   0  0  0  0  0  0  0  0  0  0  0  0
   -0.3127    1.3159   -2.2406 C   0  0  0  0  0  0  0  0  0  0  0  0
    0.5381    0.6969   -2.5392 H   0  0  0  0  0  0  0  0  0  0  0  0
   -1.2200    0.7205   -2.3778 H   0  0  0  0  0  0  0  0  0  0  0  0
   -0.3816    2.5376   -3.1548 C   0  0  0  0  0  0  0  0  0  0  0  0
   -1.4933    2.8163   -3.6690 O   0  5  0  0  0  0  0  0  0  0  0  0
    0.6748    3.1950   -3.3267 O   0  0  0  0  0  0  0  0  0  0  0  0
    0.2948    0.9048    1.5898 C   0  0  0  0  0  0  0  0  0  0  0  0
   -0.4015    1.6566    2.2646 O   0  0  0  0  0  0  0  0  0  0  0  0
    1.4576    0.3942    2.1371 N   0  0  0  0  0  0  0  0  0  0  0  0
    1.8804   -0.3817    1.6371 H   0  0  0  0  0  0  0  0  0  0  0  0
    1.8451    0.6207    3.5217 C   0  0  0  0  0  0  0  0  0  0  0  0
    1.0923    0.2097    4.2020 H   0  0  0  0  0  0  0  0  0  0  0  0
    2.8032    0.1347    3.7277 H   0  0  0  0  0  0  0  0  0  0  0  0
    1.9533    1.6923    3.7181 H   0  0  0  0  0  0  0  0  0  0  0  0
  1  2  1  0  0  0  0
  2  3  1  0  0  0  0
  2  4  1  0  0  0  0
  2  5  1  0  0  0  0
  5  6  2  0  0  0  0
  5  7  1  0  0  0  0
  7  8  1  0  0  0  0
  7  9  1  0  0  0  0
  9 10  1  0  0  0  0
  9 11  1  0  0  0  0
  9 20  1  0  0  0  0
 11 12  1  0  0  0  0
 11 13  1  0  0  0  0
 11 14  1  0  0  0  0
 14 15  1  0  0  0  0
 14 16  1  0  0  0  0
 14 17  1  0  0  0  0
 17 18  1  0  0  0  0
 17 19  2  0  0  0  0
 20 21  2  0  0  0  0
 20 22  1  0  0  0  0
 22 23  1  0  0  0  0
 22 24  1  0  0  0  0
 24 25  1  0  0  0  0
 24 26  1  0  0  0  0
 24 27  1  0  0  0  0
M  CHG  1  18  -1
M  END
$$$$

  -OEChem-01062216073D

 27 26  0     1  0  0  0  0  0999 V2000
   -3.1717   -2.7956    1.4411 H   0  0  0  0  0  0  0  0  0  0  0  0
   -3.1406   -1.8331    0.9234 C   0  0  0  0  0  0  0  0  0  0  0  0
   -3.7138   -1.1026    1.5001 H   0  0  0  0  0  0  0  0  0  0  0  0
   -3.5980   -1.9477   -0.0626 H   0  0  0  0  0  0  0  0  0  0  0  0
   -1.7058   -1.3599    0.7771 C   0  0  0  0  0  0  0  0  0  0  0  0
   -0.7871   -2.0350    1.2222 O   0  0  0  0  0  0  0  0  0  0  0  0
   -1.4430   -0.1871    0.1036 N   0  0  0  0  0  0  0  0  0  0  0  0
   -2.2438    0.3797   -0.1618 H   0  0  0  0  0  0  0  0  0  0  0  0
   -0.1384    0.4858    0.1552 C   0  0  1  0  0  0  0  0  0  0  0  0
    0.6264   -0.2009   -0.2191 H   0  0  0  0  0  0  0  0  0  0  0  0
   -0.1754    1.7181   -0.7606 C   0  0  0  0  0  0  0  0  0  0  0  0
   -1.0146    2.3643   -0.4805 H   0  0  0  0  0  0  0  0  0  0  0  0
    0.7450    2.2978   -0.6294 H   0  0  0  0  0  0  0  0  0  0  0  0
   -0.2996    1.3160   -2.2400 C   0  0  0  0  0  0  0  0  0  0  0  0
    0.5571    0.7025   -2.5333 H   0  0  0  0  0  0  0  0  0  0  0  0
   -1.2030    0.7189   -2.3949 H   0  0  0  0  0  0  0  0  0  0  0  0
   -0.3600    2.5492   -3.1391 C   0  0  0  0  0  0  0  0  0  0  0  0
   -1.4718    2.8510   -3.6392 O   0  5  0  0  0  0  0  0  0  0  0  0
    0.7028    3.1977   -3.3052 O   0  0  0  0  0  0  0  0  0  0  0  0
    0.2647    0.8983    1.5893 C   0  0  0  0  0  0  0  0  0  0  0  0
   -0.5431    1.4302    2.3452 O   0  0  0  0  0  0  0  0  0  0  0  0
    1.5498    0.6613    2.0416 N   0  0  0  0  0  0  0  0  0  0  0  0
    2.1636    0.1361    1.4277 H   0  0  0  0  0  0  0  0  0  0  0  0
    1.9834    0.9396    3.4027 C   0  0  0  0  0  0  0  0  0  0  0  0
    1.4115    0.3374    4.1160 H   0  0  0  0  0  0  0  0  0  0  0  0
    3.0443    0.6980    3.5155 H   0  0  0  0  0  0  0  0  0  0  0  0
    1.8440    1.9994    3.6400 H   0  0  0  0  0  0  0  0  0  0  0  0
  1  2  1  0  0  0  0
  2  3  1  0  0  0  0
  2  4  1  0  0  0  0
  2  5  1  0  0  0  0
  5  6  2  0  0  0  0
  5  7  1  0  0  0  0
  7  8  1  0  0  0  0
  7  9  1  0  0  0  0
  9 10  1  0  0  0  0
  9 11  1  0  0  0  0
  9 20  1  0  0  0  0
 11 12  1  0  0  0  0
 11 13  1  0  0  0  0
 11 14  1  0  0  0  0
 14 15  1  0  0  0  0
 14 16  1  0  0  0  0
 14 17  1  0  0  0  0
 17 18  1  0  0  0  0
 17 19  2  0  0  0  0
 20 21  2  0  0  0  0
 20 22  1  0  0  0  0
 22 23  1  0  0  0  0
 22 24  1  0  0  0  0
 24 25  1  0  0  0  0
 24 26  1  0  0  0  0
 24 27  1  0  0  0  0
M  CHG  1  18  -1
M  END
$$$$

  -OEChem-01062216073D

 27 26  0     1  0  0  0  0  0999 V2000
   -3.0905   -2.9352    1.3319 H   0  0  0  0  0  0  0  0  0  0  0  0
   -3.0831   -1.9605    0.8367 C   0  0  0  0  0  0  0  0  0  0  0  0
   -3.6697   -1.2573    1.4333 H   0  0  0  0  0  0  0  0  0  0  0  0
   -3.5422   -2.0617   -0.1498 H   0  0  0  0  0  0  0  0  0  0  0  0
   -1.6596   -1.4520    0.6968 C   0  0  0  0  0  0  0  0  0  0  0  0
   -0.7262   -2.1161    1.1274 O   0  0  0  0  0  0  0  0  0  0  0  0
   -1.4234   -0.2614    0.0436 N   0  0  0  0  0  0  0  0  0  0  0  0
   -2.2410    0.2879   -0.2057 H   0  0  0  0  0  0  0  0  0  0  0  0
   -0.1515    0.4646    0.1670 C   0  0  1  0  0  0  0  0  0  0  0  0
    0.6566   -0.1906   -0.1723 H   0  0  0  0  0  0  0  0  0  0  0  0
   -0.1875    1.7048   -0.7377 C   0  0  0  0  0  0  0  0  0  0  0  0
   -1.0661    2.3133   -0.4960 H   0  0  0  0  0  0  0  0  0  0  0  0
    0.7002    2.3198   -0.5540 H   0  0  0  0  0  0  0  0  0  0  0  0
   -0.2174    1.3201   -2.2253 C   0  0  0  0  0  0  0  0  0  0  0  0
    0.6776    0.7445   -2.4794 H   0  0  0  0  0  0  0  0  0  0  0  0
   -1.0882    0.6938   -2.4397 H   0  0  0  0  0  0  0  0  0  0  0  0
   -0.2770    2.5699   -3.0999 C   0  0  0  0  0  0  0  0  0  0  0  0
    0.8064    3.1578   -3.3412 O   0  5  0  0  0  0  0  0  0  0  0  0
   -1.4055    2.9486   -3.4999 O   0  0  0  0  0  0  0  0  0  0  0  0
    0.1780    0.8855    1.6179 C   0  0  0  0  0  0  0  0  0  0  0  0
   -0.7099    1.1603    2.4202 O   0  0  0  0  0  0  0  0  0  0  0  0
    1.4976    0.9902    2.0183 N   0  0  0  0  0  0  0  0  0  0  0  0
    2.2103    0.8011    1.3209 H   0  0  0  0  0  0  0  0  0  0  0  0
    1.9038    1.4170    3.3490 C   0  0  0  0  0  0  0  0  0  0  0  0
    1.4902    0.7459    4.1087 H   0  0  0  0  0  0  0  0  0  0  0  0
    2.9946    1.4016    3.4313 H   0  0  0  0  0  0  0  0  0  0  0  0
    1.5551    2.4357    3.5469 H   0  0  0  0  0  0  0  0  0  0  0  0
  1  2  1  0  0  0  0
  2  3  1  0  0  0  0
  2  4  1  0  0  0  0
  2  5  1  0  0  0  0
  5  6  2  0  0  0  0
  5  7  1  0  0  0  0
  7  8  1  0  0  0  0
  7  9  1  0  0  0  0
  9 10  1  0  0  0  0
  9 11  1  0  0  0  0
  9 20  1  0  0  0  0
 11 12  1  0  0  0  0
 11 13  1  0  0  0  0
 11 14  1  0  0  0  0
 14 15  1  0  0  0  0
 14 16  1  0  0  0  0
 14 17  1  0  0  0  0
 17 18  1  0  0  0  0
 17 19  2  0  0  0  0
 20 21  2  0  0  0  0
 20 22  1  0  0  0  0
 22 23  1  0  0  0  0
 22 24  1  0  0  0  0
 24 25  1  0  0  0  0
 24 26  1  0  0  0  0
 24 27  1  0  0  0  0
M  CHG  1  18  -1
M  END
$$$$

  -OEChem-01062216073D

 27 26  0     1  0  0  0  0  0999 V2000
   -3.1306   -2.9156    1.3494 H   0  0  0  0  0  0  0  0  0  0  0  0
   -3.1039   -1.9656    0.8087 C   0  0  0  0  0  0  0  0  0  0  0  0
   -3.7069   -1.2336    1.3522 H   0  0  0  0  0  0  0  0  0  0  0  0
   -3.5309   -2.1124   -0.1864 H   0  0  0  0  0  0  0  0  0  0  0  0
   -1.6746   -1.4677    0.6903 C   0  0  0  0  0  0  0  0  0  0  0  0
   -0.7502   -2.1538    1.1049 O   0  0  0  0  0  0  0  0  0  0  0  0
   -1.4231   -0.2741    0.0478 N   0  0  0  0  0  0  0  0  0  0  0  0
   -2.2347    0.2817   -0.2058 H   0  0  0  0  0  0  0  0  0  0  0  0
   -0.1464    0.4419    0.1845 C   0  0  1  0  0  0  0  0  0  0  0  0
    0.6595   -0.2151   -0.1566 H   0  0  0  0  0  0  0  0  0  0  0  0
   -0.1839    1.6874   -0.7149 C   0  0  0  0  0  0  0  0  0  0  0  0
   -1.0626    2.2936   -0.4683 H   0  0  0  0  0  0  0  0  0  0  0  0
    0.7026    2.3040   -0.5314 H   0  0  0  0  0  0  0  0  0  0  0  0
   -0.2144    1.3154   -2.2052 C   0  0  0  0  0  0  0  0  0  0  0  0
    0.6811    0.7433   -2.4649 H   0  0  0  0  0  0  0  0  0  0  0  0
   -1.0848    0.6908   -2.4258 H   0  0  0  0  0  0  0  0  0  0  0  0
   -0.2753    2.5757   -3.0643 C   0  0  0  0  0  0  0  0  0  0  0  0
    0.8030    3.1863   -3.2695 O   0  5  0  0  0  0  0  0  0  0  0  0
   -1.4012    2.9444   -3.4803 O   0  0  0  0  0  0  0  0  0  0  0  0
    0.1933    0.8594    1.6357 C   0  0  0  0  0  0  0  0  0  0  0  0
   -0.6706    0.9362    2.5049 O   0  0  0  0  0  0  0  0  0  0  0  0
    1.4839    1.2511    1.9442 N   0  0  0  0  0  0  0  0  0  0  0  0
    2.1439    1.3021    1.1740 H   0  0  0  0  0  0  0  0  0  0  0  0
    1.8710    1.7924    3.2387 C   0  0  0  0  0  0  0  0  0  0  0  0
    1.6290    1.0846    4.0382 H   0  0  0  0  0  0  0  0  0  0  0  0
    2.9487    1.9799    3.2595 H   0  0  0  0  0  0  0  0  0  0  0  0
    1.3499    2.7361    3.4298 H   0  0  0  0  0  0  0  0  0  0  0  0
  1  2  1  0  0  0  0
  2  3  1  0  0  0  0
  2  4  1  0  0  0  0
  2  5  1  0  0  0  0
  5  6  2  0  0  0  0
  5  7  1  0  0  0  0
  7  8  1  0  0  0  0
  7  9  1  0  0  0  0
  9 10  1  0  0  0  0
  9 11  1  0  0  0  0
  9 20  1  0  0  0  0
 11 12  1  0  0  0  0
 11 13  1  0  0  0  0
 11 14  1  0  0  0  0
 14 15  1  0  0  0  0
 14 16  1  0  0  0  0
 14 17  1  0  0  0  0
 17 18  1  0  0  0  0
 17 19  2  0  0  0  0
 20 21  2  0  0  0  0
 20 22  1  0  0  0  0
 22 23  1  0  0  0  0
 22 24  1  0  0  0  0
 24 25  1  0  0  0  0
 24 26  1  0  0  0  0
 24 27  1  0  0  0  0
M  CHG  1  18  -1
M  END
$$$$

  -OEChem-01062216073D

 27 26  0     1  0  0  0  0  0999 V2000
   -3.1621   -2.9370    1.2114 H   0  0  0  0  0  0  0  0  0  0  0  0
   -3.1195   -1.9181    0.8166 C   0  0  0  0  0  0  0  0  0  0  0  0
   -3.5912   -1.2422    1.5342 H   0  0  0  0  0  0  0  0  0  0  0  0
   -3.6710   -1.8808   -0.1261 H   0  0  0  0  0  0  0  0  0  0  0  0
   -1.6767   -1.5019    0.5923 C   0  0  0  0  0  0  0  0  0  0  0  0
   -0.7700   -2.2918    0.8183 O   0  0  0  0  0  0  0  0  0  0  0  0
   -1.4017   -0.2895   -0.0068 N   0  0  0  0  0  0  0  0  0  0  0  0
   -2.2105    0.3013   -0.1776 H   0  0  0  0  0  0  0  0  0  0  0  0
   -0.1241    0.4204    0.1802 C   0  0  1  0  0  0  0  0  0  0  0  0
    0.6444   -0.1039   -0.3952 H   0  0  0  0  0  0  0  0  0  0  0  0
   -0.2972    1.8384   -0.3944 C   0  0  0  0  0  0  0  0  0  0  0  0
   -1.1592    2.3236    0.0767 H   0  0  0  0  0  0  0  0  0  0  0  0
    0.5838    2.4477   -0.1686 H   0  0  0  0  0  0  0  0  0  0  0  0
   -0.4802    1.8213   -1.9201 C   0  0  0  0  0  0  0  0  0  0  0  0
    0.3986    1.3772   -2.3968 H   0  0  0  0  0  0  0  0  0  0  0  0
   -1.3500    1.2183   -2.1967 H   0  0  0  0  0  0  0  0  0  0  0  0
   -0.6716    3.2427   -2.4422 C   0  0  0  0  0  0  0  0  0  0  0  0
    0.3563    3.9541   -2.5648 O   0  5  0  0  0  0  0  0  0  0  0  0
   -1.8444    3.6260   -2.6744 O   0  0  0  0  0  0  0  0  0  0  0  0
    0.4073    0.5054    1.6381 C   0  0  0  0  0  0  0  0  0  0  0  0
   -0.2896    0.2162    2.6065 O   0  0  0  0  0  0  0  0  0  0  0  0
    1.6050    1.1561    1.8814 N   0  0  0  0  0  0  0  0  0  0  0  0
    2.0719    1.5653    1.0770 H   0  0  0  0  0  0  0  0  0  0  0  0
    2.0762    1.5045    3.2144 C   0  0  0  0  0  0  0  0  0  0  0  0
    2.1453    0.6102    3.8422 H   0  0  0  0  0  0  0  0  0  0  0  0
    3.0689    1.9603    3.1542 H   0  0  0  0  0  0  0  0  0  0  0  0
    1.3935    2.2179    3.6870 H   0  0  0  0  0  0  0  0  0  0  0  0
  1  2  1  0  0  0  0
  2  3  1  0  0  0  0
  2  4  1  0  0  0  0
  2  5  1  0  0  0  0
  5  6  2  0  0  0  0
  5  7  1  0  0  0  0
  7  8  1  0  0  0  0
  7  9  1  0  0  0  0
  9 10  1  0  0  0  0
  9 11  1  0  0  0  0
  9 20  1  0  0  0  0
 11 12  1  0  0  0  0
 11 13  1  0  0  0  0
 11 14  1  0  0  0  0
 14 15  1  0  0  0  0
 14 16  1  0  0  0  0
 14 17  1  0  0  0  0
 17 18  1  0  0  0  0
 17 19  2  0  0  0  0
 20 21  2  0  0  0  0
 20 22  1  0  0  0  0
 22 23  1  0  0  0  0
 22 24  1  0  0  0  0
 24 25  1  0  0  0  0
 24 26  1  0  0  0  0
 24 27  1  0  0  0  0
M  CHG  1  18  -1
M  END
$$$$

  -OEChem-01062216073D

 27 26  0     1  0  0  0  0  0999 V2000
   -3.1689   -2.9014    1.2330 H   0  0  0  0  0  0  0  0  0  0  0  0
   -3.1142   -1.8893    0.8230 C   0  0  0  0  0  0  0  0  0  0  0  0
   -3.5716   -1.1967    1.5340 H   0  0  0  0  0  0  0  0  0  0  0  0
   -3.6706   -1.8572   -0.1170 H   0  0  0  0  0  0  0  0  0  0  0  0
   -1.6671   -1.4973    0.5842 C   0  0  0  0  0  0  0  0  0  0  0  0
   -0.7754   -2.3156    0.7618 O   0  0  0  0  0  0  0  0  0  0  0  0
   -1.3799   -0.2824   -0.0038 N   0  0  0  0  0  0  0  0  0  0  0  0
   -2.1867    0.3105   -0.1760 H   0  0  0  0  0  0  0  0  0  0  0  0
   -0.1035    0.4305    0.1889 C   0  0  1  0  0  0  0  0  0  0  0  0
    0.6689   -0.0892   -0.3858 H   0  0  0  0  0  0  0  0  0  0  0  0
   -0.3038    1.8407   -0.4048 C   0  0  0  0  0  0  0  0  0  0  0  0
   -1.1736    2.3163    0.0621 H   0  0  0  0  0  0  0  0  0  0  0  0
    0.5646    2.4722   -0.1956 H   0  0  0  0  0  0  0  0  0  0  0  0
   -0.4860    1.8071   -1.9303 C   0  0  0  0  0  0  0  0  0  0  0  0
    0.4017    1.3763   -2.4025 H   0  0  0  0  0  0  0  0  0  0  0  0
   -1.3441    1.1862   -2.2036 H   0  0  0  0  0  0  0  0  0  0  0  0
   -0.7037    3.2219   -2.4607 C   0  0  0  0  0  0  0  0  0  0  0  0
    0.3043    3.9668   -2.5434 O   0  5  0  0  0  0  0  0  0  0  0  0
   -1.8799    3.5702   -2.7273 O   0  0  0  0  0  0  0  0  0  0  0  0
    0.4386    0.5224    1.6480 C   0  0  0  0  0  0  0  0  0  0  0  0
   -0.1385    0.0118    2.6026 O   0  0  0  0  0  0  0  0  0  0  0  0
    1.4488    1.4227    1.9454 N   0  0  0  0  0  0  0  0  0  0  0  0
    1.7994    1.9846    1.1743 H   0  0  0  0  0  0  0  0  0  0  0  0
    1.8645    1.7603    3.2998 C   0  0  0  0  0  0  0  0  0  0  0  0
    2.1720    0.8601    3.8419 H   0  0  0  0  0  0  0  0  0  0  0  0
    2.7126    2.4508    3.2700 H   0  0  0  0  0  0  0  0  0  0  0  0
    1.0441    2.2398    3.8435 H   0  0  0  0  0  0  0  0  0  0  0  0
  1  2  1  0  0  0  0
  2  3  1  0  0  0  0
  2  4  1  0  0  0  0
  2  5  1  0  0  0  0
  5  6  2  0  0  0  0
  5  7  1  0  0  0  0
  7  8  1  0  0  0  0
  7  9  1  0  0  0  0
  9 10  1  0  0  0  0
  9 11  1  0  0  0  0
  9 20  1  0  0  0  0
 11 12  1  0  0  0  0
 11 13  1  0  0  0  0
 11 14  1  0  0  0  0
 14 15  1  0  0  0  0
 14 16  1  0  0  0  0
 14 17  1  0  0  0  0
 17 18  1  0  0  0  0
 17 19  2  0  0  0  0
 20 21  2  0  0  0  0
 20 22  1  0  0  0  0
 22 23  1  0  0  0  0
 22 24  1  0  0  0  0
 24 25  1  0  0  0  0
 24 26  1  0  0  0  0
 24 27  1  0  0  0  0
M  CHG  1  18  -1
M  END
$$$$

  -OEChem-01062216073D

 27 26  0     1  0  0  0  0  0999 V2000
   -3.1691   -2.8979    1.1915 H   0  0  0  0  0  0  0  0  0  0  0  0
   -3.1011   -1.8632    0.8445 C   0  0  0  0  0  0  0  0  0  0  0  0
   -3.5164   -1.2063    1.6128 H   0  0  0  0  0  0  0  0  0  0  0  0
   -3.6873   -1.7576   -0.0717 H   0  0  0  0  0  0  0  0  0  0  0  0
   -1.6526   -1.4931    0.5807 C   0  0  0  0  0  0  0  0  0  0  0  0
   -0.7765   -2.3358    0.7109 O   0  0  0  0  0  0  0  0  0  0  0  0
   -1.3594   -0.2775   -0.0026 N   0  0  0  0  0  0  0  0  0  0  0  0
   -2.1681    0.3102   -0.1833 H   0  0  0  0  0  0  0  0  0  0  0  0
   -0.0915    0.4516    0.1953 C   0  0  1  0  0  0  0  0  0  0  0  0
    0.6915   -0.0636   -0.3693 H   0  0  0  0  0  0  0  0  0  0  0  0
   -0.3141    1.8479   -0.4261 C   0  0  0  0  0  0  0  0  0  0  0  0
   -1.1926    2.3186    0.0292 H   0  0  0  0  0  0  0  0  0  0  0  0
    0.5450    2.4958   -0.2316 H   0  0  0  0  0  0  0  0  0  0  0  0
   -0.4839    1.7903   -1.9517 C   0  0  0  0  0  0  0  0  0  0  0  0
    0.4153    1.3715   -2.4127 H   0  0  0  0  0  0  0  0  0  0  0  0
   -1.3283    1.1509   -2.2249 H   0  0  0  0  0  0  0  0  0  0  0  0
   -0.7239    3.1963   -2.4953 C   0  0  0  0  0  0  0  0  0  0  0  0
    0.2764    3.9454   -2.6201 O   0  5  0  0  0  0  0  0  0  0  0  0
   -1.9116    3.5401   -2.7117 O   0  0  0  0  0  0  0  0  0  0  0  0
    0.4458    0.5603    1.6593 C   0  0  0  0  0  0  0  0  0  0  0  0
    0.0710   -0.1731    2.5665 O   0  0  0  0  0  0  0  0  0  0  0  0
    1.2029    1.6561    2.0434 N   0  0  0  0  0  0  0  0  0  0  0  0
    1.4091    2.3450    1.3250 H   0  0  0  0  0  0  0  0  0  0  0  0
    1.5869    1.9450    3.4185 C   0  0  0  0  0  0  0  0  0  0  0  0
    2.1457    1.1059    3.8452 H   0  0  0  0  0  0  0  0  0  0  0  0
    2.2230    2.8346    3.4507 H   0  0  0  0  0  0  0  0  0  0  0  0
    0.6993    2.1298    4.0320 H   0  0  0  0  0  0  0  0  0  0  0  0
  1  2  1  0  0  0  0
  2  3  1  0  0  0  0
  2  4  1  0  0  0  0
  2  5  1  0  0  0  0
  5  6  2  0  0  0  0
  5  7  1  0  0  0  0
  7  8  1  0  0  0  0
  7  9  1  0  0  0  0
  9 10  1  0  0  0  0
  9 11  1  0  0  0  0
  9 20  1  0  0  0  0
 11 12  1  0  0  0  0
 11 13  1  0  0  0  0
 11 14  1  0  0  0  0
 14 15  1  0  0  0  0
 14 16  1  0  0  0  0
 14 17  1  0  0  0  0
 17 18  1  0  0  0  0
 17 19  2  0  0  0  0
 20 21  2  0  0  0  0
 20 22  1  0  0  0  0
 22 23  1  0  0  0  0
 22 24  1  0  0  0  0
 24 25  1  0  0  0  0
 24 26  1  0  0  0  0
 24 27  1  0  0  0  0
M  CHG  1  18  -1
M  END
$$$$

  -OEChem-01062216073D

 27 26  0     1  0  0  0  0  0999 V2000
   -3.1831   -2.8831    1.1899 H   0  0  0  0  0  0  0  0  0  0  0  0
   -3.1058   -1.8520    0.8340 C   0  0  0  0  0  0  0  0  0  0  0  0
   -3.5338   -1.1869    1.5880 H   0  0  0  0  0  0  0  0  0  0  0  0
   -3.6751   -1.7548   -0.0938 H   0  0  0  0  0  0  0  0  0  0  0  0
   -1.6513   -1.4878    0.5932 C   0  0  0  0  0  0  0  0  0  0  0  0
   -0.7877   -2.3408    0.7267 O   0  0  0  0  0  0  0  0  0  0  0  0
   -1.3491   -0.2740    0.0103 N   0  0  0  0  0  0  0  0  0  0  0  0
   -2.1578    0.3002   -0.2097 H   0  0  0  0  0  0  0  0  0  0  0  0
   -0.0931    0.4757    0.2120 C   0  0  1  0  0  0  0  0  0  0  0  0
    0.7046   -0.0353   -0.3357 H   0  0  0  0  0  0  0  0  0  0  0  0
   -0.3261    1.8589   -0.4334 C   0  0  0  0  0  0  0  0  0  0  0  0
   -1.2132    2.3293    0.0058 H   0  0  0  0  0  0  0  0  0  0  0  0
    0.5298    2.5129   -0.2408 H   0  0  0  0  0  0  0  0  0  0  0  0
   -0.4773    1.7797   -1.9598 C   0  0  0  0  0  0  0  0  0  0  0  0
    0.4319    1.3660   -2.4063 H   0  0  0  0  0  0  0  0  0  0  0  0
   -1.3110    1.1275   -2.2350 H   0  0  0  0  0  0  0  0  0  0  0  0
   -0.7288    3.1770   -2.5197 C   0  0  0  0  0  0  0  0  0  0  0  0
    0.2668    3.9240   -2.6841 O   0  5  0  0  0  0  0  0  0  0  0  0
   -1.9234    3.5212   -2.6952 O   0  0  0  0  0  0  0  0  0  0  0  0
    0.4241    0.6043    1.6819 C   0  0  0  0  0  0  0  0  0  0  0  0
    0.3528   -0.3021    2.5005 O   0  0  0  0  0  0  0  0  0  0  0  0
    0.8821    1.8203    2.1659 N   0  0  0  0  0  0  0  0  0  0  0  0
    0.8925    2.6008    1.5148 H   0  0  0  0  0  0  0  0  0  0  0  0
    1.2974    2.0507    3.5432 C   0  0  0  0  0  0  0  0  0  0  0  0
    2.1119    1.3721    3.8166 H   0  0  0  0  0  0  0  0  0  0  0  0
    1.6509    3.0793    3.6613 H   0  0  0  0  0  0  0  0  0  0  0  0
    0.4579    1.8918    4.2276 H   0  0  0  0  0  0  0  0  0  0  0  0
  1  2  1  0  0  0  0
  2  3  1  0  0  0  0
  2  4  1  0  0  0  0
  2  5  1  0  0  0  0
  5  6  2  0  0  0  0
  5  7  1  0  0  0  0
  7  8  1  0  0  0  0
  7  9  1  0  0  0  0
  9 10  1  0  0  0  0
  9 11  1  0  0  0  0
  9 20  1  0  0  0  0
 11 12  1  0  0  0  0
 11 13  1  0  0  0  0
 11 14  1  0  0  0  0
 14 15  1  0  0  0  0
 14 16  1  0  0  0  0
 14 17  1  0  0  0  0
 17 18  1  0  0  0  0
 17 19  2  0  0  0  0
 20 21  2  0  0  0  0
 20 22  1  0  0  0  0
 22 23  1  0  0  0  0
 22 24  1  0  0  0  0
 24 25  1  0  0  0  0
 24 26  1  0  0  0  0
 24 27  1  0  0  0  0
M  CHG  1  18  -1
M  END
$$$$

  -OEChem-01062216073D

 27 26  0     1  0  0  0  0  0999 V2000
   -3.2572   -2.9318    0.9998 H   0  0  0  0  0  0  0  0  0  0  0  0
   -3.1477   -1.9183    0.6036 C   0  0  0  0  0  0  0  0  0  0  0  0
   -3.7450   -1.2358    1.2132 H   0  0  0  0  0  0  0  0  0  0  0  0
   -3.5205   -1.8995   -0.4236 H   0  0  0  0  0  0  0  0  0  0  0  0
   -1.6890   -1.4959    0.6348 C   0  0  0  0  0  0  0  0  0  0  0  0
   -0.8520   -2.2909    1.0228 O   0  0  0  0  0  0  0  0  0  0  0  0
   -1.3418   -0.2840    0.0729 N   0  0  0  0  0  0  0  0  0  0  0  0
   -2.1147    0.2403   -0.3264 H   0  0  0  0  0  0  0  0  0  0  0  0
   -0.1057    0.4910    0.3015 C   0  0  1  0  0  0  0  0  0  0  0  0
    0.7182   -0.0093   -0.2169 H   0  0  0  0  0  0  0  0  0  0  0  0
   -0.3376    1.8691   -0.3517 C   0  0  0  0  0  0  0  0  0  0  0  0
   -1.2424    2.3264    0.0640 H   0  0  0  0  0  0  0  0  0  0  0  0
    0.5083    2.5274   -0.1255 H   0  0  0  0  0  0  0  0  0  0  0  0
   -0.4480    1.7959   -1.8866 C   0  0  0  0  0  0  0  0  0  0  0  0
    0.4769    1.3818   -2.2985 H   0  0  0  0  0  0  0  0  0  0  0  0
   -1.2672    1.1297   -2.1705 H   0  0  0  0  0  0  0  0  0  0  0  0
   -0.7031    3.1646   -2.5305 C   0  0  0  0  0  0  0  0  0  0  0  0
   -0.8871    3.1757   -3.7711 O   0  5  0  0  0  0  0  0  0  0  0  0
   -0.7417    4.1834   -1.7932 O   0  0  0  0  0  0  0  0  0  0  0  0
    0.3607    0.6416    1.7818 C   0  0  0  0  0  0  0  0  0  0  0  0
    0.7539   -0.3036    2.4500 O   0  0  0  0  0  0  0  0  0  0  0  0
    0.4794    1.8972    2.3580 N   0  0  0  0  0  0  0  0  0  0  0  0
    0.2208    2.6933    1.7797 H   0  0  0  0  0  0  0  0  0  0  0  0
    1.0209    2.1408    3.6876 C   0  0  0  0  0  0  0  0  0  0  0  0
    2.0643    1.8139    3.7416 H   0  0  0  0  0  0  0  0  0  0  0  0
    0.9801    3.2093    3.9184 H   0  0  0  0  0  0  0  0  0  0  0  0
    0.4401    1.6017    4.4429 H   0  0  0  0  0  0  0  0  0  0  0  0
  1  2  1  0  0  0  0
  2  3  1  0  0  0  0
  2  4  1  0  0  0  0
  2  5  1  0  0  0  0
  5  6  2  0  0  0  0
  5  7  1  0  0  0  0
  7  8  1  0  0  0  0
  7  9  1  0  0  0  0
  9 10  1  0  0  0  0
  9 11  1  0  0  0  0
  9 20  1  0  0  0  0
 11 12  1  0  0  0  0
 11 13  1  0  0  0  0
 11 14  1  0  0  0  0
 14 15  1  0  0  0  0
 14 16  1  0  0  0  0
 14 17  1  0  0  0  0
 17 18  1  0  0  0  0
 17 19  2  0  0  0  0
 20 21  2  0  0  0  0
 20 22  1  0  0  0  0
 22 23  1  0  0  0  0
 22 24  1  0  0  0  0
 24 25  1  0  0  0  0
 24 26  1  0  0  0  0
 24 27  1  0  0  0  0
M  CHG  1  18  -1
M  END
$$$$

  -OEChem-01062216073D

 27 26  0     1  0  0  0  0  0999 V2000
   -3.4593   -2.8291    1.0897 H   0  0  0  0  0  0  0  0  0  0  0  0
   -3.2801   -1.8933    0.5528 C   0  0  0  0  0  0  0  0  0  0  0  0
   -3.9883   -1.1417    0.9101 H   0  0  0  0  0  0  0  0  0  0  0  0
   -3.4468   -2.0614   -0.5141 H   0  0  0  0  0  0  0  0  0  0  0  0
   -1.8569   -1.4167    0.7850 C   0  0  0  0  0  0  0  0  0  0  0  0
   -1.1044   -2.1072    1.4465 O   0  0  0  0  0  0  0  0  0  0  0  0
   -1.4551   -0.2383    0.1904 N   0  0  0  0  0  0  0  0  0  0  0  0
   -2.1530    0.2256   -0.3862 H   0  0  0  0  0  0  0  0  0  0  0  0
   -0.1637    0.4633    0.3254 C   0  0  1  0  0  0  0  0  0  0  0  0
    0.5958   -0.0854   -0.2405 H   0  0  0  0  0  0  0  0  0  0  0  0
   -0.3708    1.8437   -0.3274 C   0  0  0  0  0  0  0  0  0  0  0  0
   -1.2252    2.3507    0.1350 H   0  0  0  0  0  0  0  0  0  0  0  0
    0.5175    2.4631   -0.1606 H   0  0  0  0  0  0  0  0  0  0  0  0
   -0.5918    1.7454   -1.8451 C   0  0  0  0  0  0  0  0  0  0  0  0
    0.2788    1.2840   -2.3213 H   0  0  0  0  0  0  0  0  0  0  0  0
   -1.4639    1.1261   -2.0720 H   0  0  0  0  0  0  0  0  0  0  0  0
   -0.8159    3.1395   -2.4237 C   0  0  0  0  0  0  0  0  0  0  0  0
   -1.9665    3.6263   -2.2931 O   0  5  0  0  0  0  0  0  0  0  0  0
    0.1632    3.7338   -2.9349 O   0  0  0  0  0  0  0  0  0  0  0  0
    0.4031    0.6011    1.7658 C   0  0  0  0  0  0  0  0  0  0  0  0
    1.1396   -0.2546    2.2391 O   0  0  0  0  0  0  0  0  0  0  0  0
    0.3431    1.8163    2.4299 N   0  0  0  0  0  0  0  0  0  0  0  0
   -0.1351    2.5738    1.9506 H   0  0  0  0  0  0  0  0  0  0  0  0
    1.0628    2.1066    3.6620 C   0  0  0  0  0  0  0  0  0  0  0  0
    2.1433    2.0871    3.4871 H   0  0  0  0  0  0  0  0  0  0  0  0
    0.7881    3.0990    4.0315 H   0  0  0  0  0  0  0  0  0  0  0  0
    0.8147    1.3707    4.4337 H   0  0  0  0  0  0  0  0  0  0  0  0
  1  2  1  0  0  0  0
  2  3  1  0  0  0  0
  2  4  1  0  0  0  0
  2  5  1  0  0  0  0
  5  6  2  0  0  0  0
  5  7  1  0  0  0  0
  7  8  1  0  0  0  0
  7  9  1  0  0  0  0
  9 10  1  0  0  0  0
  9 11  1  0  0  0  0
  9 20  1  0  0  0  0
 11 12  1  0  0  0  0
 11 13  1  0  0  0  0
 11 14  1  0  0  0  0
 14 15  1  0  0  0  0
 14 16  1  0  0  0  0
 14 17  1  0  0  0  0
 17 18  1  0  0  0  0
 17 19  2  0  0  0  0
 20 21  2  0  0  0  0
 20 22  1  0  0  0  0
 22 23  1  0  0  0  0
 22 24  1  0  0  0  0
 24 25  1  0  0  0  0
 24 26  1  0  0  0  0
 24 27  1  0  0  0  0
M  CHG  1  18  -1
M  END
$$$$

  -OEChem-01062216073D

 27 26  0     1  0  0  0  0  0999 V2000
   -3.4364   -2.8435    1.1025 H   0  0  0  0  0  0  0  0  0  0  0  0
   -3.2631   -1.9174    0.5472 C   0  0  0  0  0  0  0  0  0  0  0  0
   -3.9920   -1.1707    0.8718 H   0  0  0  0  0  0  0  0  0  0  0  0
   -3.4046   -2.1135   -0.5186 H   0  0  0  0  0  0  0  0  0  0  0  0
   -1.8540   -1.4091    0.7971 C   0  0  0  0  0  0  0  0  0  0  0  0
   -1.1075   -2.0549    1.5097 O   0  0  0  0  0  0  0  0  0  0  0  0
   -1.4585   -0.2363    0.1877 N   0  0  0  0  0  0  0  0  0  0  0  0
   -2.1426    0.2037   -0.4231 H   0  0  0  0  0  0  0  0  0  0  0  0
   -0.1578    0.4491    0.3058 C   0  0  1  0  0  0  0  0  0  0  0  0
    0.5911   -0.1019   -0.2723 H   0  0  0  0  0  0  0  0  0  0  0  0
   -0.3552    1.8404   -0.3235 C   0  0  0  0  0  0  0  0  0  0  0  0
   -1.1965    2.3519    0.1570 H   0  0  0  0  0  0  0  0  0  0  0  0
    0.5433    2.4452   -0.1552 H   0  0  0  0  0  0  0  0  0  0  0  0
   -0.6041    1.7640   -1.8387 C   0  0  0  0  0  0  0  0  0  0  0  0
    0.2519    1.2953   -2.3336 H   0  0  0  0  0  0  0  0  0  0  0  0
   -1.4887    1.1597   -2.0574 H   0  0  0  0  0  0  0  0  0  0  0  0
   -0.8189    3.1659   -2.4031 C   0  0  0  0  0  0  0  0  0  0  0  0
   -1.9330    3.7000   -2.1748 O   0  5  0  0  0  0  0  0  0  0  0  0
    0.1260    3.7096   -3.0233 O   0  0  0  0  0  0  0  0  0  0  0  0
    0.4115    0.5734    1.7422 C   0  0  0  0  0  0  0  0  0  0  0  0
    1.3197   -0.1569    2.1200 O   0  0  0  0  0  0  0  0  0  0  0  0
    0.1000    1.6748    2.5221 N   0  0  0  0  0  0  0  0  0  0  0  0
   -0.5485    2.3474    2.1239 H   0  0  0  0  0  0  0  0  0  0  0  0
    0.7457    1.9788    3.7904 C   0  0  0  0  0  0  0  0  0  0  0  0
    1.8179    2.1450    3.6439 H   0  0  0  0  0  0  0  0  0  0  0  0
    0.3104    2.8834    4.2253 H   0  0  0  0  0  0  0  0  0  0  0  0
    0.6071    1.1540    4.4969 H   0  0  0  0  0  0  0  0  0  0  0  0
  1  2  1  0  0  0  0
  2  3  1  0  0  0  0
  2  4  1  0  0  0  0
  2  5  1  0  0  0  0
  5  6  2  0  0  0  0
  5  7  1  0  0  0  0
  7  8  1  0  0  0  0
  7  9  1  0  0  0  0
  9 10  1  0  0  0  0
  9 11  1  0  0  0  0
  9 20  1  0  0  0  0
 11 12  1  0  0  0  0
 11 13  1  0  0  0  0
 11 14  1  0  0  0  0
 14 15  1  0  0  0  0
 14 16  1  0  0  0  0
 14 17  1  0  0  0  0
 17 18  1  0  0  0  0
 17 19  2  0  0  0  0
 20 21  2  0  0  0  0
 20 22  1  0  0  0  0
 22 23  1  0  0  0  0
 22 24  1  0  0  0  0
 24 25  1  0  0  0  0
 24 26  1  0  0  0  0
 24 27  1  0  0  0  0
M  CHG  1  18  -1
M  END
$$$$

  -OEChem-01062216073D

 27 26  0     1  0  0  0  0  0999 V2000
   -3.4200   -2.8476    1.1244 H   0  0  0  0  0  0  0  0  0  0  0  0
   -3.2550   -1.9275    0.5567 C   0  0  0  0  0  0  0  0  0  0  0  0
   -3.9916   -1.1834    0.8701 H   0  0  0  0  0  0  0  0  0  0  0  0
   -3.3929   -2.1401   -0.5063 H   0  0  0  0  0  0  0  0  0  0  0  0
   -1.8512   -1.4025    0.8019 C   0  0  0  0  0  0  0  0  0  0  0  0
   -1.0997   -2.0270    1.5293 O   0  0  0  0  0  0  0  0  0  0  0  0
   -1.4611   -0.2337    0.1809 N   0  0  0  0  0  0  0  0  0  0  0  0
   -2.1397    0.1947   -0.4442 H   0  0  0  0  0  0  0  0  0  0  0  0
   -0.1521    0.4379    0.2854 C   0  0  1  0  0  0  0  0  0  0  0  0
    0.5870   -0.1163   -0.3025 H   0  0  0  0  0  0  0  0  0  0  0  0
   -0.3376    1.8386   -0.3238 C   0  0  0  0  0  0  0  0  0  0  0  0
   -1.1637    2.3579    0.1742 H   0  0  0  0  0  0  0  0  0  0  0  0
    0.5718    2.4276   -0.1590 H   0  0  0  0  0  0  0  0  0  0  0  0
   -0.6083    1.7785   -1.8367 C   0  0  0  0  0  0  0  0  0  0  0  0
    0.2347    1.3008   -2.3453 H   0  0  0  0  0  0  0  0  0  0  0  0
   -1.5038    1.1878   -2.0471 H   0  0  0  0  0  0  0  0  0  0  0  0
   -0.8123    3.1851   -2.3943 C   0  0  0  0  0  0  0  0  0  0  0  0
   -1.8968    3.7523   -2.1085 O   0  5  0  0  0  0  0  0  0  0  0  0
    0.1041    3.6914   -3.0850 O   0  0  0  0  0  0  0  0  0  0  0  0
    0.4216    0.5522    1.7178 C   0  0  0  0  0  0  0  0  0  0  0  0
    1.4625   -0.0195    2.0199 O   0  0  0  0  0  0  0  0  0  0  0  0
   -0.1077    1.4747    2.6037 N   0  0  0  0  0  0  0  0  0  0  0  0
   -0.8969    2.0227    2.2757 H   0  0  0  0  0  0  0  0  0  0  0  0
    0.4685    1.7648    3.9080 C   0  0  0  0  0  0  0  0  0  0  0  0
    1.4739    2.1835    3.7972 H   0  0  0  0  0  0  0  0  0  0  0  0
   -0.1532    2.4903    4.4405 H   0  0  0  0  0  0  0  0  0  0  0  0
    0.5280    0.8525    4.5104 H   0  0  0  0  0  0  0  0  0  0  0  0
  1  2  1  0  0  0  0
  2  3  1  0  0  0  0
  2  4  1  0  0  0  0
  2  5  1  0  0  0  0
  5  6  2  0  0  0  0
  5  7  1  0  0  0  0
  7  8  1  0  0  0  0
  7  9  1  0  0  0  0
  9 10  1  0  0  0  0
  9 11  1  0  0  0  0
  9 20  1  0  0  0  0
 11 12  1  0  0  0  0
 11 13  1  0  0  0  0
 11 14  1  0  0  0  0
 14 15  1  0  0  0  0
 14 16  1  0  0  0  0
 14 17  1  0  0  0  0
 17 18  1  0  0  0  0
 17 19  2  0  0  0  0
 20 21  2  0  0  0  0
 20 22  1  0  0  0  0
 22 23  1  0  0  0  0
 22 24  1  0  0  0  0
 24 25  1  0  0  0  0
 24 26  1  0  0  0  0
 24 27  1  0  0  0  0
M  CHG  1  18  -1
M  END
$$$$

  -OEChem-01062216073D

 27 26  0     1  0  0  0  0  0999 V2000
   -3.4153   -2.8274    1.1532 H   0  0  0  0  0  0  0  0  0  0  0  0
   -3.2490   -1.9157    0.5725 C   0  0  0  0  0  0  0  0  0  0  0  0
   -3.9808   -1.1642    0.8794 H   0  0  0  0  0  0  0  0  0  0  0  0
   -3.3927   -2.1416   -0.4871 H   0  0  0  0  0  0  0  0  0  0  0  0
   -1.8424   -1.3933    0.8045 C   0  0  0  0  0  0  0  0  0  0  0  0
   -1.0874   -2.0092    1.5365 O   0  0  0  0  0  0  0  0  0  0  0  0
   -1.4515   -0.2308    0.1729 N   0  0  0  0  0  0  0  0  0  0  0  0
   -2.1279    0.1942   -0.4573 H   0  0  0  0  0  0  0  0  0  0  0  0
   -0.1353    0.4291    0.2645 C   0  0  1  0  0  0  0  0  0  0  0  0
    0.5959   -0.1270   -0.3314 H   0  0  0  0  0  0  0  0  0  0  0  0
   -0.3202    1.8351   -0.3305 C   0  0  0  0  0  0  0  0  0  0  0  0
   -1.1340    2.3567    0.1850 H   0  0  0  0  0  0  0  0  0  0  0  0
    0.5955    2.4166   -0.1746 H   0  0  0  0  0  0  0  0  0  0  0  0
   -0.6137    1.7858   -1.8405 C   0  0  0  0  0  0  0  0  0  0  0  0
    0.2189    1.3053   -2.3636 H   0  0  0  0  0  0  0  0  0  0  0  0
   -1.5157    1.2015   -2.0410 H   0  0  0  0  0  0  0  0  0  0  0  0
   -0.8182    3.1949   -2.3916 C   0  0  0  0  0  0  0  0  0  0  0  0
   -1.9024    3.7600   -2.1005 O   0  5  0  0  0  0  0  0  0  0  0  0
    0.0909    3.7003   -3.0927 O   0  0  0  0  0  0  0  0  0  0  0  0
    0.4449    0.5418    1.6927 C   0  0  0  0  0  0  0  0  0  0  0  0
    1.5849    0.1630    1.9356 O   0  0  0  0  0  0  0  0  0  0  0  0
   -0.2544    1.2340    2.6652 N   0  0  0  0  0  0  0  0  0  0  0  0
   -1.1682    1.5893    2.4046 H   0  0  0  0  0  0  0  0  0  0  0  0
    0.2504    1.4743    4.0081 C   0  0  0  0  0  0  0  0  0  0  0  0
    1.1425    2.1077    3.9729 H   0  0  0  0  0  0  0  0  0  0  0  0
   -0.5105    1.9792    4.6103 H   0  0  0  0  0  0  0  0  0  0  0  0
    0.5051    0.5278    4.4959 H   0  0  0  0  0  0  0  0  0  0  0  0
  1  2  1  0  0  0  0
  2  3  1  0  0  0  0
  2  4  1  0  0  0  0
  2  5  1  0  0  0  0
  5  6  2  0  0  0  0
  5  7  1  0  0  0  0
  7  8  1  0  0  0  0
  7  9  1  0  0  0  0
  9 10  1  0  0  0  0
  9 11  1  0  0  0  0
  9 20  1  0  0  0  0
 11 12  1  0  0  0  0
 11 13  1  0  0  0  0
 11 14  1  0  0  0  0
 14 15  1  0  0  0  0
 14 16  1  0  0  0  0
 14 17  1  0  0  0  0
 17 18  1  0  0  0  0
 17 19  2  0  0  0  0
 20 21  2  0  0  0  0
 20 22  1  0  0  0  0
 22 23  1  0  0  0  0
 22 24  1  0  0  0  0
 24 25  1  0  0  0  0
 24 26  1  0  0  0  0
 24 27  1  0  0  0  0
M  CHG  1  18  -1
M  END
$$$$

  -OEChem-01062216073D

 27 26  0     1  0  0  0  0  0999 V2000
   -3.4019   -2.8079    1.1725 H   0  0  0  0  0  0  0  0  0  0  0  0
   -3.2368   -1.9044    0.5786 C   0  0  0  0  0  0  0  0  0  0  0  0
   -3.9799   -1.1552    0.8631 H   0  0  0  0  0  0  0  0  0  0  0  0
   -3.3647   -2.1496   -0.4787 H   0  0  0  0  0  0  0  0  0  0  0  0
   -1.8381   -1.3649    0.8190 C   0  0  0  0  0  0  0  0  0  0  0  0
   -1.0883   -1.9580    1.5752 O   0  0  0  0  0  0  0  0  0  0  0  0
   -1.4472   -0.2089    0.1752 N   0  0  0  0  0  0  0  0  0  0  0  0
   -2.1157    0.2000   -0.4743 H   0  0  0  0  0  0  0  0  0  0  0  0
   -0.1292    0.4509    0.2582 C   0  0  1  0  0  0  0  0  0  0  0  0
    0.6002   -0.1084   -0.3367 H   0  0  0  0  0  0  0  0  0  0  0  0
   -0.3199    1.8518   -0.3455 C   0  0  0  0  0  0  0  0  0  0  0  0
   -1.1316    2.3751    0.1718 H   0  0  0  0  0  0  0  0  0  0  0  0
    0.5948    2.4372   -0.1986 H   0  0  0  0  0  0  0  0  0  0  0  0
   -0.6202    1.7864   -1.8543 C   0  0  0  0  0  0  0  0  0  0  0  0
    0.2111    1.3017   -2.3753 H   0  0  0  0  0  0  0  0  0  0  0  0
   -1.5214    1.1976   -2.0443 H   0  0  0  0  0  0  0  0  0  0  0  0
   -0.8319    3.1867   -2.4247 C   0  0  0  0  0  0  0  0  0  0  0  0
   -1.9254    3.7444   -2.1552 O   0  5  0  0  0  0  0  0  0  0  0  0
    0.0761    3.6874   -3.1307 O   0  0  0  0  0  0  0  0  0  0  0  0
    0.4624    0.5828    1.6797 C   0  0  0  0  0  0  0  0  0  0  0  0
    1.6613    0.4166    1.8723 O   0  0  0  0  0  0  0  0  0  0  0  0
   -0.3377    1.0064    2.7250 N   0  0  0  0  0  0  0  0  0  0  0  0
   -1.3310    1.0675    2.5309 H   0  0  0  0  0  0  0  0  0  0  0  0
    0.1252    1.1020    4.1006 C   0  0  0  0  0  0  0  0  0  0  0  0
    0.9546    1.8124    4.1765 H   0  0  0  0  0  0  0  0  0  0  0  0
   -0.6867    1.4482    4.7468 H   0  0  0  0  0  0  0  0  0  0  0  0
    0.4617    0.1236    4.4583 H   0  0  0  0  0  0  0  0  0  0  0  0
  1  2  1  0  0  0  0
  2  3  1  0  0  0  0
  2  4  1  0  0  0  0
  2  5  1  0  0  0  0
  5  6  2  0  0  0  0
  5  7  1  0  0  0  0
  7  8  1  0  0  0  0
  7  9  1  0  0  0  0
  9 10  1  0  0  0  0
  9 11  1  0  0  0  0
  9 20  1  0  0  0  0
 11 12  1  0  0  0  0
 11 13  1  0  0  0  0
 11 14  1  0  0  0  0
 14 15  1  0  0  0  0
 14 16  1  0  0  0  0
 14 17  1  0  0  0  0
 17 18  1  0  0  0  0
 17 19  2  0  0  0  0
 20 21  2  0  0  0  0
 20 22  1  0  0  0  0
 22 23  1  0  0  0  0
 22 24  1  0  0  0  0
 24 25  1  0  0  0  0
 24 26  1  0  0  0  0
 24 27  1  0  0  0  0
M  CHG  1  18  -1
M  END
$$$$

  -OEChem-01062216073D

 27 26  0     1  0  0  0  0  0999 V2000
   -3.4444   -2.8025    1.1003 H   0  0  0  0  0  0  0  0  0  0  0  0
   -3.2587   -1.8992    0.5126 C   0  0  0  0  0  0  0  0  0  0  0  0
   -4.0139   -1.1513    0.7673 H   0  0  0  0  0  0  0  0  0  0  0  0
   -3.3458   -2.1456   -0.5487 H   0  0  0  0  0  0  0  0  0  0  0  0
   -1.8714   -1.3559    0.8042 C   0  0  0  0  0  0  0  0  0  0  0  0
   -1.1488   -1.9406    1.5929 O   0  0  0  0  0  0  0  0  0  0  0  0
   -1.4612   -0.1990    0.1761 N   0  0  0  0  0  0  0  0  0  0  0  0
   -2.1142    0.2114   -0.4887 H   0  0  0  0  0  0  0  0  0  0  0  0
   -0.1444    0.4634    0.2803 C   0  0  1  0  0  0  0  0  0  0  0  0
    0.5905   -0.0948   -0.3085 H   0  0  0  0  0  0  0  0  0  0  0  0
   -0.3405    1.8586   -0.3361 C   0  0  0  0  0  0  0  0  0  0  0  0
   -1.1641    2.3775    0.1668 H   0  0  0  0  0  0  0  0  0  0  0  0
    0.5659    2.4551   -0.1834 H   0  0  0  0  0  0  0  0  0  0  0  0
   -0.6178    1.7745   -1.8494 C   0  0  0  0  0  0  0  0  0  0  0  0
    0.2272    1.2932   -2.3513 H   0  0  0  0  0  0  0  0  0  0  0  0
   -1.5087    1.1730   -2.0476 H   0  0  0  0  0  0  0  0  0  0  0  0
   -0.8371    3.1639   -2.4432 C   0  0  0  0  0  0  0  0  0  0  0  0
   -1.9424    3.7110   -2.2013 O   0  5  0  0  0  0  0  0  0  0  0  0
    0.0723    3.6615   -3.1499 O   0  0  0  0  0  0  0  0  0  0  0  0
    0.4552    0.6086    1.6997 C   0  0  0  0  0  0  0  0  0  0  0  0
    1.6688    0.6958    1.8465 O   0  0  0  0  0  0  0  0  0  0  0  0
   -0.3645    0.7329    2.8064 N   0  0  0  0  0  0  0  0  0  0  0  0
   -1.3296    0.4601    2.6568 H   0  0  0  0  0  0  0  0  0  0  0  0
    0.1458    0.7620    4.1686 C   0  0  0  0  0  0  0  0  0  0  0  0
    0.8449    1.5946    4.2983 H   0  0  0  0  0  0  0  0  0  0  0  0
   -0.6790    0.8920    4.8752 H   0  0  0  0  0  0  0  0  0  0  0  0
    0.6618   -0.1746    4.4028 H   0  0  0  0  0  0  0  0  0  0  0  0
  1  2  1  0  0  0  0
  2  3  1  0  0  0  0
  2  4  1  0  0  0  0
  2  5  1  0  0  0  0
  5  6  2  0  0  0  0
  5  7  1  0  0  0  0
  7  8  1  0  0  0  0
  7  9  1  0  0  0  0
  9 10  1  0  0  0  0
  9 11  1  0  0  0  0
  9 20  1  0  0  0  0
 11 12  1  0  0  0  0
 11 13  1  0  0  0  0
 11 14  1  0  0  0  0
 14 15  1  0  0  0  0
 14 16  1  0  0  0  0
 14 17  1  0  0  0  0
 17 18  1  0  0  0  0
 17 19  2  0  0  0  0
 20 21  2  0  0  0  0
 20 22  1  0  0  0  0
 22 23  1  0  0  0  0
 22 24  1  0  0  0  0
 24 25  1  0  0  0  0
 24 26  1  0  0  0  0
 24 27  1  0  0  0  0
M  CHG  1  18  -1
M  END
$$$$

  -OEChem-01062216073D

 27 26  0     1  0  0  0  0  0999 V2000
   -3.5182   -2.8069    0.9716 H   0  0  0  0  0  0  0  0  0  0  0  0
   -3.3084   -1.8867    0.4190 C   0  0  0  0  0  0  0  0  0  0  0  0
   -4.0664   -1.1415    0.6740 H   0  0  0  0  0  0  0  0  0  0  0  0
   -3.3644   -2.0987   -0.6518 H   0  0  0  0  0  0  0  0  0  0  0  0
   -1.9271   -1.3630    0.7698 C   0  0  0  0  0  0  0  0  0  0  0  0
   -1.2453   -1.9596    1.5865 O   0  0  0  0  0  0  0  0  0  0  0  0
   -1.4813   -0.2026    0.1749 N   0  0  0  0  0  0  0  0  0  0  0  0
   -2.1191    0.2291   -0.4915 H   0  0  0  0  0  0  0  0  0  0  0  0
   -0.1627    0.4553    0.3067 C   0  0  1  0  0  0  0  0  0  0  0  0
    0.5745   -0.1004   -0.2810 H   0  0  0  0  0  0  0  0  0  0  0  0
   -0.3609    1.8494   -0.3167 C   0  0  0  0  0  0  0  0  0  0  0  0
   -1.1956    2.3633    0.1731 H   0  0  0  0  0  0  0  0  0  0  0  0
    0.5374    2.4556   -0.1540 H   0  0  0  0  0  0  0  0  0  0  0  0
   -0.6145    1.7596   -1.8349 C   0  0  0  0  0  0  0  0  0  0  0  0
    0.2428    1.2852   -2.3221 H   0  0  0  0  0  0  0  0  0  0  0  0
   -1.4964    1.1495   -2.0470 H   0  0  0  0  0  0  0  0  0  0  0  0
   -0.8365    3.1445   -2.4379 C   0  0  0  0  0  0  0  0  0  0  0  0
   -1.9552    3.6765   -2.2262 O   0  5  0  0  0  0  0  0  0  0  0  0
    0.0804    3.6489   -3.1299 O   0  0  0  0  0  0  0  0  0  0  0  0
    0.4488    0.5980    1.7254 C   0  0  0  0  0  0  0  0  0  0  0  0
    1.6175    0.9462    1.8483 O   0  0  0  0  0  0  0  0  0  0  0  0
   -0.3079    0.4173    2.8682 N   0  0  0  0  0  0  0  0  0  0  0  0
   -1.1162   -0.1837    2.7252 H   0  0  0  0  0  0  0  0  0  0  0  0
    0.2687    0.4655    4.2039 C   0  0  0  0  0  0  0  0  0  0  0  0
    0.7296    1.4416    4.3875 H   0  0  0  0  0  0  0  0  0  0  0  0
   -0.5114    0.3071    4.9543 H   0  0  0  0  0  0  0  0  0  0  0  0
    1.0289   -0.3136    4.3210 H   0  0  0  0  0  0  0  0  0  0  0  0
  1  2  1  0  0  0  0
  2  3  1  0  0  0  0
  2  4  1  0  0  0  0
  2  5  1  0  0  0  0
  5  6  2  0  0  0  0
  5  7  1  0  0  0  0
  7  8  1  0  0  0  0
  7  9  1  0  0  0  0
  9 10  1  0  0  0  0
  9 11  1  0  0  0  0
  9 20  1  0  0  0  0
 11 12  1  0  0  0  0
 11 13  1  0  0  0  0
 11 14  1  0  0  0  0
 14 15  1  0  0  0  0
 14 16  1  0  0  0  0
 14 17  1  0  0  0  0
 17 18  1  0  0  0  0
 17 19  2  0  0  0  0
 20 21  2  0  0  0  0
 20 22  1  0  0  0  0
 22 23  1  0  0  0  0
 22 24  1  0  0  0  0
 24 25  1  0  0  0  0
 24 26  1  0  0  0  0
 24 27  1  0  0  0  0
M  CHG  1  18  -1
M  END
$$$$

  -OEChem-01062216073D

 27 26  0     1  0  0  0  0  0999 V2000
   -3.5550   -2.7900    0.9311 H   0  0  0  0  0  0  0  0  0  0  0  0
   -3.3383   -1.8534    0.4097 C   0  0  0  0  0  0  0  0  0  0  0  0
   -4.0581   -1.0963    0.7313 H   0  0  0  0  0  0  0  0  0  0  0  0
   -3.4492   -2.0152   -0.6656 H   0  0  0  0  0  0  0  0  0  0  0  0
   -1.9263   -1.3905    0.7196 C   0  0  0  0  0  0  0  0  0  0  0  0
   -1.2239   -2.0578    1.4617 O   0  0  0  0  0  0  0  0  0  0  0  0
   -1.4693   -0.2197    0.1539 N   0  0  0  0  0  0  0  0  0  0  0  0
   -2.1264    0.2582   -0.4604 H   0  0  0  0  0  0  0  0  0  0  0  0
   -0.1590    0.4510    0.3129 C   0  0  1  0  0  0  0  0  0  0  0  0
    0.5905   -0.0922   -0.2707 H   0  0  0  0  0  0  0  0  0  0  0  0
   -0.3742    1.8433   -0.3142 C   0  0  0  0  0  0  0  0  0  0  0  0
   -1.2245    2.3415    0.1646 H   0  0  0  0  0  0  0  0  0  0  0  0
    0.5094    2.4678   -0.1424 H   0  0  0  0  0  0  0  0  0  0  0  0
   -0.6030    1.7507   -1.8365 C   0  0  0  0  0  0  0  0  0  0  0  0
    0.2702    1.2927   -2.3111 H   0  0  0  0  0  0  0  0  0  0  0  0
   -1.4703    1.1248   -2.0626 H   0  0  0  0  0  0  0  0  0  0  0  0
   -0.8418    3.1321   -2.4415 C   0  0  0  0  0  0  0  0  0  0  0  0
   -1.9735    3.6425   -2.2456 O   0  5  0  0  0  0  0  0  0  0  0  0
    0.0751    3.6542   -3.1207 O   0  0  0  0  0  0  0  0  0  0  0  0
    0.4454    0.5921    1.7392 C   0  0  0  0  0  0  0  0  0  0  0  0
    1.5215    1.1595    1.8886 O   0  0  0  0  0  0  0  0  0  0  0  0
   -0.1913    0.1162    2.8704 N   0  0  0  0  0  0  0  0  0  0  0  0
   -0.8655   -0.6243    2.6775 H   0  0  0  0  0  0  0  0  0  0  0  0
    0.4189    0.1452    4.1918 C   0  0  0  0  0  0  0  0  0  0  0  0
    0.6690    1.1723    4.4767 H   0  0  0  0  0  0  0  0  0  0  0  0
   -0.2770   -0.2572    4.9336 H   0  0  0  0  0  0  0  0  0  0  0  0
    1.3313   -0.4593    4.2050 H   0  0  0  0  0  0  0  0  0  0  0  0
  1  2  1  0  0  0  0
  2  3  1  0  0  0  0
  2  4  1  0  0  0  0
  2  5  1  0  0  0  0
  5  6  2  0  0  0  0
  5  7  1  0  0  0  0
  7  8  1  0  0  0  0
  7  9  1  0  0  0  0
  9 10  1  0  0  0  0
  9 11  1  0  0  0  0
  9 20  1  0  0  0  0
 11 12  1  0  0  0  0
 11 13  1  0  0  0  0
 11 14  1  0  0  0  0
 14 15  1  0  0  0  0
 14 16  1  0  0  0  0
 14 17  1  0  0  0  0
 17 18  1  0  0  0  0
 17 19  2  0  0  0  0
 20 21  2  0  0  0  0
 20 22  1  0  0  0  0
 22 23  1  0  0  0  0
 22 24  1  0  0  0  0
 24 25  1  0  0  0  0
 24 26  1  0  0  0  0
 24 27  1  0  0  0  0
M  CHG  1  18  -1
M  END
$$$$

  -OEChem-01062216073D

 27 26  0     1  0  0  0  0  0999 V2000
   -3.5695   -2.7766    0.9107 H   0  0  0  0  0  0  0  0  0  0  0  0
   -3.3549   -1.8205    0.4252 C   0  0  0  0  0  0  0  0  0  0  0  0
   -4.0326   -1.0622    0.8257 H   0  0  0  0  0  0  0  0  0  0  0  0
   -3.5315   -1.9230   -0.6485 H   0  0  0  0  0  0  0  0  0  0  0  0
   -1.9147   -1.4117    0.6763 C   0  0  0  0  0  0  0  0  0  0  0  0
   -1.1830   -2.1526    1.3144 O   0  0  0  0  0  0  0  0  0  0  0  0
   -1.4560   -0.2279    0.1393 N   0  0  0  0  0  0  0  0  0  0  0  0
   -2.1378    0.2946   -0.4082 H   0  0  0  0  0  0  0  0  0  0  0  0
   -0.1521    0.4522    0.3156 C   0  0  1  0  0  0  0  0  0  0  0  0
    0.6034   -0.0809   -0.2690 H   0  0  0  0  0  0  0  0  0  0  0  0
   -0.3795    1.8434   -0.3149 C   0  0  0  0  0  0  0  0  0  0  0  0
   -1.2400    2.3317    0.1561 H   0  0  0  0  0  0  0  0  0  0  0  0
    0.4933    2.4816   -0.1399 H   0  0  0  0  0  0  0  0  0  0  0  0
   -0.5922    1.7458   -1.8398 C   0  0  0  0  0  0  0  0  0  0  0  0
    0.2911    1.2973   -2.3042 H   0  0  0  0  0  0  0  0  0  0  0  0
   -1.4494    1.1090   -2.0731 H   0  0  0  0  0  0  0  0  0  0  0  0
   -0.8433    3.1216   -2.4529 C   0  0  0  0  0  0  0  0  0  0  0  0
   -1.9669    3.6396   -2.2316 O   0  5  0  0  0  0  0  0  0  0  0  0
    0.0531    3.6279   -3.1704 O   0  0  0  0  0  0  0  0  0  0  0  0
    0.4498    0.5773    1.7485 C   0  0  0  0  0  0  0  0  0  0  0  0
    1.3851    1.3410    1.9579 O   0  0  0  0  0  0  0  0  0  0  0  0
   -0.0042   -0.1613    2.8253 N   0  0  0  0  0  0  0  0  0  0  0  0
   -0.5709   -0.9727    2.5755 H   0  0  0  0  0  0  0  0  0  0  0  0
    0.6262   -0.1436    4.1376 C   0  0  0  0  0  0  0  0  0  0  0  0
    0.6467    0.8744    4.5397 H   0  0  0  0  0  0  0  0  0  0  0  0
    0.0633   -0.7749    4.8311 H   0  0  0  0  0  0  0  0  0  0  0  0
    1.6515   -0.5216    4.0751 H   0  0  0  0  0  0  0  0  0  0  0  0
  1  2  1  0  0  0  0
  2  3  1  0  0  0  0
  2  4  1  0  0  0  0
  2  5  1  0  0  0  0
  5  6  2  0  0  0  0
  5  7  1  0  0  0  0
  7  8  1  0  0  0  0
  7  9  1  0  0  0  0
  9 10  1  0  0  0  0
  9 11  1  0  0  0  0
  9 20  1  0  0  0  0
 11 12  1  0  0  0  0
 11 13  1  0  0  0  0
 11 14  1  0  0  0  0
 14 15  1  0  0  0  0
 14 16  1  0  0  0  0
 14 17  1  0  0  0  0
 17 18  1  0  0  0  0
 17 19  2  0  0  0  0
 20 21  2  0  0  0  0
 20 22  1  0  0  0  0
 22 23  1  0  0  0  0
 22 24  1  0  0  0  0
 24 25  1  0  0  0  0
 24 26  1  0  0  0  0
 24 27  1  0  0  0  0
M  CHG  1  18  -1
M  END
$$$$

  -OEChem-01062216073D

 27 26  0     1  0  0  0  0  0999 V2000
   -3.7144   -2.5970    1.0813 H   0  0  0  0  0  0  0  0  0  0  0  0
   -3.4693   -1.6542    0.5842 C   0  0  0  0  0  0  0  0  0  0  0  0
   -4.0517   -0.8517    1.0442 H   0  0  0  0  0  0  0  0  0  0  0  0
   -3.7418   -1.7305   -0.4717 H   0  0  0  0  0  0  0  0  0  0  0  0
   -1.9864   -1.3570    0.7153 C   0  0  0  0  0  0  0  0  0  0  0  0
   -1.2534   -2.1814    1.2402 O   0  0  0  0  0  0  0  0  0  0  0  0
   -1.4922   -0.1930    0.1663 N   0  0  0  0  0  0  0  0  0  0  0  0
   -2.1835    0.3889   -0.3039 H   0  0  0  0  0  0  0  0  0  0  0  0
   -0.1516    0.4245    0.2905 C   0  0  1  0  0  0  0  0  0  0  0  0
    0.5526   -0.1508   -0.3173 H   0  0  0  0  0  0  0  0  0  0  0  0
   -0.3280    1.8181   -0.3531 C   0  0  0  0  0  0  0  0  0  0  0  0
   -1.1458    2.3573    0.1377 H   0  0  0  0  0  0  0  0  0  0  0  0
    0.5822    2.4124   -0.2193 H   0  0  0  0  0  0  0  0  0  0  0  0
   -0.5939    1.7099   -1.8687 C   0  0  0  0  0  0  0  0  0  0  0  0
    0.2504    1.2109   -2.3539 H   0  0  0  0  0  0  0  0  0  0  0  0
   -1.4889    1.1136   -2.0650 H   0  0  0  0  0  0  0  0  0  0  0  0
   -0.7940    3.0883   -2.4943 C   0  0  0  0  0  0  0  0  0  0  0  0
   -1.9021    3.6448   -2.2885 O   0  5  0  0  0  0  0  0  0  0  0  0
    0.1288    3.5621   -3.2009 O   0  0  0  0  0  0  0  0  0  0  0  0
    0.5080    0.5086    1.7033 C   0  0  0  0  0  0  0  0  0  0  0  0
    1.3087    1.3970    1.9700 O   0  0  0  0  0  0  0  0  0  0  0  0
    0.2683   -0.4164    2.7013 N   0  0  0  0  0  0  0  0  0  0  0  0
   -0.2612   -1.2428    2.4186 H   0  0  0  0  0  0  0  0  0  0  0  0
    0.9572   -0.4341    3.9836 C   0  0  0  0  0  0  0  0  0  0  0  0
    0.7969    0.5079    4.5178 H   0  0  0  0  0  0  0  0  0  0  0  0
    0.5746   -1.2508    4.6028 H   0  0  0  0  0  0  0  0  0  0  0  0
    2.0321   -0.5817    3.8383 H   0  0  0  0  0  0  0  0  0  0  0  0
  1  2  1  0  0  0  0
  2  3  1  0  0  0  0
  2  4  1  0  0  0  0
  2  5  1  0  0  0  0
  5  6  2  0  0  0  0
  5  7  1  0  0  0  0
  7  8  1  0  0  0  0
  7  9  1  0  0  0  0
  9 10  1  0  0  0  0
  9 11  1  0  0  0  0
  9 20  1  0  0  0  0
 11 12  1  0  0  0  0
 11 13  1  0  0  0  0
 11 14  1  0  0  0  0
 14 15  1  0  0  0  0
 14 16  1  0  0  0  0
 14 17  1  0  0  0  0
 17 18  1  0  0  0  0
 17 19  2  0  0  0  0
 20 21  2  0  0  0  0
 20 22  1  0  0  0  0
 22 23  1  0  0  0  0
 22 24  1  0  0  0  0
 24 25  1  0  0  0  0
 24 26  1  0  0  0  0
 24 27  1  0  0  0  0
M  CHG  1  18  -1
M  END
$$$$

  -OEChem-01062216073D

 27 26  0     1  0  0  0  0  0999 V2000
   -3.5200   -2.7615    1.0005 H   0  0  0  0  0  0  0  0  0  0  0  0
   -3.3350   -1.7772    0.5615 C   0  0  0  0  0  0  0  0  0  0  0  0
   -3.9350   -1.0355    1.0948 H   0  0  0  0  0  0  0  0  0  0  0  0
   -3.6425   -1.7950   -0.4872 H   0  0  0  0  0  0  0  0  0  0  0  0
   -1.8627   -1.4213    0.6638 C   0  0  0  0  0  0  0  0  0  0  0  0
   -1.0809   -2.2346    1.1331 O   0  0  0  0  0  0  0  0  0  0  0  0
   -1.4318   -0.2206    0.1405 N   0  0  0  0  0  0  0  0  0  0  0  0
   -2.1589    0.3474   -0.2908 H   0  0  0  0  0  0  0  0  0  0  0  0
   -0.1249    0.4602    0.2832 C   0  0  1  0  0  0  0  0  0  0  0  0
    0.6102   -0.0721   -0.3271 H   0  0  0  0  0  0  0  0  0  0  0  0
   -0.3508    1.8538   -0.3432 C   0  0  0  0  0  0  0  0  0  0  0  0
   -1.1964    2.3521    0.1435 H   0  0  0  0  0  0  0  0  0  0  0  0
    0.5334    2.4816   -0.1886 H   0  0  0  0  0  0  0  0  0  0  0  0
   -0.5938    1.7531   -1.8624 C   0  0  0  0  0  0  0  0  0  0  0  0
    0.2757    1.2952   -2.3438 H   0  0  0  0  0  0  0  0  0  0  0  0
   -1.4609    1.1225   -2.0759 H   0  0  0  0  0  0  0  0  0  0  0  0
   -0.8432    3.1296   -2.4736 C   0  0  0  0  0  0  0  0  0  0  0  0
   -1.9882    3.6208   -2.3086 O   0  5  0  0  0  0  0  0  0  0  0  0
    0.0838    3.6682   -3.1260 O   0  0  0  0  0  0  0  0  0  0  0  0
    0.5120    0.5357    1.7064 C   0  0  0  0  0  0  0  0  0  0  0  0
    1.0218    1.5687    2.1240 O   0  0  0  0  0  0  0  0  0  0  0  0
    0.5559   -0.5534    2.5545 N   0  0  0  0  0  0  0  0  0  0  0  0
    0.1183   -1.4105    2.2099 H   0  0  0  0  0  0  0  0  0  0  0  0
    1.1296   -0.5381    3.8921 C   0  0  0  0  0  0  0  0  0  0  0  0
    0.6019    0.1812    4.5265 H   0  0  0  0  0  0  0  0  0  0  0  0
    1.0441   -1.5293    4.3466 H   0  0  0  0  0  0  0  0  0  0  0  0
    2.1890   -0.2657    3.8510 H   0  0  0  0  0  0  0  0  0  0  0  0
  1  2  1  0  0  0  0
  2  3  1  0  0  0  0
  2  4  1  0  0  0  0
  2  5  1  0  0  0  0
  5  6  2  0  0  0  0
  5  7  1  0  0  0  0
  7  8  1  0  0  0  0
  7  9  1  0  0  0  0
  9 10  1  0  0  0  0
  9 11  1  0  0  0  0
  9 20  1  0  0  0  0
 11 12  1  0  0  0  0
 11 13  1  0  0  0  0
 11 14  1  0  0  0  0
 14 15  1  0  0  0  0
 14 16  1  0  0  0  0
 14 17  1  0  0  0  0
 17 18  1  0  0  0  0
 17 19  2  0  0  0  0
 20 21  2  0  0  0  0
 20 22  1  0  0  0  0
 22 23  1  0  0  0  0
 22 24  1  0  0  0  0
 24 25  1  0  0  0  0
 24 26  1  0  0  0  0
 24 27  1  0  0  0  0
M  CHG  1  18  -1
M  END
$$$$

  -OEChem-01062216073D

 27 26  0     1  0  0  0  0  0999 V2000
   -3.4299   -2.7693    1.1100 H   0  0  0  0  0  0  0  0  0  0  0  0
   -3.2776   -1.7809    0.6673 C   0  0  0  0  0  0  0  0  0  0  0  0
   -3.8541   -1.0475    1.2369 H   0  0  0  0  0  0  0  0  0  0  0  0
   -3.6413   -1.7962   -0.3633 H   0  0  0  0  0  0  0  0  0  0  0  0
   -1.8051   -1.4118    0.6916 C   0  0  0  0  0  0  0  0  0  0  0  0
   -0.9902   -2.2160    1.1195 O   0  0  0  0  0  0  0  0  0  0  0  0
   -1.4104   -0.2089    0.1452 N   0  0  0  0  0  0  0  0  0  0  0  0
   -2.1603    0.3622   -0.2403 H   0  0  0  0  0  0  0  0  0  0  0  0
   -0.1027    0.4731    0.2506 C   0  0  1  0  0  0  0  0  0  0  0  0
    0.6191   -0.0613   -0.3738 H   0  0  0  0  0  0  0  0  0  0  0  0
   -0.3243    1.8689   -0.3687 C   0  0  0  0  0  0  0  0  0  0  0  0
   -1.1538    2.3772    0.1350 H   0  0  0  0  0  0  0  0  0  0  0  0
    0.5722    2.4829   -0.2275 H   0  0  0  0  0  0  0  0  0  0  0  0
   -0.6005    1.7701   -1.8819 C   0  0  0  0  0  0  0  0  0  0  0  0
    0.2522    1.3011   -2.3819 H   0  0  0  0  0  0  0  0  0  0  0  0
   -1.4796    1.1489   -2.0740 H   0  0  0  0  0  0  0  0  0  0  0  0
   -0.8459    3.1484   -2.4905 C   0  0  0  0  0  0  0  0  0  0  0  0
   -1.9997    3.6286   -2.3588 O   0  5  0  0  0  0  0  0  0  0  0  0
    0.0984    3.7021   -3.1048 O   0  0  0  0  0  0  0  0  0  0  0  0
    0.5489    0.5368    1.6647 C   0  0  0  0  0  0  0  0  0  0  0  0
    0.8100    1.6046    2.2066 O   0  0  0  0  0  0  0  0  0  0  0  0
    0.8665   -0.6137    2.3604 N   0  0  0  0  0  0  0  0  0  0  0  0
    0.4654   -1.4749    1.9811 H   0  0  0  0  0  0  0  0  0  0  0  0
    1.3657   -0.6225    3.7278 C   0  0  0  0  0  0  0  0  0  0  0  0
    0.6291   -0.1815    4.4068 H   0  0  0  0  0  0  0  0  0  0  0  0
    1.5628   -1.6498    4.0474 H   0  0  0  0  0  0  0  0  0  0  0  0
    2.2989   -0.0547    3.7994 H   0  0  0  0  0  0  0  0  0  0  0  0
  1  2  1  0  0  0  0
  2  3  1  0  0  0  0
  2  4  1  0  0  0  0
  2  5  1  0  0  0  0
  5  6  2  0  0  0  0
  5  7  1  0  0  0  0
  7  8  1  0  0  0  0
  7  9  1  0  0  0  0
  9 10  1  0  0  0  0
  9 11  1  0  0  0  0
  9 20  1  0  0  0  0
 11 12  1  0  0  0  0
 11 13  1  0  0  0  0
 11 14  1  0  0  0  0
 14 15  1  0  0  0  0
 14 16  1  0  0  0  0
 14 17  1  0  0  0  0
 17 18  1  0  0  0  0
 17 19  2  0  0  0  0
 20 21  2  0  0  0  0
 20 22  1  0  0  0  0
 22 23  1  0  0  0  0
 22 24  1  0  0  0  0
 24 25  1  0  0  0  0
 24 26  1  0  0  0  0
 24 27  1  0  0  0  0
M  CHG  1  18  -1
M  END
$$$$

  -OEChem-01062216073D

 27 26  0     1  0  0  0  0  0999 V2000
   -3.3142   -2.7995    1.2034 H   0  0  0  0  0  0  0  0  0  0  0  0
   -3.2100   -1.8052    0.7604 C   0  0  0  0  0  0  0  0  0  0  0  0
   -3.7777   -1.0903    1.3616 H   0  0  0  0  0  0  0  0  0  0  0  0
   -3.6225   -1.8250   -0.2516 H   0  0  0  0  0  0  0  0  0  0  0  0
   -1.7483   -1.3974    0.7171 C   0  0  0  0  0  0  0  0  0  0  0  0
   -0.8914   -2.1695    1.1240 O   0  0  0  0  0  0  0  0  0  0  0  0
   -1.4017   -0.1956    0.1371 N   0  0  0  0  0  0  0  0  0  0  0  0
   -2.1736    0.3732   -0.2050 H   0  0  0  0  0  0  0  0  0  0  0  0
   -0.0986    0.4917    0.2232 C   0  0  1  0  0  0  0  0  0  0  0  0
    0.6234   -0.0431   -0.4005 H   0  0  0  0  0  0  0  0  0  0  0  0
   -0.3101    1.8893   -0.3914 C   0  0  0  0  0  0  0  0  0  0  0  0
   -1.1345    2.4023    0.1162 H   0  0  0  0  0  0  0  0  0  0  0  0
    0.5924    2.4939   -0.2480 H   0  0  0  0  0  0  0  0  0  0  0  0
   -0.5975    1.7948   -1.9022 C   0  0  0  0  0  0  0  0  0  0  0  0
    0.2474    1.3186   -2.4088 H   0  0  0  0  0  0  0  0  0  0  0  0
   -1.4831    1.1807   -2.0876 H   0  0  0  0  0  0  0  0  0  0  0  0
   -0.8330    3.1757   -2.5088 C   0  0  0  0  0  0  0  0  0  0  0  0
   -2.0011    3.6341   -2.4437 O   0  5  0  0  0  0  0  0  0  0  0  0
    0.1395    3.7573   -3.0493 O   0  0  0  0  0  0  0  0  0  0  0  0
    0.5334    0.5547    1.6418 C   0  0  0  0  0  0  0  0  0  0  0  0
    0.5596    1.5920    2.2945 O   0  0  0  0  0  0  0  0  0  0  0  0
    1.1134   -0.5722    2.1922 N   0  0  0  0  0  0  0  0  0  0  0  0
    0.7881   -1.4479    1.7755 H   0  0  0  0  0  0  0  0  0  0  0  0
    1.6160   -0.6165    3.5576 C   0  0  0  0  0  0  0  0  0  0  0  0
    0.8094   -0.4143    4.2694 H   0  0  0  0  0  0  0  0  0  0  0  0
    2.0299   -1.6061    3.7717 H   0  0  0  0  0  0  0  0  0  0  0  0
    2.4081    0.1259    3.6984 H   0  0  0  0  0  0  0  0  0  0  0  0
  1  2  1  0  0  0  0
  2  3  1  0  0  0  0
  2  4  1  0  0  0  0
  2  5  1  0  0  0  0
  5  6  2  0  0  0  0
  5  7  1  0  0  0  0
  7  8  1  0  0  0  0
  7  9  1  0  0  0  0
  9 10  1  0  0  0  0
  9 11  1  0  0  0  0
  9 20  1  0  0  0  0
 11 12  1  0  0  0  0
 11 13  1  0  0  0  0
 11 14  1  0  0  0  0
 14 15  1  0  0  0  0
 14 16  1  0  0  0  0
 14 17  1  0  0  0  0
 17 18  1  0  0  0  0
 17 19  2  0  0  0  0
 20 21  2  0  0  0  0
 20 22  1  0  0  0  0
 22 23  1  0  0  0  0
 22 24  1  0  0  0  0
 24 25  1  0  0  0  0
 24 26  1  0  0  0  0
 24 27  1  0  0  0  0
M  CHG  1  18  -1
M  END
$$$$

  -OEChem-01062216073D

 27 26  0     1  0  0  0  0  0999 V2000
   -3.2168   -2.8124    1.2904 H   0  0  0  0  0  0  0  0  0  0  0  0
   -3.1516   -1.8215    0.8325 C   0  0  0  0  0  0  0  0  0  0  0  0
   -3.7158   -1.1125    1.4437 H   0  0  0  0  0  0  0  0  0  0  0  0
   -3.5959   -1.8633   -0.1652 H   0  0  0  0  0  0  0  0  0  0  0  0
   -1.7025   -1.3802    0.7356 C   0  0  0  0  0  0  0  0  0  0  0  0
   -0.8100   -2.1202    1.1285 O   0  0  0  0  0  0  0  0  0  0  0  0
   -1.3989   -0.1830    0.1235 N   0  0  0  0  0  0  0  0  0  0  0  0
   -2.1875    0.3845   -0.1800 H   0  0  0  0  0  0  0  0  0  0  0  0
   -0.0989    0.5049    0.1966 C   0  0  1  0  0  0  0  0  0  0  0  0
    0.6243   -0.0307   -0.4252 H   0  0  0  0  0  0  0  0  0  0  0  0
   -0.3014    1.9052   -0.4109 C   0  0  0  0  0  0  0  0  0  0  0  0
   -1.1208    2.4224    0.1007 H   0  0  0  0  0  0  0  0  0  0  0  0
    0.6061    2.5018   -0.2661 H   0  0  0  0  0  0  0  0  0  0  0  0
   -0.5980    1.8167   -1.9197 C   0  0  0  0  0  0  0  0  0  0  0  0
    0.2399    1.3358   -2.4330 H   0  0  0  0  0  0  0  0  0  0  0  0
   -1.4886    1.2086   -2.1004 H   0  0  0  0  0  0  0  0  0  0  0  0
   -0.8249    3.2011   -2.5218 C   0  0  0  0  0  0  0  0  0  0  0  0
   -2.0057    3.6300   -2.5410 O   0  5  0  0  0  0  0  0  0  0  0  0
    0.1727    3.8194   -2.9676 O   0  0  0  0  0  0  0  0  0  0  0  0
    0.5073    0.5668    1.6228 C   0  0  0  0  0  0  0  0  0  0  0  0
    0.3040    1.5159    2.3718 O   0  0  0  0  0  0  0  0  0  0  0  0
    1.3354   -0.4535    2.0515 N   0  0  0  0  0  0  0  0  0  0  0  0
    1.1562   -1.3401    1.5789 H   0  0  0  0  0  0  0  0  0  0  0  0
    1.8571   -0.5124    3.4092 C   0  0  0  0  0  0  0  0  0  0  0  0
    1.0374   -0.5741    4.1321 H   0  0  0  0  0  0  0  0  0  0  0  0
    2.4941   -1.3938    3.5280 H   0  0  0  0  0  0  0  0  0  0  0  0
    2.4565    0.3770    3.6284 H   0  0  0  0  0  0  0  0  0  0  0  0
  1  2  1  0  0  0  0
  2  3  1  0  0  0  0
  2  4  1  0  0  0  0
  2  5  1  0  0  0  0
  5  6  2  0  0  0  0
  5  7  1  0  0  0  0
  7  8  1  0  0  0  0
  7  9  1  0  0  0  0
  9 10  1  0  0  0  0
  9 11  1  0  0  0  0
  9 20  1  0  0  0  0
 11 12  1  0  0  0  0
 11 13  1  0  0  0  0
 11 14  1  0  0  0  0
 14 15  1  0  0  0  0
 14 16  1  0  0  0  0
 14 17  1  0  0  0  0
 17 18  1  0  0  0  0
 17 19  2  0  0  0  0
 20 21  2  0  0  0  0
 20 22  1  0  0  0  0
 22 23  1  0  0  0  0
 22 24  1  0  0  0  0
 24 25  1  0  0  0  0
 24 26  1  0  0  0  0
 24 27  1  0  0  0  0
M  CHG  1  18  -1
M  END
$$$$

  -OEChem-01062216073D

 27 26  0     1  0  0  0  0  0999 V2000
   -3.1538   -2.7999    1.3997 H   0  0  0  0  0  0  0  0  0  0  0  0
   -3.1145   -1.8284    0.8996 C   0  0  0  0  0  0  0  0  0  0  0  0
   -3.6668   -1.1008    1.4997 H   0  0  0  0  0  0  0  0  0  0  0  0
   -3.5898   -1.9155   -0.0806 H   0  0  0  0  0  0  0  0  0  0  0  0
   -1.6743   -1.3768    0.7381 C   0  0  0  0  0  0  0  0  0  0  0  0
   -0.7585   -2.1016    1.1052 O   0  0  0  0  0  0  0  0  0  0  0  0
   -1.4034   -0.1843    0.1019 N   0  0  0  0  0  0  0  0  0  0  0  0
   -2.2056    0.3889   -0.1493 H   0  0  0  0  0  0  0  0  0  0  0  0
   -0.1073    0.5085    0.1675 C   0  0  1  0  0  0  0  0  0  0  0  0
    0.6152   -0.0291   -0.4530 H   0  0  0  0  0  0  0  0  0  0  0  0
   -0.2977    1.9122   -0.4315 C   0  0  0  0  0  0  0  0  0  0  0  0
   -1.1134    2.4317    0.0835 H   0  0  0  0  0  0  0  0  0  0  0  0
    0.6145    2.5002   -0.2818 H   0  0  0  0  0  0  0  0  0  0  0  0
   -0.5968    1.8357   -1.9396 C   0  0  0  0  0  0  0  0  0  0  0  0
    0.2357    1.3509   -2.4581 H   0  0  0  0  0  0  0  0  0  0  0  0
   -1.4934    1.2365   -2.1214 H   0  0  0  0  0  0  0  0  0  0  0  0
   -0.8108    3.2270   -2.5298 C   0  0  0  0  0  0  0  0  0  0  0  0
   -1.9911    3.6542   -2.5820 O   0  5  0  0  0  0  0  0  0  0  0  0
    0.2007    3.8568   -2.9258 O   0  0  0  0  0  0  0  0  0  0  0  0
    0.4847    0.5789    1.5969 C   0  0  0  0  0  0  0  0  0  0  0  0
    0.0441    1.3618    2.4320 O   0  0  0  0  0  0  0  0  0  0  0  0
    1.5401   -0.2459    1.9397 N   0  0  0  0  0  0  0  0  0  0  0  0
    1.6320   -1.0714    1.3533 H   0  0  0  0  0  0  0  0  0  0  0  0
    2.0562   -0.3226    3.2987 C   0  0  0  0  0  0  0  0  0  0  0  0
    1.2797   -0.6793    3.9830 H   0  0  0  0  0  0  0  0  0  0  0  0
    2.9023   -1.0148    3.3396 H   0  0  0  0  0  0  0  0  0  0  0  0
    2.4001    0.6612    3.6343 H   0  0  0  0  0  0  0  0  0  0  0  0
  1  2  1  0  0  0  0
  2  3  1  0  0  0  0
  2  4  1  0  0  0  0
  2  5  1  0  0  0  0
  5  6  2  0  0  0  0
  5  7  1  0  0  0  0
  7  8  1  0  0  0  0
  7  9  1  0  0  0  0
  9 10  1  0  0  0  0
  9 11  1  0  0  0  0
  9 20  1  0  0  0  0
 11 12  1  0  0  0  0
 11 13  1  0  0  0  0
 11 14  1  0  0  0  0
 14 15  1  0  0  0  0
 14 16  1  0  0  0  0
 14 17  1  0  0  0  0
 17 18  1  0  0  0  0
 17 19  2  0  0  0  0
 20 21  2  0  0  0  0
 20 22  1  0  0  0  0
 22 23  1  0  0  0  0
 22 24  1  0  0  0  0
 24 25  1  0  0  0  0
 24 26  1  0  0  0  0
 24 27  1  0  0  0  0
M  CHG  1  18  -1
M  END
$$$$

  -OEChem-01062216073D

 27 26  0     1  0  0  0  0  0999 V2000
   -3.1360   -2.7927    1.4681 H   0  0  0  0  0  0  0  0  0  0  0  0
   -3.1106   -1.8368    0.9379 C   0  0  0  0  0  0  0  0  0  0  0  0
   -3.6522   -1.0926    1.5273 H   0  0  0  0  0  0  0  0  0  0  0  0
   -3.6056   -1.9550   -0.0293 H   0  0  0  0  0  0  0  0  0  0  0  0
   -1.6755   -1.3865    0.7336 C   0  0  0  0  0  0  0  0  0  0  0  0
   -0.7508   -2.1113    1.0768 O   0  0  0  0  0  0  0  0  0  0  0  0
   -1.4214   -0.1968    0.0845 N   0  0  0  0  0  0  0  0  0  0  0  0
   -2.2311    0.3806   -0.1282 H   0  0  0  0  0  0  0  0  0  0  0  0
   -0.1289    0.5018    0.1536 C   0  0  1  0  0  0  0  0  0  0  0  0
    0.5939   -0.0416   -0.4608 H   0  0  0  0  0  0  0  0  0  0  0  0
   -0.3029    1.9081   -0.4401 C   0  0  0  0  0  0  0  0  0  0  0  0
   -1.1175    2.4316    0.0726 H   0  0  0  0  0  0  0  0  0  0  0  0
    0.6131    2.4875   -0.2809 H   0  0  0  0  0  0  0  0  0  0  0  0
   -0.5917    1.8444   -1.9500 C   0  0  0  0  0  0  0  0  0  0  0  0
    0.2389    1.3558   -2.4680 H   0  0  0  0  0  0  0  0  0  0  0  0
   -1.4931    1.2546   -2.1401 H   0  0  0  0  0  0  0  0  0  0  0  0
   -0.7878    3.2431   -2.5297 C   0  0  0  0  0  0  0  0  0  0  0  0
   -1.9677    3.6404   -2.6965 O   0  5  0  0  0  0  0  0  0  0  0  0
    0.2410    3.9133   -2.7929 O   0  0  0  0  0  0  0  0  0  0  0  0
    0.4550    0.5851    1.5848 C   0  0  0  0  0  0  0  0  0  0  0  0
   -0.1585    1.1518    2.4839 O   0  0  0  0  0  0  0  0  0  0  0  0
    1.6856    0.0191    1.8635 N   0  0  0  0  0  0  0  0  0  0  0  0
    2.0509   -0.6160    1.1614 H   0  0  0  0  0  0  0  0  0  0  0  0
    2.2352   -0.0476    3.2095 C   0  0  0  0  0  0  0  0  0  0  0  0
    1.5794   -0.6337    3.8614 H   0  0  0  0  0  0  0  0  0  0  0  0
    3.2207   -0.5217    3.1893 H   0  0  0  0  0  0  0  0  0  0  0  0
    2.3452    0.9581    3.6282 H   0  0  0  0  0  0  0  0  0  0  0  0
  1  2  1  0  0  0  0
  2  3  1  0  0  0  0
  2  4  1  0  0  0  0
  2  5  1  0  0  0  0
  5  6  2  0  0  0  0
  5  7  1  0  0  0  0
  7  8  1  0  0  0  0
  7  9  1  0  0  0  0
  9 10  1  0  0  0  0
  9 11  1  0  0  0  0
  9 20  1  0  0  0  0
 11 12  1  0  0  0  0
 11 13  1  0  0  0  0
 11 14  1  0  0  0  0
 14 15  1  0  0  0  0
 14 16  1  0  0  0  0
 14 17  1  0  0  0  0
 17 18  1  0  0  0  0
 17 19  2  0  0  0  0
 20 21  2  0  0  0  0
 20 22  1  0  0  0  0
 22 23  1  0  0  0  0
 22 24  1  0  0  0  0
 24 25  1  0  0  0  0
 24 26  1  0  0  0  0
 24 27  1  0  0  0  0
M  CHG  1  18  -1
M  END
$$$$

  -OEChem-01062216073D

 27 26  0     1  0  0  0  0  0999 V2000
   -3.0763   -2.9275    1.2717 H   0  0  0  0  0  0  0  0  0  0  0  0
   -3.0654   -1.9390    0.8044 C   0  0  0  0  0  0  0  0  0  0  0  0
   -3.6287   -1.2456    1.4339 H   0  0  0  0  0  0  0  0  0  0  0  0
   -3.5476   -2.0047   -0.1741 H   0  0  0  0  0  0  0  0  0  0  0  0
   -1.6379   -1.4475    0.6465 C   0  0  0  0  0  0  0  0  0  0  0  0
   -0.7038   -2.1551    0.9992 O   0  0  0  0  0  0  0  0  0  0  0  0
   -1.3983   -0.2437    0.0179 N   0  0  0  0  0  0  0  0  0  0  0  0
   -2.2195    0.3149   -0.1996 H   0  0  0  0  0  0  0  0  0  0  0  0
   -0.1369    0.4980    0.1674 C   0  0  1  0  0  0  0  0  0  0  0  0
    0.6343   -0.0215   -0.4081 H   0  0  0  0  0  0  0  0  0  0  0  0
   -0.3201    1.9041   -0.4224 C   0  0  0  0  0  0  0  0  0  0  0  0
   -1.1804    2.3949    0.0463 H   0  0  0  0  0  0  0  0  0  0  0  0
    0.5651    2.5116   -0.2048 H   0  0  0  0  0  0  0  0  0  0  0  0
   -0.5172    1.8488   -1.9465 C   0  0  0  0  0  0  0  0  0  0  0  0
    0.3590    1.3928   -2.4171 H   0  0  0  0  0  0  0  0  0  0  0  0
   -1.3865    1.2345   -2.1980 H   0  0  0  0  0  0  0  0  0  0  0  0
   -0.7225    3.2492   -2.5183 C   0  0  0  0  0  0  0  0  0  0  0  0
    0.3005    3.8968   -2.8519 O   0  5  0  0  0  0  0  0  0  0  0  0
   -1.9020    3.6720   -2.6044 O   0  0  0  0  0  0  0  0  0  0  0  0
    0.3702    0.5944    1.6265 C   0  0  0  0  0  0  0  0  0  0  0  0
   -0.3885    0.9071    2.5393 O   0  0  0  0  0  0  0  0  0  0  0  0
    1.7035    0.3628    1.9119 N   0  0  0  0  0  0  0  0  0  0  0  0
    2.2854    0.0273    1.1519 H   0  0  0  0  0  0  0  0  0  0  0  0
    2.2443    0.3701    3.2629 C   0  0  0  0  0  0  0  0  0  0  0  0
    1.7446   -0.3850    3.8784 H   0  0  0  0  0  0  0  0  0  0  0  0
    3.3150    0.1462    3.2398 H   0  0  0  0  0  0  0  0  0  0  0  0
    2.1066    1.3530    3.7251 H   0  0  0  0  0  0  0  0  0  0  0  0
  1  2  1  0  0  0  0
  2  3  1  0  0  0  0
  2  4  1  0  0  0  0
  2  5  1  0  0  0  0
  5  6  2  0  0  0  0
  5  7  1  0  0  0  0
  7  8  1  0  0  0  0
  7  9  1  0  0  0  0
  9 10  1  0  0  0  0
  9 11  1  0  0  0  0
  9 20  1  0  0  0  0
 11 12  1  0  0  0  0
 11 13  1  0  0  0  0
 11 14  1  0  0  0  0
 14 15  1  0  0  0  0
 14 16  1  0  0  0  0
 14 17  1  0  0  0  0
 17 18  1  0  0  0  0
 17 19  2  0  0  0  0
 20 21  2  0  0  0  0
 20 22  1  0  0  0  0
 22 23  1  0  0  0  0
 22 24  1  0  0  0  0
 24 25  1  0  0  0  0
 24 26  1  0  0  0  0
 24 27  1  0  0  0  0
M  CHG  1  18  -1
M  END
$$$$

  -OEChem-01062216073D

 27 26  0     1  0  0  0  0  0999 V2000
   -3.1217   -2.9172    1.2994 H   0  0  0  0  0  0  0  0  0  0  0  0
   -3.0986   -1.9435    0.8025 C   0  0  0  0  0  0  0  0  0  0  0  0
   -3.6426   -1.2220    1.4175 H   0  0  0  0  0  0  0  0  0  0  0  0
   -3.5917   -2.0288   -0.1690 H   0  0  0  0  0  0  0  0  0  0  0  0
   -1.6645   -1.4819    0.6166 C   0  0  0  0  0  0  0  0  0  0  0  0
   -0.7383   -2.2185    0.9280 O   0  0  0  0  0  0  0  0  0  0  0  0
   -1.4133   -0.2745   -0.0008 N   0  0  0  0  0  0  0  0  0  0  0  0
   -2.2300    0.2979   -0.1964 H   0  0  0  0  0  0  0  0  0  0  0  0
   -0.1454    0.4530    0.1672 C   0  0  1  0  0  0  0  0  0  0  0  0
    0.6241   -0.0694   -0.4079 H   0  0  0  0  0  0  0  0  0  0  0  0
   -0.3118    1.8691   -0.4030 C   0  0  0  0  0  0  0  0  0  0  0  0
   -1.1694    2.3606    0.0697 H   0  0  0  0  0  0  0  0  0  0  0  0
    0.5776    2.4653   -0.1714 H   0  0  0  0  0  0  0  0  0  0  0  0
   -0.5006    1.8440   -1.9284 C   0  0  0  0  0  0  0  0  0  0  0  0
    0.3737    1.3895   -2.4039 H   0  0  0  0  0  0  0  0  0  0  0  0
   -1.3745    1.2430   -2.1959 H   0  0  0  0  0  0  0  0  0  0  0  0
   -0.6879    3.2589   -2.4691 C   0  0  0  0  0  0  0  0  0  0  0  0
    0.3467    3.9341   -2.6948 O   0  5  0  0  0  0  0  0  0  0  0  0
   -1.8641    3.6678   -2.6310 O   0  0  0  0  0  0  0  0  0  0  0  0
    0.3637    0.5394    1.6267 C   0  0  0  0  0  0  0  0  0  0  0  0
   -0.4161    0.6490    2.5687 O   0  0  0  0  0  0  0  0  0  0  0  0
    1.7230    0.6047    1.8744 N   0  0  0  0  0  0  0  0  0  0  0  0
    2.3427    0.5903    1.0708 H   0  0  0  0  0  0  0  0  0  0  0  0
    2.2893    0.7880    3.2024 C   0  0  0  0  0  0  0  0  0  0  0  0
    1.9542   -0.0087    3.8745 H   0  0  0  0  0  0  0  0  0  0  0  0
    3.3818    0.7604    3.1521 H   0  0  0  0  0  0  0  0  0  0  0  0
    1.9845    1.7540    3.6175 H   0  0  0  0  0  0  0  0  0  0  0  0
  1  2  1  0  0  0  0
  2  3  1  0  0  0  0
  2  4  1  0  0  0  0
  2  5  1  0  0  0  0
  5  6  2  0  0  0  0
  5  7  1  0  0  0  0
  7  8  1  0  0  0  0
  7  9  1  0  0  0  0
  9 10  1  0  0  0  0
  9 11  1  0  0  0  0
  9 20  1  0  0  0  0
 11 12  1  0  0  0  0
 11 13  1  0  0  0  0
 11 14  1  0  0  0  0
 14 15  1  0  0  0  0
 14 16  1  0  0  0  0
 14 17  1  0  0  0  0
 17 18  1  0  0  0  0
 17 19  2  0  0  0  0
 20 21  2  0  0  0  0
 20 22  1  0  0  0  0
 22 23  1  0  0  0  0
 22 24  1  0  0  0  0
 24 25  1  0  0  0  0
 24 26  1  0  0  0  0
 24 27  1  0  0  0  0
M  CHG  1  18  -1
M  END
$$$$

  -OEChem-01062216073D

 27 26  0     1  0  0  0  0  0999 V2000
   -3.1573   -2.9199    1.2675 H   0  0  0  0  0  0  0  0  0  0  0  0
   -3.1202   -1.9319    0.8006 C   0  0  0  0  0  0  0  0  0  0  0  0
   -3.6357   -1.2174    1.4474 H   0  0  0  0  0  0  0  0  0  0  0  0
   -3.6325   -1.9755   -0.1636 H   0  0  0  0  0  0  0  0  0  0  0  0
   -1.6791   -1.4973    0.6031 C   0  0  0  0  0  0  0  0  0  0  0  0
   -0.7645   -2.2619    0.8793 O   0  0  0  0  0  0  0  0  0  0  0  0
   -1.4117   -0.2879   -0.0041 N   0  0  0  0  0  0  0  0  0  0  0  0
   -2.2226    0.2966   -0.1875 H   0  0  0  0  0  0  0  0  0  0  0  0
   -0.1372    0.4265    0.1755 C   0  0  1  0  0  0  0  0  0  0  0  0
    0.6301   -0.0988   -0.4006 H   0  0  0  0  0  0  0  0  0  0  0  0
   -0.3011    1.8461   -0.3898 C   0  0  0  0  0  0  0  0  0  0  0  0
   -1.1597    2.3350    0.0836 H   0  0  0  0  0  0  0  0  0  0  0  0
    0.5863    2.4442   -0.1564 H   0  0  0  0  0  0  0  0  0  0  0  0
   -0.4871    1.8309   -1.9154 C   0  0  0  0  0  0  0  0  0  0  0  0
    0.3876    1.3796   -2.3930 H   0  0  0  0  0  0  0  0  0  0  0  0
   -1.3613    1.2333   -2.1893 H   0  0  0  0  0  0  0  0  0  0  0  0
   -0.6710    3.2511   -2.4431 C   0  0  0  0  0  0  0  0  0  0  0  0
    0.3628    3.9477   -2.5970 O   0  5  0  0  0  0  0  0  0  0  0  0
   -1.8435    3.6452   -2.6588 O   0  0  0  0  0  0  0  0  0  0  0  0
    0.3829    0.5103    1.6331 C   0  0  0  0  0  0  0  0  0  0  0  0
   -0.3746    0.4249    2.5957 O   0  0  0  0  0  0  0  0  0  0  0  0
    1.6984    0.8748    1.8600 N   0  0  0  0  0  0  0  0  0  0  0  0
    2.2575    1.1036    1.0437 H   0  0  0  0  0  0  0  0  0  0  0  0
    2.2306    1.1749    3.1812 C   0  0  0  0  0  0  0  0  0  0  0  0
    2.0970    0.3194    3.8513 H   0  0  0  0  0  0  0  0  0  0  0  0
    3.2998    1.3960    3.1133 H   0  0  0  0  0  0  0  0  0  0  0  0
    1.7218    2.0445    3.6096 H   0  0  0  0  0  0  0  0  0  0  0  0
  1  2  1  0  0  0  0
  2  3  1  0  0  0  0
  2  4  1  0  0  0  0
  2  5  1  0  0  0  0
  5  6  2  0  0  0  0
  5  7  1  0  0  0  0
  7  8  1  0  0  0  0
  7  9  1  0  0  0  0
  9 10  1  0  0  0  0
  9 11  1  0  0  0  0
  9 20  1  0  0  0  0
 11 12  1  0  0  0  0
 11 13  1  0  0  0  0
 11 14  1  0  0  0  0
 14 15  1  0  0  0  0
 14 16  1  0  0  0  0
 14 17  1  0  0  0  0
 17 18  1  0  0  0  0
 17 19  2  0  0  0  0
 20 21  2  0  0  0  0
 20 22  1  0  0  0  0
 22 23  1  0  0  0  0
 22 24  1  0  0  0  0
 24 25  1  0  0  0  0
 24 26  1  0  0  0  0
 24 27  1  0  0  0  0
M  CHG  1  18  -1
M  END
$$$$

  -OEChem-01062216073D

 27 26  0     1  0  0  0  0  0999 V2000
   -3.2571   -2.8736    1.1501 H   0  0  0  0  0  0  0  0  0  0  0  0
   -3.1637   -1.8440    0.7939 C   0  0  0  0  0  0  0  0  0  0  0  0
   -3.5438   -1.1692    1.5650 H   0  0  0  0  0  0  0  0  0  0  0  0
   -3.7638   -1.7265   -0.1119 H   0  0  0  0  0  0  0  0  0  0  0  0
   -1.7099   -1.5195    0.5011 C   0  0  0  0  0  0  0  0  0  0  0  0
   -0.8610   -2.3972    0.5735 O   0  0  0  0  0  0  0  0  0  0  0  0
   -1.3854   -0.2976   -0.0513 N   0  0  0  0  0  0  0  0  0  0  0  0
   -2.1789    0.3267   -0.1690 H   0  0  0  0  0  0  0  0  0  0  0  0
   -0.1006    0.3924    0.1762 C   0  0  1  0  0  0  0  0  0  0  0  0
    0.5990    0.0524   -0.5924 H   0  0  0  0  0  0  0  0  0  0  0  0
   -0.3719    1.8959   -0.0219 C   0  0  0  0  0  0  0  0  0  0  0  0
   -1.1895    2.2121    0.6356 H   0  0  0  0  0  0  0  0  0  0  0  0
    0.5109    2.4820    0.2527 H   0  0  0  0  0  0  0  0  0  0  0  0
   -0.7199    2.2263   -1.4821 C   0  0  0  0  0  0  0  0  0  0  0  0
    0.1132    1.9515   -2.1355 H   0  0  0  0  0  0  0  0  0  0  0  0
   -1.5985    1.6621   -1.8076 H   0  0  0  0  0  0  0  0  0  0  0  0
   -1.0042    3.7182   -1.6297 C   0  0  0  0  0  0  0  0  0  0  0  0
   -0.0152    4.4899   -1.6893 O   0  5  0  0  0  0  0  0  0  0  0  0
   -2.2051    4.0835   -1.6400 O   0  0  0  0  0  0  0  0  0  0  0  0
    0.6263    0.1698    1.5342 C   0  0  0  0  0  0  0  0  0  0  0  0
    0.0602   -0.2999    2.5163 O   0  0  0  0  0  0  0  0  0  0  0  0
    1.8352    0.8100    1.7535 N   0  0  0  0  0  0  0  0  0  0  0  0
    2.1775    1.3996    1.0001 H   0  0  0  0  0  0  0  0  0  0  0  0
    2.4592    0.9273    3.0642 C   0  0  0  0  0  0  0  0  0  0  0  0
    2.6199   -0.0631    3.5023 H   0  0  0  0  0  0  0  0  0  0  0  0
    3.4288    1.4258    2.9743 H   0  0  0  0  0  0  0  0  0  0  0  0
    1.8268    1.5149    3.7374 H   0  0  0  0  0  0  0  0  0  0  0  0
  1  2  1  0  0  0  0
  2  3  1  0  0  0  0
  2  4  1  0  0  0  0
  2  5  1  0  0  0  0
  5  6  2  0  0  0  0
  5  7  1  0  0  0  0
  7  8  1  0  0  0  0
  7  9  1  0  0  0  0
  9 10  1  0  0  0  0
  9 11  1  0  0  0  0
  9 20  1  0  0  0  0
 11 12  1  0  0  0  0
 11 13  1  0  0  0  0
 11 14  1  0  0  0  0
 14 15  1  0  0  0  0
 14 16  1  0  0  0  0
 14 17  1  0  0  0  0
 17 18  1  0  0  0  0
 17 19  2  0  0  0  0
 20 21  2  0  0  0  0
 20 22  1  0  0  0  0
 22 23  1  0  0  0  0
 22 24  1  0  0  0  0
 24 25  1  0  0  0  0
 24 26  1  0  0  0  0
 24 27  1  0  0  0  0
M  CHG  1  18  -1
M  END
$$$$

  -OEChem-01062216073D

 27 26  0     1  0  0  0  0  0999 V2000
   -3.2505   -2.8434    1.1606 H   0  0  0  0  0  0  0  0  0  0  0  0
   -3.1413   -1.8079    0.8269 C   0  0  0  0  0  0  0  0  0  0  0  0
   -3.4717   -1.1432    1.6292 H   0  0  0  0  0  0  0  0  0  0  0  0
   -3.7724   -1.6497   -0.0511 H   0  0  0  0  0  0  0  0  0  0  0  0
   -1.6910   -1.5169    0.4851 C   0  0  0  0  0  0  0  0  0  0  0  0
   -0.8704   -2.4234    0.4871 O   0  0  0  0  0  0  0  0  0  0  0  0
   -1.3547   -0.2941   -0.0579 N   0  0  0  0  0  0  0  0  0  0  0  0
   -2.1474    0.3319   -0.1717 H   0  0  0  0  0  0  0  0  0  0  0  0
   -0.0738    0.4038    0.1779 C   0  0  1  0  0  0  0  0  0  0  0  0
    0.6337    0.0702   -0.5866 H   0  0  0  0  0  0  0  0  0  0  0  0
   -0.3812    1.9013   -0.0411 C   0  0  0  0  0  0  0  0  0  0  0  0
   -1.2087    2.2058    0.6096 H   0  0  0  0  0  0  0  0  0  0  0  0
    0.4833    2.5173    0.2228 H   0  0  0  0  0  0  0  0  0  0  0  0
   -0.7268    2.2140   -1.5056 C   0  0  0  0  0  0  0  0  0  0  0  0
    0.1174    1.9556   -2.1517 H   0  0  0  0  0  0  0  0  0  0  0  0
   -1.5902    1.6289   -1.8350 H   0  0  0  0  0  0  0  0  0  0  0  0
   -1.0442    3.6989   -1.6582 C   0  0  0  0  0  0  0  0  0  0  0  0
   -0.0732    4.4925   -1.7248 O   0  5  0  0  0  0  0  0  0  0  0  0
   -2.2527    4.0382   -1.6465 O   0  0  0  0  0  0  0  0  0  0  0  0
    0.6596    0.1955    1.5410 C   0  0  0  0  0  0  0  0  0  0  0  0
    0.2171   -0.5095    2.4405 O   0  0  0  0  0  0  0  0  0  0  0  0
    1.6806    1.0620    1.8993 N   0  0  0  0  0  0  0  0  0  0  0  0
    1.9144    1.7894    1.2290 H   0  0  0  0  0  0  0  0  0  0  0  0
    2.2440    1.1465    3.2402 C   0  0  0  0  0  0  0  0  0  0  0  0
    2.6347    0.1732    3.5546 H   0  0  0  0  0  0  0  0  0  0  0  0
    3.0656    1.8686    3.2567 H   0  0  0  0  0  0  0  0  0  0  0  0
    1.4818    1.4712    3.9558 H   0  0  0  0  0  0  0  0  0  0  0  0
  1  2  1  0  0  0  0
  2  3  1  0  0  0  0
  2  4  1  0  0  0  0
  2  5  1  0  0  0  0
  5  6  2  0  0  0  0
  5  7  1  0  0  0  0
  7  8  1  0  0  0  0
  7  9  1  0  0  0  0
  9 10  1  0  0  0  0
  9 11  1  0  0  0  0
  9 20  1  0  0  0  0
 11 12  1  0  0  0  0
 11 13  1  0  0  0  0
 11 14  1  0  0  0  0
 14 15  1  0  0  0  0
 14 16  1  0  0  0  0
 14 17  1  0  0  0  0
 17 18  1  0  0  0  0
 17 19  2  0  0  0  0
 20 21  2  0  0  0  0
 20 22  1  0  0  0  0
 22 23  1  0  0  0  0
 22 24  1  0  0  0  0
 24 25  1  0  0  0  0
 24 26  1  0  0  0  0
 24 27  1  0  0  0  0
M  CHG  1  18  -1
M  END
$$$$

  -OEChem-01062216073D

 27 26  0     1  0  0  0  0  0999 V2000
   -3.2328   -2.8142    1.1967 H   0  0  0  0  0  0  0  0  0  0  0  0
   -3.1204   -1.7846    0.8460 C   0  0  0  0  0  0  0  0  0  0  0  0
   -3.4365   -1.1062    1.6423 H   0  0  0  0  0  0  0  0  0  0  0  0
   -3.7607   -1.6350   -0.0268 H   0  0  0  0  0  0  0  0  0  0  0  0
   -1.6723   -1.5101    0.4822 C   0  0  0  0  0  0  0  0  0  0  0  0
   -0.8766   -2.4357    0.4322 O   0  0  0  0  0  0  0  0  0  0  0  0
   -1.3325   -0.2845   -0.0521 N   0  0  0  0  0  0  0  0  0  0  0  0
   -2.1303    0.3323   -0.1806 H   0  0  0  0  0  0  0  0  0  0  0  0
   -0.0659    0.4375    0.1954 C   0  0  1  0  0  0  0  0  0  0  0  0
    0.6577    0.1092   -0.5562 H   0  0  0  0  0  0  0  0  0  0  0  0
   -0.4051    1.9236   -0.0588 C   0  0  0  0  0  0  0  0  0  0  0  0
   -1.2466    2.2241    0.5755 H   0  0  0  0  0  0  0  0  0  0  0  0
    0.4440    2.5633    0.1966 H   0  0  0  0  0  0  0  0  0  0  0  0
   -0.7332    2.2053   -1.5334 C   0  0  0  0  0  0  0  0  0  0  0  0
    0.1269    1.9581   -2.1626 H   0  0  0  0  0  0  0  0  0  0  0  0
   -1.5776    1.5965   -1.8690 H   0  0  0  0  0  0  0  0  0  0  0  0
   -1.0812    3.6808   -1.7068 C   0  0  0  0  0  0  0  0  0  0  0  0
   -0.1281    4.4968   -1.7568 O   0  5  0  0  0  0  0  0  0  0  0  0
   -2.2971    3.9924   -1.7093 O   0  0  0  0  0  0  0  0  0  0  0  0
    0.6613    0.2512    1.5696 C   0  0  0  0  0  0  0  0  0  0  0  0
    0.4646   -0.6940    2.3211 O   0  0  0  0  0  0  0  0  0  0  0  0
    1.4300    1.2783    2.0959 N   0  0  0  0  0  0  0  0  0  0  0  0
    1.5072    2.1252    1.5393 H   0  0  0  0  0  0  0  0  0  0  0  0
    2.0021    1.2710    3.4359 C   0  0  0  0  0  0  0  0  0  0  0  0
    2.6557    0.4028    3.5696 H   0  0  0  0  0  0  0  0  0  0  0  0
    2.5950    2.1765    3.5950 H   0  0  0  0  0  0  0  0  0  0  0  0
    1.2091    1.2381    4.1900 H   0  0  0  0  0  0  0  0  0  0  0  0
  1  2  1  0  0  0  0
  2  3  1  0  0  0  0
  2  4  1  0  0  0  0
  2  5  1  0  0  0  0
  5  6  2  0  0  0  0
  5  7  1  0  0  0  0
  7  8  1  0  0  0  0
  7  9  1  0  0  0  0
  9 10  1  0  0  0  0
  9 11  1  0  0  0  0
  9 20  1  0  0  0  0
 11 12  1  0  0  0  0
 11 13  1  0  0  0  0
 11 14  1  0  0  0  0
 14 15  1  0  0  0  0
 14 16  1  0  0  0  0
 14 17  1  0  0  0  0
 17 18  1  0  0  0  0
 17 19  2  0  0  0  0
 20 21  2  0  0  0  0
 20 22  1  0  0  0  0
 22 23  1  0  0  0  0
 22 24  1  0  0  0  0
 24 25  1  0  0  0  0
 24 26  1  0  0  0  0
 24 27  1  0  0  0  0
M  CHG  1  18  -1
M  END
$$$$

  -OEChem-01062216073D

 27 26  0     1  0  0  0  0  0999 V2000
   -3.3896   -2.7510    1.1392 H   0  0  0  0  0  0  0  0  0  0  0  0
   -3.2212   -1.7695    0.6869 C   0  0  0  0  0  0  0  0  0  0  0  0
   -3.6889   -1.0083    1.3164 H   0  0  0  0  0  0  0  0  0  0  0  0
   -3.6869   -1.7504   -0.3017 H   0  0  0  0  0  0  0  0  0  0  0  0
   -1.7325   -1.4948    0.5644 C   0  0  0  0  0  0  0  0  0  0  0  0
   -0.9505   -2.4124    0.7383 O   0  0  0  0  0  0  0  0  0  0  0  0
   -1.3336   -0.2828    0.0377 N   0  0  0  0  0  0  0  0  0  0  0  0
   -2.1093    0.3124   -0.2414 H   0  0  0  0  0  0  0  0  0  0  0  0
   -0.0738    0.4551    0.2779 C   0  0  1  0  0  0  0  0  0  0  0  0
    0.6625    0.1157   -0.4567 H   0  0  0  0  0  0  0  0  0  0  0  0
   -0.4260    1.9297   -0.0200 C   0  0  0  0  0  0  0  0  0  0  0  0
   -1.2718    2.2443    0.6019 H   0  0  0  0  0  0  0  0  0  0  0  0
    0.4232    2.5770    0.2188 H   0  0  0  0  0  0  0  0  0  0  0  0
   -0.7449    2.1703   -1.5040 C   0  0  0  0  0  0  0  0  0  0  0  0
    0.1237    1.9176   -2.1191 H   0  0  0  0  0  0  0  0  0  0  0  0
   -1.5797    1.5439   -1.8312 H   0  0  0  0  0  0  0  0  0  0  0  0
   -1.1071    3.6373   -1.7186 C   0  0  0  0  0  0  0  0  0  0  0  0
   -0.1679    4.4699   -1.7440 O   0  5  0  0  0  0  0  0  0  0  0  0
   -2.3274    3.9264   -1.7730 O   0  0  0  0  0  0  0  0  0  0  0  0
    0.6408    0.3054    1.6608 C   0  0  0  0  0  0  0  0  0  0  0  0
    0.8841   -0.7726    2.1813 O   0  0  0  0  0  0  0  0  0  0  0  0
    1.1301    1.4186    2.3278 N   0  0  0  0  0  0  0  0  0  0  0  0
    0.9639    2.3240    1.8969 H   0  0  0  0  0  0  0  0  0  0  0  0
    1.8558    1.3671    3.5899 C   0  0  0  0  0  0  0  0  0  0  0  0
    2.7885    0.8061    3.4724 H   0  0  0  0  0  0  0  0  0  0  0  0
    2.1006    2.3800    3.9230 H   0  0  0  0  0  0  0  0  0  0  0  0
    1.2472    0.8869    4.3629 H   0  0  0  0  0  0  0  0  0  0  0  0
  1  2  1  0  0  0  0
  2  3  1  0  0  0  0
  2  4  1  0  0  0  0
  2  5  1  0  0  0  0
  5  6  2  0  0  0  0
  5  7  1  0  0  0  0
  7  8  1  0  0  0  0
  7  9  1  0  0  0  0
  9 10  1  0  0  0  0
  9 11  1  0  0  0  0
  9 20  1  0  0  0  0
 11 12  1  0  0  0  0
 11 13  1  0  0  0  0
 11 14  1  0  0  0  0
 14 15  1  0  0  0  0
 14 16  1  0  0  0  0
 14 17  1  0  0  0  0
 17 18  1  0  0  0  0
 17 19  2  0  0  0  0
 20 21  2  0  0  0  0
 20 22  1  0  0  0  0
 22 23  1  0  0  0  0
 22 24  1  0  0  0  0
 24 25  1  0  0  0  0
 24 26  1  0  0  0  0
 24 27  1  0  0  0  0
M  CHG  1  18  -1
M  END
$$$$

  -OEChem-01062216073D

 27 26  0     1  0  0  0  0  0999 V2000
   -3.5619   -2.7932    0.9043 H   0  0  0  0  0  0  0  0  0  0  0  0
   -3.2928   -1.8859    0.3561 C   0  0  0  0  0  0  0  0  0  0  0  0
   -4.0338   -1.1120    0.5722 H   0  0  0  0  0  0  0  0  0  0  0  0
   -3.3067   -2.1038   -0.7147 H   0  0  0  0  0  0  0  0  0  0  0  0
   -1.9103   -1.4105    0.7685 C   0  0  0  0  0  0  0  0  0  0  0  0
   -1.2809   -2.0793    1.5656 O   0  0  0  0  0  0  0  0  0  0  0  0
   -1.4445   -0.2313    0.2203 N   0  0  0  0  0  0  0  0  0  0  0  0
   -2.0896    0.2235   -0.4211 H   0  0  0  0  0  0  0  0  0  0  0  0
   -0.1539    0.4670    0.4070 C   0  0  1  0  0  0  0  0  0  0  0  0
    0.5535    0.0816   -0.3337 H   0  0  0  0  0  0  0  0  0  0  0  0
   -0.4481    1.9455    0.0768 C   0  0  0  0  0  0  0  0  0  0  0  0
   -1.2702    2.3116    0.7022 H   0  0  0  0  0  0  0  0  0  0  0  0
    0.4354    2.5565    0.2912 H   0  0  0  0  0  0  0  0  0  0  0  0
   -0.7909    2.1521   -1.4086 C   0  0  0  0  0  0  0  0  0  0  0  0
    0.0528    1.8419   -2.0321 H   0  0  0  0  0  0  0  0  0  0  0  0
   -1.6573    1.5503   -1.6968 H   0  0  0  0  0  0  0  0  0  0  0  0
   -1.0975    3.6237   -1.6740 C   0  0  0  0  0  0  0  0  0  0  0  0
   -0.1326    4.4257   -1.7043 O   0  5  0  0  0  0  0  0  0  0  0  0
   -2.3053    3.9458   -1.7875 O   0  0  0  0  0  0  0  0  0  0  0  0
    0.5820    0.3144    1.7700 C   0  0  0  0  0  0  0  0  0  0  0  0
    1.2559   -0.6828    1.9976 O   0  0  0  0  0  0  0  0  0  0  0  0
    0.8507    1.4231    2.5581 N   0  0  0  0  0  0  0  0  0  0  0  0
    0.4348    2.3027    2.2652 H   0  0  0  0  0  0  0  0  0  0  0  0
    1.7839    1.4255    3.6761 C   0  0  0  0  0  0  0  0  0  0  0  0
    2.8051    1.2526    3.3214 H   0  0  0  0  0  0  0  0  0  0  0  0
    1.7526    2.3918    4.1881 H   0  0  0  0  0  0  0  0  0  0  0  0
    1.5211    0.6445    4.3971 H   0  0  0  0  0  0  0  0  0  0  0  0
  1  2  1  0  0  0  0
  2  3  1  0  0  0  0
  2  4  1  0  0  0  0
  2  5  1  0  0  0  0
  5  6  2  0  0  0  0
  5  7  1  0  0  0  0
  7  8  1  0  0  0  0
  7  9  1  0  0  0  0
  9 10  1  0  0  0  0
  9 11  1  0  0  0  0
  9 20  1  0  0  0  0
 11 12  1  0  0  0  0
 11 13  1  0  0  0  0
 11 14  1  0  0  0  0
 14 15  1  0  0  0  0
 14 16  1  0  0  0  0
 14 17  1  0  0  0  0
 17 18  1  0  0  0  0
 17 19  2  0  0  0  0
 20 21  2  0  0  0  0
 20 22  1  0  0  0  0
 22 23  1  0  0  0  0
 22 24  1  0  0  0  0
 24 25  1  0  0  0  0
 24 26  1  0  0  0  0
 24 27  1  0  0  0  0
M  CHG  1  18  -1
M  END
$$$$

  -OEChem-01062216073D

 27 26  0     1  0  0  0  0  0999 V2000
   -3.5159   -2.8291    0.9660 H   0  0  0  0  0  0  0  0  0  0  0  0
   -3.2987   -1.8929    0.4437 C   0  0  0  0  0  0  0  0  0  0  0  0
   -4.0462   -1.1487    0.7299 H   0  0  0  0  0  0  0  0  0  0  0  0
   -3.3643   -2.0676   -0.6332 H   0  0  0  0  0  0  0  0  0  0  0  0
   -1.9090   -1.3971    0.8048 C   0  0  0  0  0  0  0  0  0  0  0  0
   -1.2449   -2.0427    1.5942 O   0  0  0  0  0  0  0  0  0  0  0  0
   -1.4672   -0.2224    0.2280 N   0  0  0  0  0  0  0  0  0  0  0  0
   -2.1227    0.2203   -0.4104 H   0  0  0  0  0  0  0  0  0  0  0  0
   -0.1624    0.4576    0.3680 C   0  0  1  0  0  0  0  0  0  0  0  0
    0.5144    0.0673   -0.3986 H   0  0  0  0  0  0  0  0  0  0  0  0
   -0.4279    1.9477    0.0760 C   0  0  0  0  0  0  0  0  0  0  0  0
   -1.2168    2.3159    0.7415 H   0  0  0  0  0  0  0  0  0  0  0  0
    0.4792    2.5283    0.2769 H   0  0  0  0  0  0  0  0  0  0  0  0
   -0.8261    2.1966   -1.3933 C   0  0  0  0  0  0  0  0  0  0  0  0
   -0.0163    1.8570   -2.0460 H   0  0  0  0  0  0  0  0  0  0  0  0
   -1.7235    1.6234   -1.6393 H   0  0  0  0  0  0  0  0  0  0  0  0
   -1.1177    3.6711   -1.6962 C   0  0  0  0  0  0  0  0  0  0  0  0
   -1.2590    4.4717   -0.7370 O   0  5  0  0  0  0  0  0  0  0  0  0
   -1.2423    3.9783   -2.9061 O   0  0  0  0  0  0  0  0  0  0  0  0
    0.5990    0.2817    1.7105 C   0  0  0  0  0  0  0  0  0  0  0  0
    1.4225   -0.6181    1.8317 O   0  0  0  0  0  0  0  0  0  0  0  0
    0.6408    1.3073    2.6417 N   0  0  0  0  0  0  0  0  0  0  0  0
    0.0728    2.1271    2.4451 H   0  0  0  0  0  0  0  0  0  0  0  0
    1.5145    1.3138    3.8061 C   0  0  0  0  0  0  0  0  0  0  0  0
    2.5641    1.3454    3.4968 H   0  0  0  0  0  0  0  0  0  0  0  0
    1.3080    2.1919    4.4250 H   0  0  0  0  0  0  0  0  0  0  0  0
    1.3500    0.4175    4.4130 H   0  0  0  0  0  0  0  0  0  0  0  0
  1  2  1  0  0  0  0
  2  3  1  0  0  0  0
  2  4  1  0  0  0  0
  2  5  1  0  0  0  0
  5  6  2  0  0  0  0
  5  7  1  0  0  0  0
  7  8  1  0  0  0  0
  7  9  1  0  0  0  0
  9 10  1  0  0  0  0
  9 11  1  0  0  0  0
  9 20  1  0  0  0  0
 11 12  1  0  0  0  0
 11 13  1  0  0  0  0
 11 14  1  0  0  0  0
 14 15  1  0  0  0  0
 14 16  1  0  0  0  0
 14 17  1  0  0  0  0
 17 18  1  0  0  0  0
 17 19  2  0  0  0  0
 20 21  2  0  0  0  0
 20 22  1  0  0  0  0
 22 23  1  0  0  0  0
 22 24  1  0  0  0  0
 24 25  1  0  0  0  0
 24 26  1  0  0  0  0
 24 27  1  0  0  0  0
M  CHG  1  18  -1
M  END
$$$$

  -OEChem-01062216073D

 27 26  0     1  0  0  0  0  0999 V2000
   -3.5093   -2.8031    1.0714 H   0  0  0  0  0  0  0  0  0  0  0  0
   -3.3073   -1.8778    0.5244 C   0  0  0  0  0  0  0  0  0  0  0  0
   -4.0239   -1.1168    0.8437 H   0  0  0  0  0  0  0  0  0  0  0  0
   -3.4383   -2.0648   -0.5444 H   0  0  0  0  0  0  0  0  0  0  0  0
   -1.8907   -1.4024    0.7974 C   0  0  0  0  0  0  0  0  0  0  0  0
   -1.1799   -2.0620    1.5339 O   0  0  0  0  0  0  0  0  0  0  0  0
   -1.4650   -0.2327    0.1999 N   0  0  0  0  0  0  0  0  0  0  0  0
   -2.1520    0.2385   -0.3835 H   0  0  0  0  0  0  0  0  0  0  0  0
   -0.1549    0.4399    0.3149 C   0  0  1  0  0  0  0  0  0  0  0  0
    0.5088    0.0501   -0.4635 H   0  0  0  0  0  0  0  0  0  0  0  0
   -0.4217    1.9317    0.0391 C   0  0  0  0  0  0  0  0  0  0  0  0
   -1.1980    2.3042    0.7167 H   0  0  0  0  0  0  0  0  0  0  0  0
    0.4916    2.5063    0.2304 H   0  0  0  0  0  0  0  0  0  0  0  0
   -0.8497    2.1836   -1.4167 C   0  0  0  0  0  0  0  0  0  0  0  0
   -0.0601    1.8539   -2.0988 H   0  0  0  0  0  0  0  0  0  0  0  0
   -1.7558    1.6215   -1.6581 H   0  0  0  0  0  0  0  0  0  0  0  0
   -1.1274    3.6689   -1.6337 C   0  0  0  0  0  0  0  0  0  0  0  0
   -2.2080    4.1143   -1.1731 O   0  5  0  0  0  0  0  0  0  0  0  0
   -0.2621    4.3545   -2.2292 O   0  0  0  0  0  0  0  0  0  0  0  0
    0.6154    0.2612    1.6482 C   0  0  0  0  0  0  0  0  0  0  0  0
    1.5731   -0.5020    1.7057 O   0  0  0  0  0  0  0  0  0  0  0  0
    0.4247    1.1484    2.6941 N   0  0  0  0  0  0  0  0  0  0  0  0
   -0.3005    1.8491    2.5743 H   0  0  0  0  0  0  0  0  0  0  0  0
    1.2369    1.1642    3.9014 C   0  0  0  0  0  0  0  0  0  0  0  0
    2.2800    1.3901    3.6576 H   0  0  0  0  0  0  0  0  0  0  0  0
    0.8684    1.9286    4.5916 H   0  0  0  0  0  0  0  0  0  0  0  0
    1.1920    0.1929    4.4044 H   0  0  0  0  0  0  0  0  0  0  0  0
  1  2  1  0  0  0  0
  2  3  1  0  0  0  0
  2  4  1  0  0  0  0
  2  5  1  0  0  0  0
  5  6  2  0  0  0  0
  5  7  1  0  0  0  0
  7  8  1  0  0  0  0
  7  9  1  0  0  0  0
  9 10  1  0  0  0  0
  9 11  1  0  0  0  0
  9 20  1  0  0  0  0
 11 12  1  0  0  0  0
 11 13  1  0  0  0  0
 11 14  1  0  0  0  0
 14 15  1  0  0  0  0
 14 16  1  0  0  0  0
 14 17  1  0  0  0  0
 17 18  1  0  0  0  0
 17 19  2  0  0  0  0
 20 21  2  0  0  0  0
 20 22  1  0  0  0  0
 22 23  1  0  0  0  0
 22 24  1  0  0  0  0
 24 25  1  0  0  0  0
 24 26  1  0  0  0  0
 24 27  1  0  0  0  0
M  CHG  1  18  -1
M  END
$$$$

  -OEChem-01062216073D

 27 26  0     1  0  0  0  0  0999 V2000
   -3.4712   -2.7914    1.1148 H   0  0  0  0  0  0  0  0  0  0  0  0
   -3.2835   -1.8663    0.5627 C   0  0  0  0  0  0  0  0  0  0  0  0
   -3.9898   -1.1042    0.9015 H   0  0  0  0  0  0  0  0  0  0  0  0
   -3.4441   -2.0526   -0.5021 H   0  0  0  0  0  0  0  0  0  0  0  0
   -1.8596   -1.3931    0.7963 C   0  0  0  0  0  0  0  0  0  0  0  0
   -1.1274   -2.0499    1.5152 O   0  0  0  0  0  0  0  0  0  0  0  0
   -1.4456   -0.2276    0.1831 N   0  0  0  0  0  0  0  0  0  0  0  0
   -2.1413    0.2425   -0.3914 H   0  0  0  0  0  0  0  0  0  0  0  0
   -0.1342    0.4443    0.2816 C   0  0  1  0  0  0  0  0  0  0  0  0
    0.5231    0.0573   -0.5035 H   0  0  0  0  0  0  0  0  0  0  0  0
   -0.4053    1.9368    0.0214 C   0  0  0  0  0  0  0  0  0  0  0  0
   -1.1702    2.3056    0.7137 H   0  0  0  0  0  0  0  0  0  0  0  0
    0.5112    2.5090    0.2042 H   0  0  0  0  0  0  0  0  0  0  0  0
   -0.8569    2.1936   -1.4272 C   0  0  0  0  0  0  0  0  0  0  0  0
   -0.0773    1.8663   -2.1218 H   0  0  0  0  0  0  0  0  0  0  0  0
   -1.7655    1.6304   -1.6563 H   0  0  0  0  0  0  0  0  0  0  0  0
   -1.1421    3.6778   -1.6417 C   0  0  0  0  0  0  0  0  0  0  0  0
   -2.2122    4.1217   -1.1555 O   0  5  0  0  0  0  0  0  0  0  0  0
   -0.3017    4.3606   -2.2751 O   0  0  0  0  0  0  0  0  0  0  0  0
    0.6384    0.2687    1.6112 C   0  0  0  0  0  0  0  0  0  0  0  0
    1.7091   -0.3283    1.6274 O   0  0  0  0  0  0  0  0  0  0  0  0
    0.2403    0.9544    2.7454 N   0  0  0  0  0  0  0  0  0  0  0  0
   -0.6301    1.4727    2.6851 H   0  0  0  0  0  0  0  0  0  0  0  0
    0.9488    0.8942    4.0146 C   0  0  0  0  0  0  0  0  0  0  0  0
    1.9638    1.2894    3.9047 H   0  0  0  0  0  0  0  0  0  0  0  0
    0.4240    1.4905    4.7666 H   0  0  0  0  0  0  0  0  0  0  0  0
    1.0068   -0.1397    4.3705 H   0  0  0  0  0  0  0  0  0  0  0  0
  1  2  1  0  0  0  0
  2  3  1  0  0  0  0
  2  4  1  0  0  0  0
  2  5  1  0  0  0  0
  5  6  2  0  0  0  0
  5  7  1  0  0  0  0
  7  8  1  0  0  0  0
  7  9  1  0  0  0  0
  9 10  1  0  0  0  0
  9 11  1  0  0  0  0
  9 20  1  0  0  0  0
 11 12  1  0  0  0  0
 11 13  1  0  0  0  0
 11 14  1  0  0  0  0
 14 15  1  0  0  0  0
 14 16  1  0  0  0  0
 14 17  1  0  0  0  0
 17 18  1  0  0  0  0
 17 19  2  0  0  0  0
 20 21  2  0  0  0  0
 20 22  1  0  0  0  0
 22 23  1  0  0  0  0
 22 24  1  0  0  0  0
 24 25  1  0  0  0  0
 24 26  1  0  0  0  0
 24 27  1  0  0  0  0
M  CHG  1  18  -1
M  END
$$$$

  -OEChem-01062216073D

 27 26  0     1  0  0  0  0  0999 V2000
   -3.4549   -2.7805    1.1366 H   0  0  0  0  0  0  0  0  0  0  0  0
   -3.2722   -1.8583    0.5777 C   0  0  0  0  0  0  0  0  0  0  0  0
   -3.9781   -1.0956    0.9161 H   0  0  0  0  0  0  0  0  0  0  0  0
   -3.4394   -2.0519   -0.4848 H   0  0  0  0  0  0  0  0  0  0  0  0
   -1.8478   -1.3808    0.7993 C   0  0  0  0  0  0  0  0  0  0  0  0
   -1.1080   -2.0318    1.5163 O   0  0  0  0  0  0  0  0  0  0  0  0
   -1.4358   -0.2202    0.1755 N   0  0  0  0  0  0  0  0  0  0  0  0
   -2.1333    0.2479   -0.3988 H   0  0  0  0  0  0  0  0  0  0  0  0
   -0.1232    0.4524    0.2666 C   0  0  1  0  0  0  0  0  0  0  0  0
    0.5322    0.0658   -0.5204 H   0  0  0  0  0  0  0  0  0  0  0  0
   -0.3974    1.9443    0.0122 C   0  0  0  0  0  0  0  0  0  0  0  0
   -1.1555    2.3115    0.7126 H   0  0  0  0  0  0  0  0  0  0  0  0
    0.5202    2.5170    0.1886 H   0  0  0  0  0  0  0  0  0  0  0  0
   -0.8597    2.2009   -1.4337 C   0  0  0  0  0  0  0  0  0  0  0  0
   -0.0841    1.8741   -2.1330 H   0  0  0  0  0  0  0  0  0  0  0  0
   -1.7689    1.6362   -1.6565 H   0  0  0  0  0  0  0  0  0  0  0  0
   -1.1499    3.6840   -1.6502 C   0  0  0  0  0  0  0  0  0  0  0  0
   -2.2115    4.1296   -1.1466 O   0  5  0  0  0  0  0  0  0  0  0  0
   -0.3286    4.3615   -2.3137 O   0  0  0  0  0  0  0  0  0  0  0  0
    0.6535    0.2904    1.5943 C   0  0  0  0  0  0  0  0  0  0  0  0
    1.8138   -0.1055    1.5869 O   0  0  0  0  0  0  0  0  0  0  0  0
    0.0971    0.7283    2.7826 N   0  0  0  0  0  0  0  0  0  0  0  0
   -0.8809    0.9951    2.7491 H   0  0  0  0  0  0  0  0  0  0  0  0
    0.7438    0.5674    4.0755 C   0  0  0  0  0  0  0  0  0  0  0  0
    1.7112    1.0800    4.0872 H   0  0  0  0  0  0  0  0  0  0  0  0
    0.1176    0.9948    4.8640 H   0  0  0  0  0  0  0  0  0  0  0  0
    0.9014   -0.4940    4.2925 H   0  0  0  0  0  0  0  0  0  0  0  0
  1  2  1  0  0  0  0
  2  3  1  0  0  0  0
  2  4  1  0  0  0  0
  2  5  1  0  0  0  0
  5  6  2  0  0  0  0
  5  7  1  0  0  0  0
  7  8  1  0  0  0  0
  7  9  1  0  0  0  0
  9 10  1  0  0  0  0
  9 11  1  0  0  0  0
  9 20  1  0  0  0  0
 11 12  1  0  0  0  0
 11 13  1  0  0  0  0
 11 14  1  0  0  0  0
 14 15  1  0  0  0  0
 14 16  1  0  0  0  0
 14 17  1  0  0  0  0
 17 18  1  0  0  0  0
 17 19  2  0  0  0  0
 20 21  2  0  0  0  0
 20 22  1  0  0  0  0
 22 23  1  0  0  0  0
 22 24  1  0  0  0  0
 24 25  1  0  0  0  0
 24 26  1  0  0  0  0
 24 27  1  0  0  0  0
M  CHG  1  18  -1
M  END
$$$$

  -OEChem-01062216073D

 27 26  0     1  0  0  0  0  0999 V2000
   -3.4864   -2.7509    1.1364 H   0  0  0  0  0  0  0  0  0  0  0  0
   -3.2877   -1.8419    0.5615 C   0  0  0  0  0  0  0  0  0  0  0  0
   -3.9882   -1.0652    0.8789 H   0  0  0  0  0  0  0  0  0  0  0  0
   -3.4474   -2.0537   -0.4987 H   0  0  0  0  0  0  0  0  0  0  0  0
   -1.8600   -1.3763    0.7864 C   0  0  0  0  0  0  0  0  0  0  0  0
   -1.1278   -2.0297    1.5092 O   0  0  0  0  0  0  0  0  0  0  0  0
   -1.4347   -0.2187    0.1669 N   0  0  0  0  0  0  0  0  0  0  0  0
   -2.1273    0.2569   -0.4079 H   0  0  0  0  0  0  0  0  0  0  0  0
   -0.1230    0.4566    0.2723 C   0  0  1  0  0  0  0  0  0  0  0  0
    0.5407    0.0730   -0.5092 H   0  0  0  0  0  0  0  0  0  0  0  0
   -0.4073    1.9457    0.0135 C   0  0  0  0  0  0  0  0  0  0  0  0
   -1.1741    2.3075    0.7075 H   0  0  0  0  0  0  0  0  0  0  0  0
    0.5037    2.5266    0.1973 H   0  0  0  0  0  0  0  0  0  0  0  0
   -0.8574    2.1953   -1.4380 C   0  0  0  0  0  0  0  0  0  0  0  0
   -0.0714    1.8747   -2.1286 H   0  0  0  0  0  0  0  0  0  0  0  0
   -1.7581    1.6209   -1.6695 H   0  0  0  0  0  0  0  0  0  0  0  0
   -1.1592    3.6749   -1.6629 C   0  0  0  0  0  0  0  0  0  0  0  0
   -2.2621    4.0949   -1.2312 O   0  5  0  0  0  0  0  0  0  0  0  0
   -0.3083    4.3739   -2.2638 O   0  0  0  0  0  0  0  0  0  0  0  0
    0.6529    0.3136    1.6033 C   0  0  0  0  0  0  0  0  0  0  0  0
    1.8695    0.1631    1.5897 O   0  0  0  0  0  0  0  0  0  0  0  0
    0.0047    0.4644    2.8157 N   0  0  0  0  0  0  0  0  0  0  0  0
   -1.0073    0.4159    2.7734 H   0  0  0  0  0  0  0  0  0  0  0  0
    0.6584    0.2289    4.0938 C   0  0  0  0  0  0  0  0  0  0  0  0
    1.5206    0.8932    4.2122 H   0  0  0  0  0  0  0  0  0  0  0  0
   -0.0399    0.4221    4.9134 H   0  0  0  0  0  0  0  0  0  0  0  0
    0.9977   -0.8098    4.1617 H   0  0  0  0  0  0  0  0  0  0  0  0
  1  2  1  0  0  0  0
  2  3  1  0  0  0  0
  2  4  1  0  0  0  0
  2  5  1  0  0  0  0
  5  6  2  0  0  0  0
  5  7  1  0  0  0  0
  7  8  1  0  0  0  0
  7  9  1  0  0  0  0
  9 10  1  0  0  0  0
  9 11  1  0  0  0  0
  9 20  1  0  0  0  0
 11 12  1  0  0  0  0
 11 13  1  0  0  0  0
 11 14  1  0  0  0  0
 14 15  1  0  0  0  0
 14 16  1  0  0  0  0
 14 17  1  0  0  0  0
 17 18  1  0  0  0  0
 17 19  2  0  0  0  0
 20 21  2  0  0  0  0
 20 22  1  0  0  0  0
 22 23  1  0  0  0  0
 22 24  1  0  0  0  0
 24 25  1  0  0  0  0
 24 26  1  0  0  0  0
 24 27  1  0  0  0  0
M  CHG  1  18  -1
M  END
$$$$

  -OEChem-01062216073D

 27 26  0     1  0  0  0  0  0999 V2000
   -3.5932   -2.7375    1.0023 H   0  0  0  0  0  0  0  0  0  0  0  0
   -3.3573   -1.8196    0.4564 C   0  0  0  0  0  0  0  0  0  0  0  0
   -4.0601   -1.0391    0.7594 H   0  0  0  0  0  0  0  0  0  0  0  0
   -3.4741   -2.0068   -0.6141 H   0  0  0  0  0  0  0  0  0  0  0  0
   -1.9346   -1.3793    0.7523 C   0  0  0  0  0  0  0  0  0  0  0  0
   -1.2475   -2.0461    1.5070 O   0  0  0  0  0  0  0  0  0  0  0  0
   -1.4643   -0.2233    0.1659 N   0  0  0  0  0  0  0  0  0  0  0  0
   -2.1338    0.2720   -0.4197 H   0  0  0  0  0  0  0  0  0  0  0  0
   -0.1462    0.4371    0.3019 C   0  0  1  0  0  0  0  0  0  0  0  0
    0.5210    0.0549   -0.4769 H   0  0  0  0  0  0  0  0  0  0  0  0
   -0.4272    1.9275    0.0412 C   0  0  0  0  0  0  0  0  0  0  0  0
   -1.2061    2.2864    0.7233 H   0  0  0  0  0  0  0  0  0  0  0  0
    0.4790    2.5105    0.2412 H   0  0  0  0  0  0  0  0  0  0  0  0
   -0.8501    2.1781   -1.4197 C   0  0  0  0  0  0  0  0  0  0  0  0
   -0.0501    1.8576   -2.0942 H   0  0  0  0  0  0  0  0  0  0  0  0
   -1.7451    1.6027   -1.6698 H   0  0  0  0  0  0  0  0  0  0  0  0
   -1.1511    3.6562   -1.6550 C   0  0  0  0  0  0  0  0  0  0  0  0
   -2.2581    4.0786   -1.2362 O   0  5  0  0  0  0  0  0  0  0  0  0
   -0.3010    4.3486   -2.2649 O   0  0  0  0  0  0  0  0  0  0  0  0
    0.6407    0.2969    1.6304 C   0  0  0  0  0  0  0  0  0  0  0  0
    1.8595    0.4283    1.6222 O   0  0  0  0  0  0  0  0  0  0  0  0
   -0.0018    0.1408    2.8445 N   0  0  0  0  0  0  0  0  0  0  0  0
   -0.9221   -0.2837    2.7639 H   0  0  0  0  0  0  0  0  0  0  0  0
    0.7233   -0.0543    4.0911 C   0  0  0  0  0  0  0  0  0  0  0  0
    1.3767    0.8007    4.2925 H   0  0  0  0  0  0  0  0  0  0  0  0
    0.0192   -0.1521    4.9225 H   0  0  0  0  0  0  0  0  0  0  0  0
    1.3326   -0.9624    4.0408 H   0  0  0  0  0  0  0  0  0  0  0  0
  1  2  1  0  0  0  0
  2  3  1  0  0  0  0
  2  4  1  0  0  0  0
  2  5  1  0  0  0  0
  5  6  2  0  0  0  0
  5  7  1  0  0  0  0
  7  8  1  0  0  0  0
  7  9  1  0  0  0  0
  9 10  1  0  0  0  0
  9 11  1  0  0  0  0
  9 20  1  0  0  0  0
 11 12  1  0  0  0  0
 11 13  1  0  0  0  0
 11 14  1  0  0  0  0
 14 15  1  0  0  0  0
 14 16  1  0  0  0  0
 14 17  1  0  0  0  0
 17 18  1  0  0  0  0
 17 19  2  0  0  0  0
 20 21  2  0  0  0  0
 20 22  1  0  0  0  0
 22 23  1  0  0  0  0
 22 24  1  0  0  0  0
 24 25  1  0  0  0  0
 24 26  1  0  0  0  0
 24 27  1  0  0  0  0
M  CHG  1  18  -1
M  END
$$$$

  -OEChem-01062216073D

 27 26  0     1  0  0  0  0  0999 V2000
   -3.6568   -2.7175    0.9166 H   0  0  0  0  0  0  0  0  0  0  0  0
   -3.4024   -1.7818    0.4110 C   0  0  0  0  0  0  0  0  0  0  0  0
   -4.0743   -0.9960    0.7660 H   0  0  0  0  0  0  0  0  0  0  0  0
   -3.5452   -1.9122   -0.6648 H   0  0  0  0  0  0  0  0  0  0  0  0
   -1.9614   -1.3998    0.6985 C   0  0  0  0  0  0  0  0  0  0  0  0
   -1.2789   -2.1301    1.3978 O   0  0  0  0  0  0  0  0  0  0  0  0
   -1.4646   -0.2383    0.1461 N   0  0  0  0  0  0  0  0  0  0  0  0
   -2.1361    0.2951   -0.4032 H   0  0  0  0  0  0  0  0  0  0  0  0
   -0.1506    0.4252    0.3181 C   0  0  1  0  0  0  0  0  0  0  0  0
    0.5303    0.0523   -0.4533 H   0  0  0  0  0  0  0  0  0  0  0  0
   -0.4470    1.9143    0.0535 C   0  0  0  0  0  0  0  0  0  0  0  0
   -1.2456    2.2603    0.7194 H   0  0  0  0  0  0  0  0  0  0  0  0
    0.4444    2.5122    0.2740 H   0  0  0  0  0  0  0  0  0  0  0  0
   -0.8398    2.1637   -1.4171 C   0  0  0  0  0  0  0  0  0  0  0  0
   -0.0199    1.8551   -2.0727 H   0  0  0  0  0  0  0  0  0  0  0  0
   -1.7216    1.5782   -1.6895 H   0  0  0  0  0  0  0  0  0  0  0  0
   -1.1568    3.6376   -1.6600 C   0  0  0  0  0  0  0  0  0  0  0  0
   -2.2491    4.0604   -1.2045 O   0  5  0  0  0  0  0  0  0  0  0  0
   -0.3422    4.3213   -2.3257 O   0  0  0  0  0  0  0  0  0  0  0  0
    0.6337    0.2910    1.6530 C   0  0  0  0  0  0  0  0  0  0  0  0
    1.8038    0.6544    1.6934 O   0  0  0  0  0  0  0  0  0  0  0  0
    0.0575   -0.1676    2.8227 N   0  0  0  0  0  0  0  0  0  0  0  0
   -0.7506   -0.7691    2.6667 H   0  0  0  0  0  0  0  0  0  0  0  0
    0.8206   -0.3743    4.0449 C   0  0  0  0  0  0  0  0  0  0  0  0
    1.2808    0.5631    4.3736 H   0  0  0  0  0  0  0  0  0  0  0  0
    0.1611   -0.7314    4.8413 H   0  0  0  0  0  0  0  0  0  0  0  0
    1.6073   -1.1183    3.8835 H   0  0  0  0  0  0  0  0  0  0  0  0
  1  2  1  0  0  0  0
  2  3  1  0  0  0  0
  2  4  1  0  0  0  0
  2  5  1  0  0  0  0
  5  6  2  0  0  0  0
  5  7  1  0  0  0  0
  7  8  1  0  0  0  0
  7  9  1  0  0  0  0
  9 10  1  0  0  0  0
  9 11  1  0  0  0  0
  9 20  1  0  0  0  0
 11 12  1  0  0  0  0
 11 13  1  0  0  0  0
 11 14  1  0  0  0  0
 14 15  1  0  0  0  0
 14 16  1  0  0  0  0
 14 17  1  0  0  0  0
 17 18  1  0  0  0  0
 17 19  2  0  0  0  0
 20 21  2  0  0  0  0
 20 22  1  0  0  0  0
 22 23  1  0  0  0  0
 22 24  1  0  0  0  0
 24 25  1  0  0  0  0
 24 26  1  0  0  0  0
 24 27  1  0  0  0  0
M  CHG  1  18  -1
M  END
$$$$

  -OEChem-01062216073D

 27 26  0     1  0  0  0  0  0999 V2000
   -3.7030   -2.6868    0.8730 H   0  0  0  0  0  0  0  0  0  0  0  0
   -3.4357   -1.7379    0.3997 C   0  0  0  0  0  0  0  0  0  0  0  0
   -4.0649   -0.9470    0.8163 H   0  0  0  0  0  0  0  0  0  0  0  0
   -3.6256   -1.8135   -0.6741 H   0  0  0  0  0  0  0  0  0  0  0  0
   -1.9718   -1.4183    0.6445 C   0  0  0  0  0  0  0  0  0  0  0  0
   -1.2800   -2.2225    1.2476 O   0  0  0  0  0  0  0  0  0  0  0  0
   -1.4587   -0.2488    0.1248 N   0  0  0  0  0  0  0  0  0  0  0  0
   -2.1398    0.3241   -0.3706 H   0  0  0  0  0  0  0  0  0  0  0  0
   -0.1489    0.4167    0.3269 C   0  0  1  0  0  0  0  0  0  0  0  0
    0.5427    0.0548   -0.4396 H   0  0  0  0  0  0  0  0  0  0  0  0
   -0.4625    1.9040    0.0589 C   0  0  0  0  0  0  0  0  0  0  0  0
   -1.2775    2.2373    0.7112 H   0  0  0  0  0  0  0  0  0  0  0  0
    0.4140    2.5179    0.2938 H   0  0  0  0  0  0  0  0  0  0  0  0
   -0.8313    2.1511   -1.4191 C   0  0  0  0  0  0  0  0  0  0  0  0
    0.0060    1.8563   -2.0590 H   0  0  0  0  0  0  0  0  0  0  0  0
   -1.6984    1.5532   -1.7107 H   0  0  0  0  0  0  0  0  0  0  0  0
   -1.1656    3.6204   -1.6669 C   0  0  0  0  0  0  0  0  0  0  0  0
   -2.2636    4.0310   -1.2137 O   0  5  0  0  0  0  0  0  0  0  0  0
   -0.3616    4.3106   -2.3388 O   0  0  0  0  0  0  0  0  0  0  0  0
    0.6319    0.2773    1.6679 C   0  0  0  0  0  0  0  0  0  0  0  0
    1.7172    0.8347    1.7848 O   0  0  0  0  0  0  0  0  0  0  0  0
    0.1829   -0.4551    2.7506 N   0  0  0  0  0  0  0  0  0  0  0  0
   -0.5387   -1.1400    2.5242 H   0  0  0  0  0  0  0  0  0  0  0  0
    0.9814   -0.6815    3.9469 C   0  0  0  0  0  0  0  0  0  0  0  0
    1.2560    0.2713    4.4107 H   0  0  0  0  0  0  0  0  0  0  0  0
    0.4089   -1.2651    4.6736 H   0  0  0  0  0  0  0  0  0  0  0  0
    1.8947   -1.2316    3.6989 H   0  0  0  0  0  0  0  0  0  0  0  0
  1  2  1  0  0  0  0
  2  3  1  0  0  0  0
  2  4  1  0  0  0  0
  2  5  1  0  0  0  0
  5  6  2  0  0  0  0
  5  7  1  0  0  0  0
  7  8  1  0  0  0  0
  7  9  1  0  0  0  0
  9 10  1  0  0  0  0
  9 11  1  0  0  0  0
  9 20  1  0  0  0  0
 11 12  1  0  0  0  0
 11 13  1  0  0  0  0
 11 14  1  0  0  0  0
 14 15  1  0  0  0  0
 14 16  1  0  0  0  0
 14 17  1  0  0  0  0
 17 18  1  0  0  0  0
 17 19  2  0  0  0  0
 20 21  2  0  0  0  0
 20 22  1  0  0  0  0
 22 23  1  0  0  0  0
 22 24  1  0  0  0  0
 24 25  1  0  0  0  0
 24 26  1  0  0  0  0
 24 27  1  0  0  0  0
M  CHG  1  18  -1
M  END
$$$$

  -OEChem-01062216073D

 27 26  0     1  0  0  0  0  0999 V2000
   -3.5249   -2.6179    1.3962 H   0  0  0  0  0  0  0  0  0  0  0  0
   -3.3179   -1.6830    0.8682 C   0  0  0  0  0  0  0  0  0  0  0  0
   -3.8669   -0.8743    1.3573 H   0  0  0  0  0  0  0  0  0  0  0  0
   -3.6653   -1.7751   -0.1641 H   0  0  0  0  0  0  0  0  0  0  0  0
   -1.8294   -1.3835    0.8889 C   0  0  0  0  0  0  0  0  0  0  0  0
   -1.0592   -2.2402    1.2857 O   0  0  0  0  0  0  0  0  0  0  0  0
   -1.3785   -0.2466    0.2557 N   0  0  0  0  0  0  0  0  0  0  0  0
   -2.1233    0.2875   -0.1876 H   0  0  0  0  0  0  0  0  0  0  0  0
   -0.1613    0.5608    0.4996 C   0  0  1  0  0  0  0  0  0  0  0  0
    0.6408    0.1507   -0.1203 H   0  0  0  0  0  0  0  0  0  0  0  0
   -0.5448    1.9548   -0.0505 C   0  0  0  0  0  0  0  0  0  0  0  0
   -1.4588    2.3111    0.4373 H   0  0  0  0  0  0  0  0  0  0  0  0
    0.2462    2.6792    0.1705 H   0  0  0  0  0  0  0  0  0  0  0  0
   -0.7306    1.9334   -1.5815 C   0  0  0  0  0  0  0  0  0  0  0  0
    0.2026    1.6219   -2.0605 H   0  0  0  0  0  0  0  0  0  0  0  0
   -1.5059    1.2187   -1.8699 H   0  0  0  0  0  0  0  0  0  0  0  0
   -1.1347    3.3101   -2.1042 C   0  0  0  0  0  0  0  0  0  0  0  0
   -2.3195    3.6703   -1.8888 O   0  5  0  0  0  0  0  0  0  0  0  0
   -0.2832    3.9804   -2.7374 O   0  0  0  0  0  0  0  0  0  0  0  0
    0.4621    0.6629    1.9324 C   0  0  0  0  0  0  0  0  0  0  0  0
    1.0538    1.6661    2.3030 O   0  0  0  0  0  0  0  0  0  0  0  0
    0.2136   -0.1245    3.0288 N   0  0  0  0  0  0  0  0  0  0  0  0
    0.3187    0.4595    3.8525 H   0  0  0  0  0  0  0  0  0  0  0  0
    0.9695   -1.3653    3.1400 C   0  0  0  0  0  0  0  0  0  0  0  0
    1.8524   -1.2085    3.7670 H   0  0  0  0  0  0  0  0  0  0  0  0
    0.3507   -2.1438    3.5966 H   0  0  0  0  0  0  0  0  0  0  0  0
    1.3087   -1.7193    2.1606 H   0  0  0  0  0  0  0  0  0  0  0  0
  1  2  1  0  0  0  0
  2  3  1  0  0  0  0
  2  4  1  0  0  0  0
  2  5  1  0  0  0  0
  5  6  2  0  0  0  0
  5  7  1  0  0  0  0
  7  8  1  0  0  0  0
  7  9  1  0  0  0  0
  9 10  1  0  0  0  0
  9 11  1  0  0  0  0
  9 20  1  0  0  0  0
 11 12  1  0  0  0  0
 11 13  1  0  0  0  0
 11 14  1  0  0  0  0
 14 15  1  0  0  0  0
 14 16  1  0  0  0  0
 14 17  1  0  0  0  0
 17 18  1  0  0  0  0
 17 19  2  0  0  0  0
 20 21  2  0  0  0  0
 20 22  1  0  0  0  0
 22 23  1  0  0  0  0
 22 24  1  0  0  0  0
 24 25  1  0  0  0  0
 24 26  1  0  0  0  0
 24 27  1  0  0  0  0
M  CHG  1  18  -1
M  END
$$$$

  -OEChem-01062216073D

 27 26  0     1  0  0  0  0  0999 V2000
   -3.4415   -2.5006    1.6816 H   0  0  0  0  0  0  0  0  0  0  0  0
   -3.2553   -1.5485    1.1770 C   0  0  0  0  0  0  0  0  0  0  0  0
   -3.5322   -0.7336    1.8506 H   0  0  0  0  0  0  0  0  0  0  0  0
   -3.8779   -1.4956    0.2802 H   0  0  0  0  0  0  0  0  0  0  0  0
   -1.7903   -1.4304    0.7967 C   0  0  0  0  0  0  0  0  0  0  0  0
   -1.0688   -2.4082    0.8969 O   0  0  0  0  0  0  0  0  0  0  0  0
   -1.3587   -0.2738    0.1860 N   0  0  0  0  0  0  0  0  0  0  0  0
   -2.0937    0.4153    0.0398 H   0  0  0  0  0  0  0  0  0  0  0  0
    0.0073    0.2864    0.0752 C   0  0  1  0  0  0  0  0  0  0  0  0
    0.4523   -0.0898   -0.8507 H   0  0  0  0  0  0  0  0  0  0  0  0
   -0.2603    1.8023   -0.0662 C   0  0  0  0  0  0  0  0  0  0  0  0
   -0.8605    2.1549    0.7801 H   0  0  0  0  0  0  0  0  0  0  0  0
    0.6857    2.3539   -0.0440 H   0  0  0  0  0  0  0  0  0  0  0  0
   -0.9646    2.1455   -1.3950 C   0  0  0  0  0  0  0  0  0  0  0  0
   -0.3353    1.8330   -2.2339 H   0  0  0  0  0  0  0  0  0  0  0  0
   -1.9180    1.6176   -1.4799 H   0  0  0  0  0  0  0  0  0  0  0  0
   -1.2410    3.6441   -1.4963 C   0  0  0  0  0  0  0  0  0  0  0  0
   -2.1221    4.1062   -0.7278 O   0  5  0  0  0  0  0  0  0  0  0  0
   -0.6119    4.3120   -2.3524 O   0  0  0  0  0  0  0  0  0  0  0  0
    1.1033    0.0573    1.1667 C   0  0  0  0  0  0  0  0  0  0  0  0
    2.1865    0.6113    1.0471 O   0  0  0  0  0  0  0  0  0  0  0  0
    1.2743   -1.0055    2.0178 N   0  0  0  0  0  0  0  0  0  0  0  0
    2.2616   -1.0894    2.2373 H   0  0  0  0  0  0  0  0  0  0  0  0
    0.3947   -1.1469    3.1698 C   0  0  0  0  0  0  0  0  0  0  0  0
   -0.5147   -0.5483    3.0587 H   0  0  0  0  0  0  0  0  0  0  0  0
    0.1103   -2.1954    3.3014 H   0  0  0  0  0  0  0  0  0  0  0  0
    0.9113   -0.8101    4.0737 H   0  0  0  0  0  0  0  0  0  0  0  0
  1  2  1  0  0  0  0
  2  3  1  0  0  0  0
  2  4  1  0  0  0  0
  2  5  1  0  0  0  0
  5  6  2  0  0  0  0
  5  7  1  0  0  0  0
  7  8  1  0  0  0  0
  7  9  1  0  0  0  0
  9 10  1  0  0  0  0
  9 11  1  0  0  0  0
  9 20  1  0  0  0  0
 11 12  1  0  0  0  0
 11 13  1  0  0  0  0
 11 14  1  0  0  0  0
 14 15  1  0  0  0  0
 14 16  1  0  0  0  0
 14 17  1  0  0  0  0
 17 18  1  0  0  0  0
 17 19  2  0  0  0  0
 20 21  2  0  0  0  0
 20 22  1  0  0  0  0
 22 23  1  0  0  0  0
 22 24  1  0  0  0  0
 24 25  1  0  0  0  0
 24 26  1  0  0  0  0
 24 27  1  0  0  0  0
M  CHG  1  18  -1
M  END
$$$$

  -OEChem-01062216073D

 27 26  0     1  0  0  0  0  0999 V2000
   -3.6352   -2.6680    1.0002 H   0  0  0  0  0  0  0  0  0  0  0  0
   -3.4036   -1.6821    0.5873 C   0  0  0  0  0  0  0  0  0  0  0  0
   -3.9186   -0.9225    1.1813 H   0  0  0  0  0  0  0  0  0  0  0  0
   -3.7687   -1.6362   -0.4420 H   0  0  0  0  0  0  0  0  0  0  0  0
   -1.9058   -1.4340    0.6171 C   0  0  0  0  0  0  0  0  0  0  0  0
   -1.1622   -2.3373    0.9655 O   0  0  0  0  0  0  0  0  0  0  0  0
   -1.4297   -0.2361    0.1261 N   0  0  0  0  0  0  0  0  0  0  0  0
   -2.1612    0.3914   -0.2044 H   0  0  0  0  0  0  0  0  0  0  0  0
   -0.1133    0.4294    0.2811 C   0  0  1  0  0  0  0  0  0  0  0  0
    0.5384    0.0763   -0.5233 H   0  0  0  0  0  0  0  0  0  0  0  0
   -0.4268    1.9211    0.0233 C   0  0  0  0  0  0  0  0  0  0  0  0
   -1.2139    2.2629    0.7045 H   0  0  0  0  0  0  0  0  0  0  0  0
    0.4620    2.5314    0.2163 H   0  0  0  0  0  0  0  0  0  0  0  0
   -0.8442    2.1619   -1.4424 C   0  0  0  0  0  0  0  0  0  0  0  0
   -0.0312    1.8595   -2.1095 H   0  0  0  0  0  0  0  0  0  0  0  0
   -1.7229    1.5650   -1.7000 H   0  0  0  0  0  0  0  0  0  0  0  0
   -1.1796    3.6304   -1.6902 C   0  0  0  0  0  0  0  0  0  0  0  0
   -2.3037    4.0265   -1.2917 O   0  5  0  0  0  0  0  0  0  0  0  0
   -0.3443    4.3365   -2.3057 O   0  0  0  0  0  0  0  0  0  0  0  0
    0.7255    0.2089    1.5815 C   0  0  0  0  0  0  0  0  0  0  0  0
    1.2953    1.1424    2.1345 O   0  0  0  0  0  0  0  0  0  0  0  0
    0.9097   -1.0352    2.1518 N   0  0  0  0  0  0  0  0  0  0  0  0
    0.3493   -1.7931    1.7570 H   0  0  0  0  0  0  0  0  0  0  0  0
    1.6278   -1.2714    3.3960 C   0  0  0  0  0  0  0  0  0  0  0  0
    1.1321   -0.7590    4.2266 H   0  0  0  0  0  0  0  0  0  0  0  0
    1.6547   -2.3429    3.6147 H   0  0  0  0  0  0  0  0  0  0  0  0
    2.6580   -0.9093    3.3189 H   0  0  0  0  0  0  0  0  0  0  0  0
  1  2  1  0  0  0  0
  2  3  1  0  0  0  0
  2  4  1  0  0  0  0
  2  5  1  0  0  0  0
  5  6  2  0  0  0  0
  5  7  1  0  0  0  0
  7  8  1  0  0  0  0
  7  9  1  0  0  0  0
  9 10  1  0  0  0  0
  9 11  1  0  0  0  0
  9 20  1  0  0  0  0
 11 12  1  0  0  0  0
 11 13  1  0  0  0  0
 11 14  1  0  0  0  0
 14 15  1  0  0  0  0
 14 16  1  0  0  0  0
 14 17  1  0  0  0  0
 17 18  1  0  0  0  0
 17 19  2  0  0  0  0
 20 21  2  0  0  0  0
 20 22  1  0  0  0  0
 22 23  1  0  0  0  0
 22 24  1  0  0  0  0
 24 25  1  0  0  0  0
 24 26  1  0  0  0  0
 24 27  1  0  0  0  0
M  CHG  1  18  -1
M  END
$$$$

  -OEChem-01062216073D

 27 26  0     1  0  0  0  0  0999 V2000
   -3.5080   -2.7160    1.0940 H   0  0  0  0  0  0  0  0  0  0  0  0
   -3.3254   -1.7161    0.6903 C   0  0  0  0  0  0  0  0  0  0  0  0
   -3.8210   -0.9823    1.3312 H   0  0  0  0  0  0  0  0  0  0  0  0
   -3.7533   -1.6573   -0.3138 H   0  0  0  0  0  0  0  0  0  0  0  0
   -1.8350   -1.4313    0.6370 C   0  0  0  0  0  0  0  0  0  0  0  0
   -1.0477   -2.3115    0.9490 O   0  0  0  0  0  0  0  0  0  0  0  0
   -1.4099   -0.2252    0.1203 N   0  0  0  0  0  0  0  0  0  0  0  0
   -2.1648    0.3936   -0.1711 H   0  0  0  0  0  0  0  0  0  0  0  0
   -0.1006    0.4544    0.2524 C   0  0  1  0  0  0  0  0  0  0  0  0
    0.5471    0.1044   -0.5564 H   0  0  0  0  0  0  0  0  0  0  0  0
   -0.4094    1.9461   -0.0000 C   0  0  0  0  0  0  0  0  0  0  0  0
   -1.1877    2.2917    0.6896 H   0  0  0  0  0  0  0  0  0  0  0  0
    0.4866    2.5482    0.1865 H   0  0  0  0  0  0  0  0  0  0  0  0
   -0.8447    2.1857   -1.4596 C   0  0  0  0  0  0  0  0  0  0  0  0
   -0.0421    1.8791   -2.1372 H   0  0  0  0  0  0  0  0  0  0  0  0
   -1.7284    1.5900   -1.7033 H   0  0  0  0  0  0  0  0  0  0  0  0
   -1.1759    3.6553   -1.7049 C   0  0  0  0  0  0  0  0  0  0  0  0
   -2.3242    4.0397   -1.3693 O   0  5  0  0  0  0  0  0  0  0  0  0
   -0.3051    4.3774   -2.2482 O   0  0  0  0  0  0  0  0  0  0  0  0
    0.7330    0.2252    1.5507 C   0  0  0  0  0  0  0  0  0  0  0  0
    1.0741    1.1588    2.2680 O   0  0  0  0  0  0  0  0  0  0  0  0
    1.1575   -1.0361    1.9219 N   0  0  0  0  0  0  0  0  0  0  0  0
    0.6512   -1.8018    1.4708 H   0  0  0  0  0  0  0  0  0  0  0  0
    1.8362   -1.3151    3.1794 C   0  0  0  0  0  0  0  0  0  0  0  0
    1.1982   -1.0441    4.0267 H   0  0  0  0  0  0  0  0  0  0  0  0
    2.0726   -2.3810    3.2481 H   0  0  0  0  0  0  0  0  0  0  0  0
    2.7718   -0.7503    3.2443 H   0  0  0  0  0  0  0  0  0  0  0  0
  1  2  1  0  0  0  0
  2  3  1  0  0  0  0
  2  4  1  0  0  0  0
  2  5  1  0  0  0  0
  5  6  2  0  0  0  0
  5  7  1  0  0  0  0
  7  8  1  0  0  0  0
  7  9  1  0  0  0  0
  9 10  1  0  0  0  0
  9 11  1  0  0  0  0
  9 20  1  0  0  0  0
 11 12  1  0  0  0  0
 11 13  1  0  0  0  0
 11 14  1  0  0  0  0
 14 15  1  0  0  0  0
 14 16  1  0  0  0  0
 14 17  1  0  0  0  0
 17 18  1  0  0  0  0
 17 19  2  0  0  0  0
 20 21  2  0  0  0  0
 20 22  1  0  0  0  0
 22 23  1  0  0  0  0
 22 24  1  0  0  0  0
 24 25  1  0  0  0  0
 24 26  1  0  0  0  0
 24 27  1  0  0  0  0
M  CHG  1  18  -1
M  END
$$$$

  -OEChem-01062216073D

 27 26  0     1  0  0  0  0  0999 V2000
   -3.3794   -2.7645    1.1776 H   0  0  0  0  0  0  0  0  0  0  0  0
   -3.2483   -1.7620    0.7608 C   0  0  0  0  0  0  0  0  0  0  0  0
   -3.7534   -1.0422    1.4100 H   0  0  0  0  0  0  0  0  0  0  0  0
   -3.7067   -1.7290   -0.2309 H   0  0  0  0  0  0  0  0  0  0  0  0
   -1.7724   -1.4207    0.6614 C   0  0  0  0  0  0  0  0  0  0  0  0
   -0.9382   -2.2626    0.9606 O   0  0  0  0  0  0  0  0  0  0  0  0
   -1.4015   -0.2117    0.1113 N   0  0  0  0  0  0  0  0  0  0  0  0
   -2.1765    0.3967   -0.1461 H   0  0  0  0  0  0  0  0  0  0  0  0
   -0.1002    0.4786    0.2316 C   0  0  1  0  0  0  0  0  0  0  0  0
    0.5520    0.1293   -0.5740 H   0  0  0  0  0  0  0  0  0  0  0  0
   -0.3983    1.9710   -0.0167 C   0  0  0  0  0  0  0  0  0  0  0  0
   -1.1729    2.3204    0.6749 H   0  0  0  0  0  0  0  0  0  0  0  0
    0.5038    2.5634    0.1728 H   0  0  0  0  0  0  0  0  0  0  0  0
   -0.8391    2.2143   -1.4734 C   0  0  0  0  0  0  0  0  0  0  0  0
   -0.0430    1.9018   -2.1559 H   0  0  0  0  0  0  0  0  0  0  0  0
   -1.7287    1.6246   -1.7108 H   0  0  0  0  0  0  0  0  0  0  0  0
   -1.1604    3.6865   -1.7174 C   0  0  0  0  0  0  0  0  0  0  0  0
   -2.3135    4.0755   -1.4049 O   0  5  0  0  0  0  0  0  0  0  0  0
   -0.2728    4.4077   -2.2347 O   0  0  0  0  0  0  0  0  0  0  0  0
    0.7057    0.2440    1.5414 C   0  0  0  0  0  0  0  0  0  0  0  0
    0.8289    1.1202    2.3900 O   0  0  0  0  0  0  0  0  0  0  0  0
    1.3666   -0.9527    1.7446 N   0  0  0  0  0  0  0  0  0  0  0  0
    0.9424   -1.7338    1.2397 H   0  0  0  0  0  0  0  0  0  0  0  0
    2.0622   -1.2608    2.9860 C   0  0  0  0  0  0  0  0  0  0  0  0
    1.3650   -1.2432    3.8298 H   0  0  0  0  0  0  0  0  0  0  0  0
    2.5116   -2.2563    2.9258 H   0  0  0  0  0  0  0  0  0  0  0  0
    2.8598   -0.5335    3.1694 H   0  0  0  0  0  0  0  0  0  0  0  0
  1  2  1  0  0  0  0
  2  3  1  0  0  0  0
  2  4  1  0  0  0  0
  2  5  1  0  0  0  0
  5  6  2  0  0  0  0
  5  7  1  0  0  0  0
  7  8  1  0  0  0  0
  7  9  1  0  0  0  0
  9 10  1  0  0  0  0
  9 11  1  0  0  0  0
  9 20  1  0  0  0  0
 11 12  1  0  0  0  0
 11 13  1  0  0  0  0
 11 14  1  0  0  0  0
 14 15  1  0  0  0  0
 14 16  1  0  0  0  0
 14 17  1  0  0  0  0
 17 18  1  0  0  0  0
 17 19  2  0  0  0  0
 20 21  2  0  0  0  0
 20 22  1  0  0  0  0
 22 23  1  0  0  0  0
 22 24  1  0  0  0  0
 24 25  1  0  0  0  0
 24 26  1  0  0  0  0
 24 27  1  0  0  0  0
M  CHG  1  18  -1
M  END
$$$$

  -OEChem-01062216073D

 27 26  0     1  0  0  0  0  0999 V2000
   -3.2556   -2.8012    1.2634 H   0  0  0  0  0  0  0  0  0  0  0  0
   -3.1736   -1.7952    0.8429 C   0  0  0  0  0  0  0  0  0  0  0  0
   -3.6616   -1.0895    1.5200 H   0  0  0  0  0  0  0  0  0  0  0  0
   -3.6849   -1.7732   -0.1228 H   0  0  0  0  0  0  0  0  0  0  0  0
   -1.7146   -1.4146    0.6668 C   0  0  0  0  0  0  0  0  0  0  0  0
   -0.8380   -2.2252    0.9332 O   0  0  0  0  0  0  0  0  0  0  0  0
   -1.3984   -0.2043    0.0861 N   0  0  0  0  0  0  0  0  0  0  0  0
   -2.1930    0.3974   -0.1218 H   0  0  0  0  0  0  0  0  0  0  0  0
   -0.1055    0.4965    0.2012 C   0  0  1  0  0  0  0  0  0  0  0  0
    0.5519    0.1501   -0.6010 H   0  0  0  0  0  0  0  0  0  0  0  0
   -0.3926    1.9904   -0.0379 C   0  0  0  0  0  0  0  0  0  0  0  0
   -1.1664    2.3397    0.6550 H   0  0  0  0  0  0  0  0  0  0  0  0
    0.5136    2.5737    0.1588 H   0  0  0  0  0  0  0  0  0  0  0  0
   -0.8351    2.2436   -1.4916 C   0  0  0  0  0  0  0  0  0  0  0  0
   -0.0439    1.9288   -2.1787 H   0  0  0  0  0  0  0  0  0  0  0  0
   -1.7293    1.6603   -1.7284 H   0  0  0  0  0  0  0  0  0  0  0  0
   -1.1455    3.7196   -1.7263 C   0  0  0  0  0  0  0  0  0  0  0  0
   -2.3119    4.1062   -1.4648 O   0  5  0  0  0  0  0  0  0  0  0  0
   -0.2293    4.4493   -2.1784 O   0  0  0  0  0  0  0  0  0  0  0  0
    0.6724    0.2587    1.5233 C   0  0  0  0  0  0  0  0  0  0  0  0
    0.5578    1.0135    2.4827 O   0  0  0  0  0  0  0  0  0  0  0  0
    1.5684   -0.7909    1.6061 N   0  0  0  0  0  0  0  0  0  0  0  0
    1.3320   -1.5651    0.9871 H   0  0  0  0  0  0  0  0  0  0  0  0
    2.2610   -1.1203    2.8436 C   0  0  0  0  0  0  0  0  0  0  0  0
    1.5421   -1.3932    3.6230 H   0  0  0  0  0  0  0  0  0  0  0  0
    2.9368   -1.9652    2.6809 H   0  0  0  0  0  0  0  0  0  0  0  0
    2.8540   -0.2679    3.1910 H   0  0  0  0  0  0  0  0  0  0  0  0
  1  2  1  0  0  0  0
  2  3  1  0  0  0  0
  2  4  1  0  0  0  0
  2  5  1  0  0  0  0
  5  6  2  0  0  0  0
  5  7  1  0  0  0  0
  7  8  1  0  0  0  0
  7  9  1  0  0  0  0
  9 10  1  0  0  0  0
  9 11  1  0  0  0  0
  9 20  1  0  0  0  0
 11 12  1  0  0  0  0
 11 13  1  0  0  0  0
 11 14  1  0  0  0  0
 14 15  1  0  0  0  0
 14 16  1  0  0  0  0
 14 17  1  0  0  0  0
 17 18  1  0  0  0  0
 17 19  2  0  0  0  0
 20 21  2  0  0  0  0
 20 22  1  0  0  0  0
 22 23  1  0  0  0  0
 22 24  1  0  0  0  0
 24 25  1  0  0  0  0
 24 26  1  0  0  0  0
 24 27  1  0  0  0  0
M  CHG  1  18  -1
M  END
$$$$

  -OEChem-01062216073D

 27 26  0     1  0  0  0  0  0999 V2000
   -3.1937   -2.7882    1.3809 H   0  0  0  0  0  0  0  0  0  0  0  0
   -3.1388   -1.8110    0.8932 C   0  0  0  0  0  0  0  0  0  0  0  0
   -3.6366   -1.0731    1.5277 H   0  0  0  0  0  0  0  0  0  0  0  0
   -3.6592   -1.8646   -0.0663 H   0  0  0  0  0  0  0  0  0  0  0  0
   -1.6904   -1.4114    0.6763 C   0  0  0  0  0  0  0  0  0  0  0  0
   -0.7952   -2.2052    0.9321 O   0  0  0  0  0  0  0  0  0  0  0  0
   -1.4039   -0.2048    0.0721 N   0  0  0  0  0  0  0  0  0  0  0  0
   -2.2079    0.3925   -0.1085 H   0  0  0  0  0  0  0  0  0  0  0  0
   -0.1149    0.5015    0.1785 C   0  0  1  0  0  0  0  0  0  0  0  0
    0.5396    0.1528   -0.6248 H   0  0  0  0  0  0  0  0  0  0  0  0
   -0.3914    1.9972   -0.0518 C   0  0  0  0  0  0  0  0  0  0  0  0
   -1.1596    2.3482    0.6464 H   0  0  0  0  0  0  0  0  0  0  0  0
    0.5200    2.5728    0.1444 H   0  0  0  0  0  0  0  0  0  0  0  0
   -0.8404    2.2604   -1.5007 C   0  0  0  0  0  0  0  0  0  0  0  0
   -0.0557    1.9442   -2.1944 H   0  0  0  0  0  0  0  0  0  0  0  0
   -1.7397    1.6835   -1.7340 H   0  0  0  0  0  0  0  0  0  0  0  0
   -1.1397    3.7402   -1.7251 C   0  0  0  0  0  0  0  0  0  0  0  0
   -2.3269    4.1163   -1.5611 O   0  5  0  0  0  0  0  0  0  0  0  0
   -0.1875    4.4865   -2.0608 O   0  0  0  0  0  0  0  0  0  0  0  0
    0.6540    0.2720    1.5050 C   0  0  0  0  0  0  0  0  0  0  0  0
    0.3246    0.8455    2.5381 O   0  0  0  0  0  0  0  0  0  0  0  0
    1.7607   -0.5575    1.5208 N   0  0  0  0  0  0  0  0  0  0  0  0
    1.7992   -1.2249    0.7561 H   0  0  0  0  0  0  0  0  0  0  0  0
    2.4552   -0.9002    2.7531 C   0  0  0  0  0  0  0  0  0  0  0  0
    1.7777   -1.4123    3.4440 H   0  0  0  0  0  0  0  0  0  0  0  0
    3.2984   -1.5623    2.5363 H   0  0  0  0  0  0  0  0  0  0  0  0
    2.8418    0.0018    3.2385 H   0  0  0  0  0  0  0  0  0  0  0  0
  1  2  1  0  0  0  0
  2  3  1  0  0  0  0
  2  4  1  0  0  0  0
  2  5  1  0  0  0  0
  5  6  2  0  0  0  0
  5  7  1  0  0  0  0
  7  8  1  0  0  0  0
  7  9  1  0  0  0  0
  9 10  1  0  0  0  0
  9 11  1  0  0  0  0
  9 20  1  0  0  0  0
 11 12  1  0  0  0  0
 11 13  1  0  0  0  0
 11 14  1  0  0  0  0
 14 15  1  0  0  0  0
 14 16  1  0  0  0  0
 14 17  1  0  0  0  0
 17 18  1  0  0  0  0
 17 19  2  0  0  0  0
 20 21  2  0  0  0  0
 20 22  1  0  0  0  0
 22 23  1  0  0  0  0
 22 24  1  0  0  0  0
 24 25  1  0  0  0  0
 24 26  1  0  0  0  0
 24 27  1  0  0  0  0
M  CHG  1  18  -1
M  END
$$$$

  -OEChem-01062216073D

 27 26  0     1  0  0  0  0  0999 V2000
   -3.1240   -2.8692    1.2373 H   0  0  0  0  0  0  0  0  0  0  0  0
   -3.0840   -1.8805    0.7720 C   0  0  0  0  0  0  0  0  0  0  0  0
   -3.5964   -1.1658    1.4211 H   0  0  0  0  0  0  0  0  0  0  0  0
   -3.5993   -1.9207   -0.1908 H   0  0  0  0  0  0  0  0  0  0  0  0
   -1.6417   -1.4511    0.5718 C   0  0  0  0  0  0  0  0  0  0  0  0
   -0.7327   -2.2315    0.8202 O   0  0  0  0  0  0  0  0  0  0  0  0
   -1.3726   -0.2305   -0.0125 N   0  0  0  0  0  0  0  0  0  0  0  0
   -2.1887    0.3520   -0.1848 H   0  0  0  0  0  0  0  0  0  0  0  0
   -0.1131    0.5103    0.1770 C   0  0  1  0  0  0  0  0  0  0  0  0
    0.5934    0.1847   -0.5909 H   0  0  0  0  0  0  0  0  0  0  0  0
   -0.4064    2.0031   -0.0431 C   0  0  0  0  0  0  0  0  0  0  0  0
   -1.2210    2.3244    0.6157 H   0  0  0  0  0  0  0  0  0  0  0  0
    0.4794    2.5935    0.2157 H   0  0  0  0  0  0  0  0  0  0  0  0
   -0.7776    2.2854   -1.5099 C   0  0  0  0  0  0  0  0  0  0  0  0
    0.0521    1.9984   -2.1629 H   0  0  0  0  0  0  0  0  0  0  0  0
   -1.6501    1.6961   -1.8056 H   0  0  0  0  0  0  0  0  0  0  0  0
   -1.0925    3.7639   -1.7211 C   0  0  0  0  0  0  0  0  0  0  0  0
   -0.1397    4.5271   -2.0145 O   0  5  0  0  0  0  0  0  0  0  0  0
   -2.2879    4.1240   -1.5840 O   0  0  0  0  0  0  0  0  0  0  0  0
    0.5802    0.2879    1.5447 C   0  0  0  0  0  0  0  0  0  0  0  0
    0.0238    0.6080    2.5904 O   0  0  0  0  0  0  0  0  0  0  0  0
    1.8590   -0.2371    1.5978 N   0  0  0  0  0  0  0  0  0  0  0  0
    2.2036   -0.6580    0.7417 H   0  0  0  0  0  0  0  0  0  0  0  0
    2.5128   -0.5851    2.8509 C   0  0  0  0  0  0  0  0  0  0  0  0
    1.9437   -1.3595    3.3753 H   0  0  0  0  0  0  0  0  0  0  0  0
    3.5204   -0.9640    2.6563 H   0  0  0  0  0  0  0  0  0  0  0  0
    2.5946    0.2944    3.4978 H   0  0  0  0  0  0  0  0  0  0  0  0
  1  2  1  0  0  0  0
  2  3  1  0  0  0  0
  2  4  1  0  0  0  0
  2  5  1  0  0  0  0
  5  6  2  0  0  0  0
  5  7  1  0  0  0  0
  7  8  1  0  0  0  0
  7  9  1  0  0  0  0
  9 10  1  0  0  0  0
  9 11  1  0  0  0  0
  9 20  1  0  0  0  0
 11 12  1  0  0  0  0
 11 13  1  0  0  0  0
 11 14  1  0  0  0  0
 14 15  1  0  0  0  0
 14 16  1  0  0  0  0
 14 17  1  0  0  0  0
 17 18  1  0  0  0  0
 17 19  2  0  0  0  0
 20 21  2  0  0  0  0
 20 22  1  0  0  0  0
 22 23  1  0  0  0  0
 22 24  1  0  0  0  0
 24 25  1  0  0  0  0
 24 26  1  0  0  0  0
 24 27  1  0  0  0  0
M  CHG  1  18  -1
M  END
$$$$

  -OEChem-01062216073D

 27 26  0     1  0  0  0  0  0999 V2000
   -3.1644   -2.8776    1.2267 H   0  0  0  0  0  0  0  0  0  0  0  0
   -3.1171   -1.8893    0.7611 C   0  0  0  0  0  0  0  0  0  0  0  0
   -3.6137   -1.1685    1.4158 H   0  0  0  0  0  0  0  0  0  0  0  0
   -3.6423   -1.9221   -0.1967 H   0  0  0  0  0  0  0  0  0  0  0  0
   -1.6716   -1.4781    0.5467 C   0  0  0  0  0  0  0  0  0  0  0  0
   -0.7702   -2.2750    0.7689 O   0  0  0  0  0  0  0  0  0  0  0  0
   -1.3933   -0.2571   -0.0325 N   0  0  0  0  0  0  0  0  0  0  0  0
   -2.2056    0.3337   -0.1921 H   0  0  0  0  0  0  0  0  0  0  0  0
   -0.1300    0.4728    0.1734 C   0  0  1  0  0  0  0  0  0  0  0  0
    0.5768    0.1410   -0.5917 H   0  0  0  0  0  0  0  0  0  0  0  0
   -0.4060    1.9699   -0.0330 C   0  0  0  0  0  0  0  0  0  0  0  0
   -1.2221    2.2909    0.6240 H   0  0  0  0  0  0  0  0  0  0  0  0
    0.4831    2.5494    0.2389 H   0  0  0  0  0  0  0  0  0  0  0  0
   -0.7630    2.2747   -1.4980 C   0  0  0  0  0  0  0  0  0  0  0  0
    0.0683    1.9883   -2.1491 H   0  0  0  0  0  0  0  0  0  0  0  0
   -1.6400    1.6988   -1.8070 H   0  0  0  0  0  0  0  0  0  0  0  0
   -1.0591    3.7599   -1.6875 C   0  0  0  0  0  0  0  0  0  0  0  0
   -0.0880    4.5217   -1.9190 O   0  5  0  0  0  0  0  0  0  0  0  0
   -2.2557    4.1277   -1.5879 O   0  0  0  0  0  0  0  0  0  0  0  0
    0.5591    0.2493    1.5429 C   0  0  0  0  0  0  0  0  0  0  0  0
   -0.0675    0.3709    2.5913 O   0  0  0  0  0  0  0  0  0  0  0  0
    1.9220    0.0197    1.6019 N   0  0  0  0  0  0  0  0  0  0  0  0
    2.4102   -0.1045    0.7217 H   0  0  0  0  0  0  0  0  0  0  0  0
    2.6473   -0.1826    2.8473 C   0  0  0  0  0  0  0  0  0  0  0  0
    2.2303   -1.0309    3.3997 H   0  0  0  0  0  0  0  0  0  0  0  0
    3.7010   -0.3895    2.6384 H   0  0  0  0  0  0  0  0  0  0  0  0
    2.5876    0.7131    3.4740 H   0  0  0  0  0  0  0  0  0  0  0  0
  1  2  1  0  0  0  0
  2  3  1  0  0  0  0
  2  4  1  0  0  0  0
  2  5  1  0  0  0  0
  5  6  2  0  0  0  0
  5  7  1  0  0  0  0
  7  8  1  0  0  0  0
  7  9  1  0  0  0  0
  9 10  1  0  0  0  0
  9 11  1  0  0  0  0
  9 20  1  0  0  0  0
 11 12  1  0  0  0  0
 11 13  1  0  0  0  0
 11 14  1  0  0  0  0
 14 15  1  0  0  0  0
 14 16  1  0  0  0  0
 14 17  1  0  0  0  0
 17 18  1  0  0  0  0
 17 19  2  0  0  0  0
 20 21  2  0  0  0  0
 20 22  1  0  0  0  0
 22 23  1  0  0  0  0
 22 24  1  0  0  0  0
 24 25  1  0  0  0  0
 24 26  1  0  0  0  0
 24 27  1  0  0  0  0
M  CHG  1  18  -1
M  END
$$$$

  -OEChem-01062216073D

 27 26  0     1  0  0  0  0  0999 V2000
   -3.2141   -2.9013    1.1732 H   0  0  0  0  0  0  0  0  0  0  0  0
   -3.1533   -1.8874    0.7683 C   0  0  0  0  0  0  0  0  0  0  0  0
   -3.6064   -1.1955    1.4828 H   0  0  0  0  0  0  0  0  0  0  0  0
   -3.7101   -1.8466   -0.1710 H   0  0  0  0  0  0  0  0  0  0  0  0
   -1.7042   -1.5027    0.5302 C   0  0  0  0  0  0  0  0  0  0  0  0
   -0.8166   -2.3257    0.7083 O   0  0  0  0  0  0  0  0  0  0  0  0
   -1.4109   -0.2816   -0.0418 N   0  0  0  0  0  0  0  0  0  0  0  0
   -2.2158    0.3238   -0.1811 H   0  0  0  0  0  0  0  0  0  0  0  0
   -0.1373    0.4287    0.1727 C   0  0  1  0  0  0  0  0  0  0  0  0
    0.5640    0.0854   -0.5926 H   0  0  0  0  0  0  0  0  0  0  0  0
   -0.3886    1.9316   -0.0254 C   0  0  0  0  0  0  0  0  0  0  0  0
   -1.2009    2.2615    0.6320 H   0  0  0  0  0  0  0  0  0  0  0  0
    0.5088    2.4958    0.2519 H   0  0  0  0  0  0  0  0  0  0  0  0
   -0.7359    2.2550   -1.4881 C   0  0  0  0  0  0  0  0  0  0  0  0
    0.0925    1.9622   -2.1397 H   0  0  0  0  0  0  0  0  0  0  0  0
   -1.6215    1.6969   -1.8056 H   0  0  0  0  0  0  0  0  0  0  0  0
   -1.0055    3.7474   -1.6596 C   0  0  0  0  0  0  0  0  0  0  0  0
   -0.0165    4.4964   -1.8545 O   0  5  0  0  0  0  0  0  0  0  0  0
   -2.1969    4.1345   -1.5737 O   0  0  0  0  0  0  0  0  0  0  0  0
    0.5601    0.1992    1.5378 C   0  0  0  0  0  0  0  0  0  0  0  0
   -0.0852    0.1310    2.5799 O   0  0  0  0  0  0  0  0  0  0  0  0
    1.9399    0.2680    1.6171 N   0  0  0  0  0  0  0  0  0  0  0  0
    2.4445    0.4535    0.7566 H   0  0  0  0  0  0  0  0  0  0  0  0
    2.6738    0.2447    2.8740 C   0  0  0  0  0  0  0  0  0  0  0  0
    2.4440   -0.6672    3.4347 H   0  0  0  0  0  0  0  0  0  0  0  0
    3.7503    0.2689    2.6810 H   0  0  0  0  0  0  0  0  0  0  0  0
    2.4110    1.1134    3.4861 H   0  0  0  0  0  0  0  0  0  0  0  0
  1  2  1  0  0  0  0
  2  3  1  0  0  0  0
  2  4  1  0  0  0  0
  2  5  1  0  0  0  0
  5  6  2  0  0  0  0
  5  7  1  0  0  0  0
  7  8  1  0  0  0  0
  7  9  1  0  0  0  0
  9 10  1  0  0  0  0
  9 11  1  0  0  0  0
  9 20  1  0  0  0  0
 11 12  1  0  0  0  0
 11 13  1  0  0  0  0
 11 14  1  0  0  0  0
 14 15  1  0  0  0  0
 14 16  1  0  0  0  0
 14 17  1  0  0  0  0
 17 18  1  0  0  0  0
 17 19  2  0  0  0  0
 20 21  2  0  0  0  0
 20 22  1  0  0  0  0
 22 23  1  0  0  0  0
 22 24  1  0  0  0  0
 24 25  1  0  0  0  0
 24 26  1  0  0  0  0
 24 27  1  0  0  0  0
M  CHG  1  18  -1
M  END
$$$$

  -OEChem-01062216073D

 27 26  0     1  0  0  0  0  0999 V2000
   -3.2371   -2.9147    1.1218 H   0  0  0  0  0  0  0  0  0  0  0  0
   -3.1606   -1.8762    0.7880 C   0  0  0  0  0  0  0  0  0  0  0  0
   -3.5565   -1.2243    1.5710 H   0  0  0  0  0  0  0  0  0  0  0  0
   -3.7585   -1.7503   -0.1179 H   0  0  0  0  0  0  0  0  0  0  0  0
   -1.7116   -1.5196    0.5093 C   0  0  0  0  0  0  0  0  0  0  0  0
   -0.8388   -2.3683    0.6306 O   0  0  0  0  0  0  0  0  0  0  0  0
   -1.4069   -0.2971   -0.0535 N   0  0  0  0  0  0  0  0  0  0  0  0
   -2.2068    0.3189   -0.1732 H   0  0  0  0  0  0  0  0  0  0  0  0
   -0.1275    0.4008    0.1715 C   0  0  1  0  0  0  0  0  0  0  0  0
    0.5736    0.0567   -0.5939 H   0  0  0  0  0  0  0  0  0  0  0  0
   -0.3752    1.9058   -0.0213 C   0  0  0  0  0  0  0  0  0  0  0  0
   -1.1899    2.2328    0.6345 H   0  0  0  0  0  0  0  0  0  0  0  0
    0.5194    2.4711    0.2612 H   0  0  0  0  0  0  0  0  0  0  0  0
   -0.7157    2.2398   -1.4826 C   0  0  0  0  0  0  0  0  0  0  0  0
    0.1143    1.9506   -2.1340 H   0  0  0  0  0  0  0  0  0  0  0  0
   -1.6016    1.6868   -1.8075 H   0  0  0  0  0  0  0  0  0  0  0  0
   -0.9796    3.7346   -1.6395 C   0  0  0  0  0  0  0  0  0  0  0  0
    0.0184    4.4889   -1.7494 O   0  5  0  0  0  0  0  0  0  0  0  0
   -2.1745    4.1191   -1.6171 O   0  0  0  0  0  0  0  0  0  0  0  0
    0.5811    0.1717    1.5327 C   0  0  0  0  0  0  0  0  0  0  0  0
   -0.0474   -0.0883    2.5546 O   0  0  0  0  0  0  0  0  0  0  0  0
    1.9090    0.5407    1.6631 N   0  0  0  0  0  0  0  0  0  0  0  0
    2.3492    0.9545    0.8470 H   0  0  0  0  0  0  0  0  0  0  0  0
    2.5942    0.6278    2.9446 C   0  0  0  0  0  0  0  0  0  0  0  0
    2.5534   -0.3335    3.4670 H   0  0  0  0  0  0  0  0  0  0  0  0
    3.6445    0.8922    2.7908 H   0  0  0  0  0  0  0  0  0  0  0  0
    2.1312    1.3940    3.5748 H   0  0  0  0  0  0  0  0  0  0  0  0
  1  2  1  0  0  0  0
  2  3  1  0  0  0  0
  2  4  1  0  0  0  0
  2  5  1  0  0  0  0
  5  6  2  0  0  0  0
  5  7  1  0  0  0  0
  7  8  1  0  0  0  0
  7  9  1  0  0  0  0
  9 10  1  0  0  0  0
  9 11  1  0  0  0  0
  9 20  1  0  0  0  0
 11 12  1  0  0  0  0
 11 13  1  0  0  0  0
 11 14  1  0  0  0  0
 14 15  1  0  0  0  0
 14 16  1  0  0  0  0
 14 17  1  0  0  0  0
 17 18  1  0  0  0  0
 17 19  2  0  0  0  0
 20 21  2  0  0  0  0
 20 22  1  0  0  0  0
 22 23  1  0  0  0  0
 22 24  1  0  0  0  0
 24 25  1  0  0  0  0
 24 26  1  0  0  0  0
 24 27  1  0  0  0  0
M  CHG  1  18  -1
M  END
$$$$

  -OEChem-01062216073D

 27 26  0     1  0  0  0  0  0999 V2000
   -3.3433   -2.7753    1.1457 H   0  0  0  0  0  0  0  0  0  0  0  0
   -3.1975   -1.7399    0.8260 C   0  0  0  0  0  0  0  0  0  0  0  0
   -3.4492   -1.0771    1.6579 H   0  0  0  0  0  0  0  0  0  0  0  0
   -3.8652   -1.5297   -0.0131 H   0  0  0  0  0  0  0  0  0  0  0  0
   -1.7540   -1.5174    0.4114 C   0  0  0  0  0  0  0  0  0  0  0  0
   -0.9993   -2.4728    0.3007 O   0  0  0  0  0  0  0  0  0  0  0  0
   -1.3779   -0.2941   -0.1028 N   0  0  0  0  0  0  0  0  0  0  0  0
   -2.1510    0.3647   -0.1544 H   0  0  0  0  0  0  0  0  0  0  0  0
   -0.0806    0.3651    0.1568 C   0  0  1  0  0  0  0  0  0  0  0  0
    0.5290    0.2436   -0.7429 H   0  0  0  0  0  0  0  0  0  0  0  0
   -0.4018    1.8612    0.3443 C   0  0  0  0  0  0  0  0  0  0  0  0
   -1.1542    1.9796    1.1320 H   0  0  0  0  0  0  0  0  0  0  0  0
    0.4908    2.4084    0.6638 H   0  0  0  0  0  0  0  0  0  0  0  0
   -0.9042    2.5052   -0.9585 C   0  0  0  0  0  0  0  0  0  0  0  0
   -0.1366    2.4254   -1.7341 H   0  0  0  0  0  0  0  0  0  0  0  0
   -1.8006    1.9961   -1.3241 H   0  0  0  0  0  0  0  0  0  0  0  0
   -1.2328    3.9765   -0.7243 C   0  0  0  0  0  0  0  0  0  0  0  0
   -0.2822    4.7954   -0.7702 O   0  5  0  0  0  0  0  0  0  0  0  0
   -2.4239    4.2681   -0.4567 O   0  0  0  0  0  0  0  0  0  0  0  0
    0.8240   -0.1216    1.3280 C   0  0  0  0  0  0  0  0  0  0  0  0
    0.4036   -0.7997    2.2587 O   0  0  0  0  0  0  0  0  0  0  0  0
    2.0351    0.5205    1.5328 N   0  0  0  0  0  0  0  0  0  0  0  0
    2.2616    1.2722    0.8878 H   0  0  0  0  0  0  0  0  0  0  0  0
    2.8158    0.4019    2.7571 C   0  0  0  0  0  0  0  0  0  0  0  0
    3.0525   -0.6473    2.9610 H   0  0  0  0  0  0  0  0  0  0  0  0
    3.7552    0.9535    2.6570 H   0  0  0  0  0  0  0  0  0  0  0  0
    2.2603    0.8121    3.6066 H   0  0  0  0  0  0  0  0  0  0  0  0
  1  2  1  0  0  0  0
  2  3  1  0  0  0  0
  2  4  1  0  0  0  0
  2  5  1  0  0  0  0
  5  6  2  0  0  0  0
  5  7  1  0  0  0  0
  7  8  1  0  0  0  0
  7  9  1  0  0  0  0
  9 10  1  0  0  0  0
  9 11  1  0  0  0  0
  9 20  1  0  0  0  0
 11 12  1  0  0  0  0
 11 13  1  0  0  0  0
 11 14  1  0  0  0  0
 14 15  1  0  0  0  0
 14 16  1  0  0  0  0
 14 17  1  0  0  0  0
 17 18  1  0  0  0  0
 17 19  2  0  0  0  0
 20 21  2  0  0  0  0
 20 22  1  0  0  0  0
 22 23  1  0  0  0  0
 22 24  1  0  0  0  0
 24 25  1  0  0  0  0
 24 26  1  0  0  0  0
 24 27  1  0  0  0  0
M  CHG  1  18  -1
M  END
$$$$

  -OEChem-01062216073D

 27 26  0     1  0  0  0  0  0999 V2000
   -3.2945   -2.7259    1.2430 H   0  0  0  0  0  0  0  0  0  0  0  0
   -3.1564   -1.7089    0.8658 C   0  0  0  0  0  0  0  0  0  0  0  0
   -3.3802   -1.0037    1.6702 H   0  0  0  0  0  0  0  0  0  0  0  0
   -3.8495   -1.5387    0.0385 H   0  0  0  0  0  0  0  0  0  0  0  0
   -1.7262   -1.5151    0.3943 C   0  0  0  0  0  0  0  0  0  0  0  0
   -1.0171   -2.4913    0.2012 O   0  0  0  0  0  0  0  0  0  0  0  0
   -1.3423   -0.2891   -0.1078 N   0  0  0  0  0  0  0  0  0  0  0  0
   -2.1185    0.3661   -0.1567 H   0  0  0  0  0  0  0  0  0  0  0  0
   -0.0546    0.3875    0.1650 C   0  0  1  0  0  0  0  0  0  0  0  0
    0.5675    0.2757   -0.7276 H   0  0  0  0  0  0  0  0  0  0  0  0
   -0.4273    1.8781    0.3301 C   0  0  0  0  0  0  0  0  0  0  0  0
   -1.1934    1.9813    1.1069 H   0  0  0  0  0  0  0  0  0  0  0  0
    0.4384    2.4647    0.6501 H   0  0  0  0  0  0  0  0  0  0  0  0
   -0.9285    2.4990   -0.9841 C   0  0  0  0  0  0  0  0  0  0  0  0
   -0.1462    2.4408   -1.7468 H   0  0  0  0  0  0  0  0  0  0  0  0
   -1.8031    1.9623   -1.3624 H   0  0  0  0  0  0  0  0  0  0  0  0
   -1.3034    3.9602   -0.7558 C   0  0  0  0  0  0  0  0  0  0  0  0
   -0.3700    4.7997   -0.7370 O   0  5  0  0  0  0  0  0  0  0  0  0
   -2.5122    4.2203   -0.5399 O   0  0  0  0  0  0  0  0  0  0  0  0
    0.8590   -0.0751    1.3460 C   0  0  0  0  0  0  0  0  0  0  0  0
    0.5894   -1.0057    2.0937 O   0  0  0  0  0  0  0  0  0  0  0  0
    1.8883    0.7532    1.7668 N   0  0  0  0  0  0  0  0  0  0  0  0
    2.0013    1.6295    1.2642 H   0  0  0  0  0  0  0  0  0  0  0  0
    2.6447    0.5558    2.9965 C   0  0  0  0  0  0  0  0  0  0  0  0
    3.1131   -0.4338    3.0049 H   0  0  0  0  0  0  0  0  0  0  0  0
    3.4330    1.3103    3.0764 H   0  0  0  0  0  0  0  0  0  0  0  0
    1.9881    0.6451    3.8679 H   0  0  0  0  0  0  0  0  0  0  0  0
  1  2  1  0  0  0  0
  2  3  1  0  0  0  0
  2  4  1  0  0  0  0
  2  5  1  0  0  0  0
  5  6  2  0  0  0  0
  5  7  1  0  0  0  0
  7  8  1  0  0  0  0
  7  9  1  0  0  0  0
  9 10  1  0  0  0  0
  9 11  1  0  0  0  0
  9 20  1  0  0  0  0
 11 12  1  0  0  0  0
 11 13  1  0  0  0  0
 11 14  1  0  0  0  0
 14 15  1  0  0  0  0
 14 16  1  0  0  0  0
 14 17  1  0  0  0  0
 17 18  1  0  0  0  0
 17 19  2  0  0  0  0
 20 21  2  0  0  0  0
 20 22  1  0  0  0  0
 22 23  1  0  0  0  0
 22 24  1  0  0  0  0
 24 25  1  0  0  0  0
 24 26  1  0  0  0  0
 24 27  1  0  0  0  0
M  CHG  1  18  -1
M  END
$$$$

  -OEChem-01062216073D

 27 26  0     1  0  0  0  0  0999 V2000
   -3.6255   -2.7671    0.8754 H   0  0  0  0  0  0  0  0  0  0  0  0
   -3.3172   -1.8658    0.3379 C   0  0  0  0  0  0  0  0  0  0  0  0
   -4.1057   -1.1145    0.4287 H   0  0  0  0  0  0  0  0  0  0  0  0
   -3.1821   -2.1157   -0.7173 H   0  0  0  0  0  0  0  0  0  0  0  0
   -2.0187   -1.3258    0.9124 C   0  0  0  0  0  0  0  0  0  0  0  0
   -1.5726   -1.8531    1.9142 O   0  0  0  0  0  0  0  0  0  0  0  0
   -1.4998   -0.1763    0.3457 N   0  0  0  0  0  0  0  0  0  0  0  0
   -2.0830    0.2182   -0.3869 H   0  0  0  0  0  0  0  0  0  0  0  0
   -0.1669    0.4603    0.4721 C   0  0  1  0  0  0  0  0  0  0  0  0
    0.3940    0.2343   -0.4393 H   0  0  0  0  0  0  0  0  0  0  0  0
   -0.4600    1.9781    0.4893 C   0  0  0  0  0  0  0  0  0  0  0  0
   -1.1708    2.2094    1.2905 H   0  0  0  0  0  0  0  0  0  0  0  0
    0.4540    2.5460    0.6831 H   0  0  0  0  0  0  0  0  0  0  0  0
   -1.0097    2.4714   -0.8629 C   0  0  0  0  0  0  0  0  0  0  0  0
   -0.2727    2.2869   -1.6499 H   0  0  0  0  0  0  0  0  0  0  0  0
   -1.9244    1.9337   -1.1272 H   0  0  0  0  0  0  0  0  0  0  0  0
   -1.3140    3.9681   -0.8128 C   0  0  0  0  0  0  0  0  0  0  0  0
   -0.3559    4.7479   -0.5854 O   0  5  0  0  0  0  0  0  0  0  0  0
   -2.5031    4.3244   -0.9972 O   0  0  0  0  0  0  0  0  0  0  0  0
    0.8085    0.0369    1.6114 C   0  0  0  0  0  0  0  0  0  0  0  0
    1.1564   -1.1326    1.7181 O   0  0  0  0  0  0  0  0  0  0  0  0
    1.7071    0.9518    2.1395 N   0  0  0  0  0  0  0  0  0  0  0  0
    1.5157    1.9344    1.9642 H   0  0  0  0  0  0  0  0  0  0  0  0
    2.8221    0.6001    3.0090 C   0  0  0  0  0  0  0  0  0  0  0  0
    3.5514   -0.0113    2.4679 H   0  0  0  0  0  0  0  0  0  0  0  0
    3.3233    1.5066    3.3610 H   0  0  0  0  0  0  0  0  0  0  0  0
    2.4664    0.0409    3.8803 H   0  0  0  0  0  0  0  0  0  0  0  0
  1  2  1  0  0  0  0
  2  3  1  0  0  0  0
  2  4  1  0  0  0  0
  2  5  1  0  0  0  0
  5  6  2  0  0  0  0
  5  7  1  0  0  0  0
  7  8  1  0  0  0  0
  7  9  1  0  0  0  0
  9 10  1  0  0  0  0
  9 11  1  0  0  0  0
  9 20  1  0  0  0  0
 11 12  1  0  0  0  0
 11 13  1  0  0  0  0
 11 14  1  0  0  0  0
 14 15  1  0  0  0  0
 14 16  1  0  0  0  0
 14 17  1  0  0  0  0
 17 18  1  0  0  0  0
 17 19  2  0  0  0  0
 20 21  2  0  0  0  0
 20 22  1  0  0  0  0
 22 23  1  0  0  0  0
 22 24  1  0  0  0  0
 24 25  1  0  0  0  0
 24 26  1  0  0  0  0
 24 27  1  0  0  0  0
M  CHG  1  18  -1
M  END
$$$$

  -OEChem-01062216073D

 27 26  0     1  0  0  0  0  0999 V2000
   -3.6159   -2.7566    0.9202 H   0  0  0  0  0  0  0  0  0  0  0  0
   -3.3149   -1.8670    0.3597 C   0  0  0  0  0  0  0  0  0  0  0  0
   -4.0902   -1.1041    0.4677 H   0  0  0  0  0  0  0  0  0  0  0  0
   -3.2196   -2.1324   -0.6960 H   0  0  0  0  0  0  0  0  0  0  0  0
   -1.9900   -1.3372    0.8812 C   0  0  0  0  0  0  0  0  0  0  0  0
   -1.4852   -1.8885    1.8419 O   0  0  0  0  0  0  0  0  0  0  0  0
   -1.4913   -0.1815    0.3100 N   0  0  0  0  0  0  0  0  0  0  0  0
   -2.0937    0.2281   -0.3987 H   0  0  0  0  0  0  0  0  0  0  0  0
   -0.1647    0.4636    0.4422 C   0  0  1  0  0  0  0  0  0  0  0  0
    0.4063    0.2446   -0.4649 H   0  0  0  0  0  0  0  0  0  0  0  0
   -0.4580    1.9795    0.4692 C   0  0  0  0  0  0  0  0  0  0  0  0
   -1.1689    2.2073    1.2713 H   0  0  0  0  0  0  0  0  0  0  0  0
    0.4617    2.5385    0.6673 H   0  0  0  0  0  0  0  0  0  0  0  0
   -1.0063    2.4826   -0.8793 C   0  0  0  0  0  0  0  0  0  0  0  0
   -0.2690    2.3035   -1.6671 H   0  0  0  0  0  0  0  0  0  0  0  0
   -1.9208    1.9467   -1.1479 H   0  0  0  0  0  0  0  0  0  0  0  0
   -1.3110    3.9789   -0.8173 C   0  0  0  0  0  0  0  0  0  0  0  0
   -0.3553    4.7597   -0.5842 O   0  5  0  0  0  0  0  0  0  0  0  0
   -2.5029    4.3325   -0.9896 O   0  0  0  0  0  0  0  0  0  0  0  0
    0.7844    0.0243    1.5951 C   0  0  0  0  0  0  0  0  0  0  0  0
    1.2886   -1.0927    1.5630 O   0  0  0  0  0  0  0  0  0  0  0  0
    1.4559    0.9619    2.3646 N   0  0  0  0  0  0  0  0  0  0  0  0
    1.1347    1.9238    2.2989 H   0  0  0  0  0  0  0  0  0  0  0  0
    2.5464    0.6451    3.2762 C   0  0  0  0  0  0  0  0  0  0  0  0
    3.4071    0.2550    2.7234 H   0  0  0  0  0  0  0  0  0  0  0  0
    2.8591    1.5453    3.8135 H   0  0  0  0  0  0  0  0  0  0  0  0
    2.2264   -0.1020    4.0097 H   0  0  0  0  0  0  0  0  0  0  0  0
  1  2  1  0  0  0  0
  2  3  1  0  0  0  0
  2  4  1  0  0  0  0
  2  5  1  0  0  0  0
  5  6  2  0  0  0  0
  5  7  1  0  0  0  0
  7  8  1  0  0  0  0
  7  9  1  0  0  0  0
  9 10  1  0  0  0  0
  9 11  1  0  0  0  0
  9 20  1  0  0  0  0
 11 12  1  0  0  0  0
 11 13  1  0  0  0  0
 11 14  1  0  0  0  0
 14 15  1  0  0  0  0
 14 16  1  0  0  0  0
 14 17  1  0  0  0  0
 17 18  1  0  0  0  0
 17 19  2  0  0  0  0
 20 21  2  0  0  0  0
 20 22  1  0  0  0  0
 22 23  1  0  0  0  0
 22 24  1  0  0  0  0
 24 25  1  0  0  0  0
 24 26  1  0  0  0  0
 24 27  1  0  0  0  0
M  CHG  1  18  -1
M  END
$$$$

  -OEChem-01062216073D

 27 26  0     1  0  0  0  0  0999 V2000
   -3.5977   -2.7590    0.9408 H   0  0  0  0  0  0  0  0  0  0  0  0
   -3.3177   -1.8615    0.3822 C   0  0  0  0  0  0  0  0  0  0  0  0
   -4.0741   -1.0910    0.5525 H   0  0  0  0  0  0  0  0  0  0  0  0
   -3.2890   -2.1046   -0.6827 H   0  0  0  0  0  0  0  0  0  0  0  0
   -1.9570   -1.3607    0.8352 C   0  0  0  0  0  0  0  0  0  0  0  0
   -1.3871   -1.9570    1.7309 O   0  0  0  0  0  0  0  0  0  0  0  0
   -1.4742   -0.1988    0.2633 N   0  0  0  0  0  0  0  0  0  0  0  0
   -2.1031    0.2392   -0.4044 H   0  0  0  0  0  0  0  0  0  0  0  0
   -0.1546    0.4562    0.4043 C   0  0  1  0  0  0  0  0  0  0  0  0
    0.4254    0.2479   -0.4999 H   0  0  0  0  0  0  0  0  0  0  0  0
   -0.4489    1.9699    0.4495 C   0  0  0  0  0  0  0  0  0  0  0  0
   -1.1625    2.1881    1.2519 H   0  0  0  0  0  0  0  0  0  0  0  0
    0.4739    2.5210    0.6605 H   0  0  0  0  0  0  0  0  0  0  0  0
   -0.9963    2.4904   -0.8915 C   0  0  0  0  0  0  0  0  0  0  0  0
   -0.2608    2.3221   -1.6834 H   0  0  0  0  0  0  0  0  0  0  0  0
   -1.9117    1.9597   -1.1674 H   0  0  0  0  0  0  0  0  0  0  0  0
   -1.2988    3.9848   -0.8004 C   0  0  0  0  0  0  0  0  0  0  0  0
   -0.3267    4.7717   -0.6910 O   0  5  0  0  0  0  0  0  0  0  0  0
   -2.5058    4.3291   -0.8082 O   0  0  0  0  0  0  0  0  0  0  0  0
    0.7738    0.0097    1.5684 C   0  0  0  0  0  0  0  0  0  0  0  0
    1.4325   -1.0175    1.4456 O   0  0  0  0  0  0  0  0  0  0  0  0
    1.1891    0.9054    2.5408 N   0  0  0  0  0  0  0  0  0  0  0  0
    0.7269    1.8101    2.5586 H   0  0  0  0  0  0  0  0  0  0  0  0
    2.2304    0.6235    3.5181 C   0  0  0  0  0  0  0  0  0  0  0  0
    3.1919    0.4681    3.0185 H   0  0  0  0  0  0  0  0  0  0  0  0
    2.3318    1.4641    4.2107 H   0  0  0  0  0  0  0  0  0  0  0  0
    1.9805   -0.2727    4.0952 H   0  0  0  0  0  0  0  0  0  0  0  0
  1  2  1  0  0  0  0
  2  3  1  0  0  0  0
  2  4  1  0  0  0  0
  2  5  1  0  0  0  0
  5  6  2  0  0  0  0
  5  7  1  0  0  0  0
  7  8  1  0  0  0  0
  7  9  1  0  0  0  0
  9 10  1  0  0  0  0
  9 11  1  0  0  0  0
  9 20  1  0  0  0  0
 11 12  1  0  0  0  0
 11 13  1  0  0  0  0
 11 14  1  0  0  0  0
 14 15  1  0  0  0  0
 14 16  1  0  0  0  0
 14 17  1  0  0  0  0
 17 18  1  0  0  0  0
 17 19  2  0  0  0  0
 20 21  2  0  0  0  0
 20 22  1  0  0  0  0
 22 23  1  0  0  0  0
 22 24  1  0  0  0  0
 24 25  1  0  0  0  0
 24 26  1  0  0  0  0
 24 27  1  0  0  0  0
M  CHG  1  18  -1
M  END
$$$$

  -OEChem-01062216073D

 27 26  0     1  0  0  0  0  0999 V2000
   -3.5531   -2.7729    0.9491 H   0  0  0  0  0  0  0  0  0  0  0  0
   -3.3014   -1.8596    0.4025 C   0  0  0  0  0  0  0  0  0  0  0  0
   -4.0458   -1.0936    0.6351 H   0  0  0  0  0  0  0  0  0  0  0  0
   -3.3305   -2.0717   -0.6691 H   0  0  0  0  0  0  0  0  0  0  0  0
   -1.9170   -1.3739    0.7957 C   0  0  0  0  0  0  0  0  0  0  0  0
   -1.2949   -2.0018    1.6336 O   0  0  0  0  0  0  0  0  0  0  0  0
   -1.4510   -0.2071    0.2202 N   0  0  0  0  0  0  0  0  0  0  0  0
   -2.1063    0.2571   -0.4032 H   0  0  0  0  0  0  0  0  0  0  0  0
   -0.1370    0.4566    0.3643 C   0  0  1  0  0  0  0  0  0  0  0  0
    0.4470    0.2592   -0.5399 H   0  0  0  0  0  0  0  0  0  0  0  0
   -0.4356    1.9673    0.4291 C   0  0  0  0  0  0  0  0  0  0  0  0
   -1.1509    2.1727    1.2336 H   0  0  0  0  0  0  0  0  0  0  0  0
    0.4870    2.5150    0.6518 H   0  0  0  0  0  0  0  0  0  0  0  0
   -0.9887    2.5017   -0.9032 C   0  0  0  0  0  0  0  0  0  0  0  0
   -0.2559    2.3432   -1.7001 H   0  0  0  0  0  0  0  0  0  0  0  0
   -1.9054    1.9760   -1.1841 H   0  0  0  0  0  0  0  0  0  0  0  0
   -1.2936    3.9926   -0.7862 C   0  0  0  0  0  0  0  0  0  0  0  0
   -0.3615    4.8018   -1.0110 O   0  5  0  0  0  0  0  0  0  0  0  0
   -2.4528    4.3114   -0.4242 O   0  0  0  0  0  0  0  0  0  0  0  0
    0.7816    0.0093    1.5324 C   0  0  0  0  0  0  0  0  0  0  0  0
    1.5850   -0.8995    1.3500 O   0  0  0  0  0  0  0  0  0  0  0  0
    0.9410    0.7950    2.6616 N   0  0  0  0  0  0  0  0  0  0  0  0
    0.3169    1.5903    2.7588 H   0  0  0  0  0  0  0  0  0  0  0  0
    1.8865    0.4990    3.7274 C   0  0  0  0  0  0  0  0  0  0  0  0
    2.9137    0.5520    3.3527 H   0  0  0  0  0  0  0  0  0  0  0  0
    1.7756    1.2236    4.5393 H   0  0  0  0  0  0  0  0  0  0  0  0
    1.7064   -0.5029    4.1306 H   0  0  0  0  0  0  0  0  0  0  0  0
  1  2  1  0  0  0  0
  2  3  1  0  0  0  0
  2  4  1  0  0  0  0
  2  5  1  0  0  0  0
  5  6  2  0  0  0  0
  5  7  1  0  0  0  0
  7  8  1  0  0  0  0
  7  9  1  0  0  0  0
  9 10  1  0  0  0  0
  9 11  1  0  0  0  0
  9 20  1  0  0  0  0
 11 12  1  0  0  0  0
 11 13  1  0  0  0  0
 11 14  1  0  0  0  0
 14 15  1  0  0  0  0
 14 16  1  0  0  0  0
 14 17  1  0  0  0  0
 17 18  1  0  0  0  0
 17 19  2  0  0  0  0
 20 21  2  0  0  0  0
 20 22  1  0  0  0  0
 22 23  1  0  0  0  0
 22 24  1  0  0  0  0
 24 25  1  0  0  0  0
 24 26  1  0  0  0  0
 24 27  1  0  0  0  0
M  CHG  1  18  -1
M  END
$$$$

  -OEChem-01062216073D

 27 26  0     1  0  0  0  0  0999 V2000
   -3.5551   -2.7406    1.1230 H   0  0  0  0  0  0  0  0  0  0  0  0
   -3.3331   -1.8286    0.5617 C   0  0  0  0  0  0  0  0  0  0  0  0
   -4.0280   -1.0450    0.8746 H   0  0  0  0  0  0  0  0  0  0  0  0
   -3.4760   -2.0271   -0.5033 H   0  0  0  0  0  0  0  0  0  0  0  0
   -1.9031   -1.3858    0.8186 C   0  0  0  0  0  0  0  0  0  0  0  0
   -1.2088   -2.0515    1.5663 O   0  0  0  0  0  0  0  0  0  0  0  0
   -1.4634   -0.2229    0.2156 N   0  0  0  0  0  0  0  0  0  0  0  0
   -2.1630    0.2726   -0.3313 H   0  0  0  0  0  0  0  0  0  0  0  0
   -0.1442    0.4387    0.3065 C   0  0  1  0  0  0  0  0  0  0  0  0
    0.4042    0.2467   -0.6210 H   0  0  0  0  0  0  0  0  0  0  0  0
   -0.4373    1.9477    0.4014 C   0  0  0  0  0  0  0  0  0  0  0  0
   -1.1173    2.1442    1.2379 H   0  0  0  0  0  0  0  0  0  0  0  0
    0.4956    2.4893    0.5948 H   0  0  0  0  0  0  0  0  0  0  0  0
   -1.0501    2.4981   -0.8980 C   0  0  0  0  0  0  0  0  0  0  0  0
   -0.3566    2.3451   -1.7304 H   0  0  0  0  0  0  0  0  0  0  0  0
   -1.9811    1.9784   -1.1397 H   0  0  0  0  0  0  0  0  0  0  0  0
   -1.3480    3.9877   -0.7505 C   0  0  0  0  0  0  0  0  0  0  0  0
   -2.4248    4.2961   -0.1823 O   0  5  0  0  0  0  0  0  0  0  0  0
   -0.4960    4.8065   -1.1720 O   0  0  0  0  0  0  0  0  0  0  0  0
    0.8112   -0.0053    1.4431 C   0  0  0  0  0  0  0  0  0  0  0  0
    1.7416   -0.7640    1.1923 O   0  0  0  0  0  0  0  0  0  0  0  0
    0.7813    0.6182    2.6785 N   0  0  0  0  0  0  0  0  0  0  0  0
    0.0192    1.2680    2.8448 H   0  0  0  0  0  0  0  0  0  0  0  0
    1.7103    0.3187    3.7574 C   0  0  0  0  0  0  0  0  0  0  0  0
    2.7321    0.5809    3.4649 H   0  0  0  0  0  0  0  0  0  0  0  0
    1.4466    0.8938    4.6498 H   0  0  0  0  0  0  0  0  0  0  0  0
    1.6746   -0.7464    4.0081 H   0  0  0  0  0  0  0  0  0  0  0  0
  1  2  1  0  0  0  0
  2  3  1  0  0  0  0
  2  4  1  0  0  0  0
  2  5  1  0  0  0  0
  5  6  2  0  0  0  0
  5  7  1  0  0  0  0
  7  8  1  0  0  0  0
  7  9  1  0  0  0  0
  9 10  1  0  0  0  0
  9 11  1  0  0  0  0
  9 20  1  0  0  0  0
 11 12  1  0  0  0  0
 11 13  1  0  0  0  0
 11 14  1  0  0  0  0
 14 15  1  0  0  0  0
 14 16  1  0  0  0  0
 14 17  1  0  0  0  0
 17 18  1  0  0  0  0
 17 19  2  0  0  0  0
 20 21  2  0  0  0  0
 20 22  1  0  0  0  0
 22 23  1  0  0  0  0
 22 24  1  0  0  0  0
 24 25  1  0  0  0  0
 24 26  1  0  0  0  0
 24 27  1  0  0  0  0
M  CHG  1  18  -1
M  END
$$$$

  -OEChem-01062216073D

 27 26  0     1  0  0  0  0  0999 V2000
   -3.5111   -2.7413    1.1348 H   0  0  0  0  0  0  0  0  0  0  0  0
   -3.3041   -1.8215    0.5803 C   0  0  0  0  0  0  0  0  0  0  0  0
   -3.9936   -1.0437    0.9188 H   0  0  0  0  0  0  0  0  0  0  0  0
   -3.4705   -2.0066   -0.4839 H   0  0  0  0  0  0  0  0  0  0  0  0
   -1.8701   -1.3781    0.8107 C   0  0  0  0  0  0  0  0  0  0  0  0
   -1.1573   -2.0464    1.5390 O   0  0  0  0  0  0  0  0  0  0  0  0
   -1.4395   -0.2175    0.1976 N   0  0  0  0  0  0  0  0  0  0  0  0
   -2.1466    0.2781   -0.3396 H   0  0  0  0  0  0  0  0  0  0  0  0
   -0.1243    0.4527    0.2837 C   0  0  1  0  0  0  0  0  0  0  0  0
    0.4243    0.2663   -0.6447 H   0  0  0  0  0  0  0  0  0  0  0  0
   -0.4285    1.9578    0.3892 C   0  0  0  0  0  0  0  0  0  0  0  0
   -1.1034    2.1453    1.2318 H   0  0  0  0  0  0  0  0  0  0  0  0
    0.5014    2.5045    0.5819 H   0  0  0  0  0  0  0  0  0  0  0  0
   -1.0544    2.5076   -0.9051 C   0  0  0  0  0  0  0  0  0  0  0  0
   -0.3641    2.3600   -1.7412 H   0  0  0  0  0  0  0  0  0  0  0  0
   -1.9827    1.9811   -1.1418 H   0  0  0  0  0  0  0  0  0  0  0  0
   -1.3677    3.9946   -0.7582 C   0  0  0  0  0  0  0  0  0  0  0  0
   -2.3766    4.2948   -0.0722 O   0  5  0  0  0  0  0  0  0  0  0  0
   -0.6089    4.8197   -1.3215 O   0  0  0  0  0  0  0  0  0  0  0  0
    0.8318    0.0249    1.4234 C   0  0  0  0  0  0  0  0  0  0  0  0
    1.8780   -0.5566    1.1559 O   0  0  0  0  0  0  0  0  0  0  0  0
    0.6009    0.4306    2.7258 N   0  0  0  0  0  0  0  0  0  0  0  0
   -0.3064    0.8451    2.9118 H   0  0  0  0  0  0  0  0  0  0  0  0
    1.4340    0.0238    3.8465 C   0  0  0  0  0  0  0  0  0  0  0  0
    2.4714    0.3337    3.6851 H   0  0  0  0  0  0  0  0  0  0  0  0
    1.0752    0.4889    4.7694 H   0  0  0  0  0  0  0  0  0  0  0  0
    1.4030   -1.0636    3.9687 H   0  0  0  0  0  0  0  0  0  0  0  0
  1  2  1  0  0  0  0
  2  3  1  0  0  0  0
  2  4  1  0  0  0  0
  2  5  1  0  0  0  0
  5  6  2  0  0  0  0
  5  7  1  0  0  0  0
  7  8  1  0  0  0  0
  7  9  1  0  0  0  0
  9 10  1  0  0  0  0
  9 11  1  0  0  0  0
  9 20  1  0  0  0  0
 11 12  1  0  0  0  0
 11 13  1  0  0  0  0
 11 14  1  0  0  0  0
 14 15  1  0  0  0  0
 14 16  1  0  0  0  0
 14 17  1  0  0  0  0
 17 18  1  0  0  0  0
 17 19  2  0  0  0  0
 20 21  2  0  0  0  0
 20 22  1  0  0  0  0
 22 23  1  0  0  0  0
 22 24  1  0  0  0  0
 24 25  1  0  0  0  0
 24 26  1  0  0  0  0
 24 27  1  0  0  0  0
M  CHG  1  18  -1
M  END
$$$$

  -OEChem-01062216073D

 27 26  0     1  0  0  0  0  0999 V2000
   -3.5355   -2.7133    1.1440 H   0  0  0  0  0  0  0  0  0  0  0  0
   -3.3208   -1.7983    0.5848 C   0  0  0  0  0  0  0  0  0  0  0  0
   -3.9912   -1.0080    0.9325 H   0  0  0  0  0  0  0  0  0  0  0  0
   -3.5073   -1.9822   -0.4762 H   0  0  0  0  0  0  0  0  0  0  0  0
   -1.8759   -1.3797    0.7912 C   0  0  0  0  0  0  0  0  0  0  0  0
   -1.1568   -2.0688    1.4935 O   0  0  0  0  0  0  0  0  0  0  0  0
   -1.4360   -0.2212    0.1816 N   0  0  0  0  0  0  0  0  0  0  0  0
   -2.1457    0.2912   -0.3369 H   0  0  0  0  0  0  0  0  0  0  0  0
   -0.1211    0.4507    0.2793 C   0  0  1  0  0  0  0  0  0  0  0  0
    0.4336    0.2685   -0.6468 H   0  0  0  0  0  0  0  0  0  0  0  0
   -0.4312    1.9535    0.3893 C   0  0  0  0  0  0  0  0  0  0  0  0
   -1.1101    2.1360    1.2297 H   0  0  0  0  0  0  0  0  0  0  0  0
    0.4965    2.5019    0.5891 H   0  0  0  0  0  0  0  0  0  0  0  0
   -1.0506    2.5039   -0.9089 C   0  0  0  0  0  0  0  0  0  0  0  0
   -0.3529    2.3635   -1.7402 H   0  0  0  0  0  0  0  0  0  0  0  0
   -1.9734    1.9723   -1.1559 H   0  0  0  0  0  0  0  0  0  0  0  0
   -1.3728    3.9889   -0.7633 C   0  0  0  0  0  0  0  0  0  0  0  0
   -2.4390    4.2786   -0.1650 O   0  5  0  0  0  0  0  0  0  0  0  0
   -0.5661    4.8225   -1.2409 O   0  0  0  0  0  0  0  0  0  0  0  0
    0.8335    0.0374    1.4252 C   0  0  0  0  0  0  0  0  0  0  0  0
    1.9805   -0.3112    1.1669 O   0  0  0  0  0  0  0  0  0  0  0  0
    0.4510    0.1781    2.7470 N   0  0  0  0  0  0  0  0  0  0  0  0
   -0.5436    0.3064    2.9000 H   0  0  0  0  0  0  0  0  0  0  0  0
    1.2714   -0.2787    3.8579 C   0  0  0  0  0  0  0  0  0  0  0  0
    2.2368    0.2378    3.8588 H   0  0  0  0  0  0  0  0  0  0  0  0
    0.7680   -0.0701    4.8064 H   0  0  0  0  0  0  0  0  0  0  0  0
    1.4453   -1.3573    3.7856 H   0  0  0  0  0  0  0  0  0  0  0  0
  1  2  1  0  0  0  0
  2  3  1  0  0  0  0
  2  4  1  0  0  0  0
  2  5  1  0  0  0  0
  5  6  2  0  0  0  0
  5  7  1  0  0  0  0
  7  8  1  0  0  0  0
  7  9  1  0  0  0  0
  9 10  1  0  0  0  0
  9 11  1  0  0  0  0
  9 20  1  0  0  0  0
 11 12  1  0  0  0  0
 11 13  1  0  0  0  0
 11 14  1  0  0  0  0
 14 15  1  0  0  0  0
 14 16  1  0  0  0  0
 14 17  1  0  0  0  0
 17 18  1  0  0  0  0
 17 19  2  0  0  0  0
 20 21  2  0  0  0  0
 20 22  1  0  0  0  0
 22 23  1  0  0  0  0
 22 24  1  0  0  0  0
 24 25  1  0  0  0  0
 24 26  1  0  0  0  0
 24 27  1  0  0  0  0
M  CHG  1  18  -1
M  END
$$$$

  -OEChem-01062216073D

 27 26  0     1  0  0  0  0  0999 V2000
   -3.6263   -2.6795    1.0679 H   0  0  0  0  0  0  0  0  0  0  0  0
   -3.3801   -1.7639    0.5227 C   0  0  0  0  0  0  0  0  0  0  0  0
   -4.0390   -0.9620    0.8661 H   0  0  0  0  0  0  0  0  0  0  0  0
   -3.5507   -1.9324   -0.5437 H   0  0  0  0  0  0  0  0  0  0  0  0
   -1.9303   -1.3802    0.7615 C   0  0  0  0  0  0  0  0  0  0  0  0
   -1.2407   -2.0888    1.4740 O   0  0  0  0  0  0  0  0  0  0  0  0
   -1.4516   -0.2269    0.1738 N   0  0  0  0  0  0  0  0  0  0  0  0
   -2.1447    0.3057   -0.3473 H   0  0  0  0  0  0  0  0  0  0  0  0
   -0.1318    0.4341    0.3002 C   0  0  1  0  0  0  0  0  0  0  0  0
    0.4335    0.2543   -0.6197 H   0  0  0  0  0  0  0  0  0  0  0  0
   -0.4477    1.9361    0.4087 C   0  0  0  0  0  0  0  0  0  0  0  0
   -1.1433    2.1132    1.2368 H   0  0  0  0  0  0  0  0  0  0  0  0
    0.4733    2.4878    0.6288 H   0  0  0  0  0  0  0  0  0  0  0  0
   -1.0415    2.4878   -0.9017 C   0  0  0  0  0  0  0  0  0  0  0  0
   -0.3257    2.3499   -1.7178 H   0  0  0  0  0  0  0  0  0  0  0  0
   -1.9570    1.9541   -1.1695 H   0  0  0  0  0  0  0  0  0  0  0  0
   -1.3725    3.9716   -0.7650 C   0  0  0  0  0  0  0  0  0  0  0  0
   -2.4652    4.2565   -0.2141 O   0  5  0  0  0  0  0  0  0  0  0  0
   -0.5521    4.8089   -1.2120 O   0  0  0  0  0  0  0  0  0  0  0  0
    0.8249    0.0366    1.4525 C   0  0  0  0  0  0  0  0  0  0  0  0
    2.0287   -0.0407    1.2319 O   0  0  0  0  0  0  0  0  0  0  0  0
    0.3711   -0.1150    2.7496 N   0  0  0  0  0  0  0  0  0  0  0  0
   -0.6170   -0.3446    2.8117 H   0  0  0  0  0  0  0  0  0  0  0  0
    1.2363   -0.5682    3.8282 C   0  0  0  0  0  0  0  0  0  0  0  0
    2.0873    0.1099    3.9485 H   0  0  0  0  0  0  0  0  0  0  0  0
    0.6800   -0.5919    4.7696 H   0  0  0  0  0  0  0  0  0  0  0  0
    1.6111   -1.5751    3.6186 H   0  0  0  0  0  0  0  0  0  0  0  0
  1  2  1  0  0  0  0
  2  3  1  0  0  0  0
  2  4  1  0  0  0  0
  2  5  1  0  0  0  0
  5  6  2  0  0  0  0
  5  7  1  0  0  0  0
  7  8  1  0  0  0  0
  7  9  1  0  0  0  0
  9 10  1  0  0  0  0
  9 11  1  0  0  0  0
  9 20  1  0  0  0  0
 11 12  1  0  0  0  0
 11 13  1  0  0  0  0
 11 14  1  0  0  0  0
 14 15  1  0  0  0  0
 14 16  1  0  0  0  0
 14 17  1  0  0  0  0
 17 18  1  0  0  0  0
 17 19  2  0  0  0  0
 20 21  2  0  0  0  0
 20 22  1  0  0  0  0
 22 23  1  0  0  0  0
 22 24  1  0  0  0  0
 24 25  1  0  0  0  0
 24 26  1  0  0  0  0
 24 27  1  0  0  0  0
M  CHG  1  18  -1
M  END
$$$$

  -OEChem-01062216073D

 27 26  0     1  0  0  0  0  0999 V2000
   -3.7298   -2.6459    0.9686 H   0  0  0  0  0  0  0  0  0  0  0  0
   -3.4543   -1.7133    0.4680 C   0  0  0  0  0  0  0  0  0  0  0  0
   -4.0815   -0.9066    0.8564 H   0  0  0  0  0  0  0  0  0  0  0  0
   -3.6381   -1.8217   -0.6039 H   0  0  0  0  0  0  0  0  0  0  0  0
   -1.9902   -1.3936    0.7127 C   0  0  0  0  0  0  0  0  0  0  0  0
   -1.3210   -2.1643    1.3795 O   0  0  0  0  0  0  0  0  0  0  0  0
   -1.4702   -0.2426    0.1572 N   0  0  0  0  0  0  0  0  0  0  0  0
   -2.1541    0.3282   -0.3355 H   0  0  0  0  0  0  0  0  0  0  0  0
   -0.1455    0.4054    0.3155 C   0  0  1  0  0  0  0  0  0  0  0  0
    0.4293    0.2297   -0.5991 H   0  0  0  0  0  0  0  0  0  0  0  0
   -0.4638    1.9082    0.4242 C   0  0  0  0  0  0  0  0  0  0  0  0
   -1.1750    2.0815    1.2397 H   0  0  0  0  0  0  0  0  0  0  0  0
    0.4518    2.4603    0.6647 H   0  0  0  0  0  0  0  0  0  0  0  0
   -1.0292    2.4669   -0.8968 C   0  0  0  0  0  0  0  0  0  0  0  0
   -0.2962    2.3303   -1.6976 H   0  0  0  0  0  0  0  0  0  0  0  0
   -1.9398    1.9363   -1.1860 H   0  0  0  0  0  0  0  0  0  0  0  0
   -1.3643    3.9504   -0.7641 C   0  0  0  0  0  0  0  0  0  0  0  0
   -2.4386    4.2346   -0.1777 O   0  5  0  0  0  0  0  0  0  0  0  0
   -0.5740    4.7871   -1.2634 O   0  0  0  0  0  0  0  0  0  0  0  0
    0.8152    0.0151    1.4711 C   0  0  0  0  0  0  0  0  0  0  0  0
    2.0190    0.1933    1.3218 O   0  0  0  0  0  0  0  0  0  0  0  0
    0.3680   -0.4351    2.6987 N   0  0  0  0  0  0  0  0  0  0  0  0
   -0.5398   -0.8964    2.6514 H   0  0  0  0  0  0  0  0  0  0  0  0
    1.2761   -0.8537    3.7562 C   0  0  0  0  0  0  0  0  0  0  0  0
    1.9229   -0.0229    4.0562 H   0  0  0  0  0  0  0  0  0  0  0  0
    0.7062   -1.1795    4.6313 H   0  0  0  0  0  0  0  0  0  0  0  0
    1.9009   -1.6861    3.4171 H   0  0  0  0  0  0  0  0  0  0  0  0
  1  2  1  0  0  0  0
  2  3  1  0  0  0  0
  2  4  1  0  0  0  0
  2  5  1  0  0  0  0
  5  6  2  0  0  0  0
  5  7  1  0  0  0  0
  7  8  1  0  0  0  0
  7  9  1  0  0  0  0
  9 10  1  0  0  0  0
  9 11  1  0  0  0  0
  9 20  1  0  0  0  0
 11 12  1  0  0  0  0
 11 13  1  0  0  0  0
 11 14  1  0  0  0  0
 14 15  1  0  0  0  0
 14 16  1  0  0  0  0
 14 17  1  0  0  0  0
 17 18  1  0  0  0  0
 17 19  2  0  0  0  0
 20 21  2  0  0  0  0
 20 22  1  0  0  0  0
 22 23  1  0  0  0  0
 22 24  1  0  0  0  0
 24 25  1  0  0  0  0
 24 26  1  0  0  0  0
 24 27  1  0  0  0  0
M  CHG  1  18  -1
M  END
$$$$

  -OEChem-01062216073D

 27 26  0     1  0  0  0  0  0999 V2000
   -3.8017   -2.5982    0.9093 H   0  0  0  0  0  0  0  0  0  0  0  0
   -3.5034   -1.6523    0.4483 C   0  0  0  0  0  0  0  0  0  0  0  0
   -4.0808   -0.8425    0.9024 H   0  0  0  0  0  0  0  0  0  0  0  0
   -3.7303   -1.6940   -0.6200 H   0  0  0  0  0  0  0  0  0  0  0  0
   -2.0188   -1.4077    0.6535 C   0  0  0  0  0  0  0  0  0  0  0  0
   -1.3565   -2.2543    1.2295 O   0  0  0  0  0  0  0  0  0  0  0  0
   -1.4693   -0.2553    0.1304 N   0  0  0  0  0  0  0  0  0  0  0  0
   -2.1521    0.3547   -0.3151 H   0  0  0  0  0  0  0  0  0  0  0  0
   -0.1453    0.3874    0.3247 C   0  0  1  0  0  0  0  0  0  0  0  0
    0.4450    0.2207   -0.5812 H   0  0  0  0  0  0  0  0  0  0  0  0
   -0.4840    1.8880    0.4315 C   0  0  0  0  0  0  0  0  0  0  0  0
   -1.2167    2.0497    1.2302 H   0  0  0  0  0  0  0  0  0  0  0  0
    0.4174    2.4522    0.6968 H   0  0  0  0  0  0  0  0  0  0  0  0
   -1.0222    2.4488   -0.9012 C   0  0  0  0  0  0  0  0  0  0  0  0
   -0.2661    2.3248   -1.6824 H   0  0  0  0  0  0  0  0  0  0  0  0
   -1.9191    1.9111   -1.2191 H   0  0  0  0  0  0  0  0  0  0  0  0
   -1.3778    3.9280   -0.7709 C   0  0  0  0  0  0  0  0  0  0  0  0
   -2.4413    4.1982   -0.1585 O   0  5  0  0  0  0  0  0  0  0  0  0
   -0.6213    4.7737   -1.3061 O   0  0  0  0  0  0  0  0  0  0  0  0
    0.8123    0.0042    1.4901 C   0  0  0  0  0  0  0  0  0  0  0  0
    1.9778    0.3803    1.4349 O   0  0  0  0  0  0  0  0  0  0  0  0
    0.4309   -0.7214    2.6022 N   0  0  0  0  0  0  0  0  0  0  0  0
   -0.4181   -1.2714    2.4698 H   0  0  0  0  0  0  0  0  0  0  0  0
    1.3704   -1.1649    3.6219 C   0  0  0  0  0  0  0  0  0  0  0  0
    1.8773   -0.3073    4.0760 H   0  0  0  0  0  0  0  0  0  0  0  0
    0.8386   -1.7066    4.4096 H   0  0  0  0  0  0  0  0  0  0  0  0
    2.1217   -1.8316    3.1866 H   0  0  0  0  0  0  0  0  0  0  0  0
  1  2  1  0  0  0  0
  2  3  1  0  0  0  0
  2  4  1  0  0  0  0
  2  5  1  0  0  0  0
  5  6  2  0  0  0  0
  5  7  1  0  0  0  0
  7  8  1  0  0  0  0
  7  9  1  0  0  0  0
  9 10  1  0  0  0  0
  9 11  1  0  0  0  0
  9 20  1  0  0  0  0
 11 12  1  0  0  0  0
 11 13  1  0  0  0  0
 11 14  1  0  0  0  0
 14 15  1  0  0  0  0
 14 16  1  0  0  0  0
 14 17  1  0  0  0  0
 17 18  1  0  0  0  0
 17 19  2  0  0  0  0
 20 21  2  0  0  0  0
 20 22  1  0  0  0  0
 22 23  1  0  0  0  0
 22 24  1  0  0  0  0
 24 25  1  0  0  0  0
 24 26  1  0  0  0  0
 24 27  1  0  0  0  0
M  CHG  1  18  -1
M  END
$$$$

  -OEChem-01062216073D

 27 26  0     1  0  0  0  0  0999 V2000
   -3.5127   -2.6395    1.3518 H   0  0  0  0  0  0  0  0  0  0  0  0
   -3.2874   -1.7044    0.8315 C   0  0  0  0  0  0  0  0  0  0  0  0
   -3.8018   -0.8860    1.3418 H   0  0  0  0  0  0  0  0  0  0  0  0
   -3.6575   -1.7721   -0.1946 H   0  0  0  0  0  0  0  0  0  0  0  0
   -1.7903   -1.4506    0.8261 C   0  0  0  0  0  0  0  0  0  0  0  0
   -1.0407   -2.3471    1.1703 O   0  0  0  0  0  0  0  0  0  0  0  0
   -1.3226   -0.3087    0.2128 N   0  0  0  0  0  0  0  0  0  0  0  0
   -2.0733    0.2519   -0.1855 H   0  0  0  0  0  0  0  0  0  0  0  0
   -0.1130    0.5002    0.4941 C   0  0  1  0  0  0  0  0  0  0  0  0
    0.6155    0.2958   -0.2956 H   0  0  0  0  0  0  0  0  0  0  0  0
   -0.6255    1.9506    0.3393 C   0  0  0  0  0  0  0  0  0  0  0  0
   -1.4818    2.1158    1.0029 H   0  0  0  0  0  0  0  0  0  0  0  0
    0.1548    2.6604    0.6342 H   0  0  0  0  0  0  0  0  0  0  0  0
   -1.0142    2.2712   -1.1186 C   0  0  0  0  0  0  0  0  0  0  0  0
   -0.1403    2.1494   -1.7657 H   0  0  0  0  0  0  0  0  0  0  0  0
   -1.7900    1.5894   -1.4764 H   0  0  0  0  0  0  0  0  0  0  0  0
   -1.5419    3.6989   -1.2414 C   0  0  0  0  0  0  0  0  0  0  0  0
   -2.6936    3.9142   -0.7867 O   0  5  0  0  0  0  0  0  0  0  0  0
   -0.8208    4.5551   -1.8084 O   0  0  0  0  0  0  0  0  0  0  0  0
    0.7023    0.3618    1.8197 C   0  0  0  0  0  0  0  0  0  0  0  0
    1.5663    1.1761    2.1122 O   0  0  0  0  0  0  0  0  0  0  0  0
    0.4605   -0.4721    2.8832 N   0  0  0  0  0  0  0  0  0  0  0  0
    0.6296    0.0607    3.7301 H   0  0  0  0  0  0  0  0  0  0  0  0
    1.2120   -1.7210    2.9008 C   0  0  0  0  0  0  0  0  0  0  0  0
    2.1605   -1.5797    3.4281 H   0  0  0  0  0  0  0  0  0  0  0  0
    0.6370   -2.4973    3.4147 H   0  0  0  0  0  0  0  0  0  0  0  0
    1.4346   -2.0693    1.8866 H   0  0  0  0  0  0  0  0  0  0  0  0
  1  2  1  0  0  0  0
  2  3  1  0  0  0  0
  2  4  1  0  0  0  0
  2  5  1  0  0  0  0
  5  6  2  0  0  0  0
  5  7  1  0  0  0  0
  7  8  1  0  0  0  0
  7  9  1  0  0  0  0
  9 10  1  0  0  0  0
  9 11  1  0  0  0  0
  9 20  1  0  0  0  0
 11 12  1  0  0  0  0
 11 13  1  0  0  0  0
 11 14  1  0  0  0  0
 14 15  1  0  0  0  0
 14 16  1  0  0  0  0
 14 17  1  0  0  0  0
 17 18  1  0  0  0  0
 17 19  2  0  0  0  0
 20 21  2  0  0  0  0
 20 22  1  0  0  0  0
 22 23  1  0  0  0  0
 22 24  1  0  0  0  0
 24 25  1  0  0  0  0
 24 26  1  0  0  0  0
 24 27  1  0  0  0  0
M  CHG  1  18  -1
M  END
$$$$

  -OEChem-01062216073D

 27 26  0     1  0  0  0  0  0999 V2000
   -3.1817   -2.8526    1.2645 H   0  0  0  0  0  0  0  0  0  0  0  0
   -3.0684   -1.8547    0.8317 C   0  0  0  0  0  0  0  0  0  0  0  0
   -3.4255   -1.1161    1.5541 H   0  0  0  0  0  0  0  0  0  0  0  0
   -3.6771   -1.7900   -0.0737 H   0  0  0  0  0  0  0  0  0  0  0  0
   -1.6119   -1.5879    0.4963 C   0  0  0  0  0  0  0  0  0  0  0  0
   -0.8248   -2.5187    0.4965 O   0  0  0  0  0  0  0  0  0  0  0  0
   -1.2652   -0.3456    0.0122 N   0  0  0  0  0  0  0  0  0  0  0  0
   -2.0634    0.2800   -0.0753 H   0  0  0  0  0  0  0  0  0  0  0  0
    0.0224    0.3852    0.0873 C   0  0  1  0  0  0  0  0  0  0  0  0
    0.4738    0.3665   -0.9093 H   0  0  0  0  0  0  0  0  0  0  0  0
   -0.4246    1.8251    0.4211 C   0  0  0  0  0  0  0  0  0  0  0  0
   -1.0337    1.8233    1.3321 H   0  0  0  0  0  0  0  0  0  0  0  0
    0.4532    2.4503    0.6197 H   0  0  0  0  0  0  0  0  0  0  0  0
   -1.2082    2.4762   -0.7368 C   0  0  0  0  0  0  0  0  0  0  0  0
   -0.5757    2.5187   -1.6287 H   0  0  0  0  0  0  0  0  0  0  0  0
   -2.0969    1.8914   -0.9869 H   0  0  0  0  0  0  0  0  0  0  0  0
   -1.6576    3.8871   -0.3626 C   0  0  0  0  0  0  0  0  0  0  0  0
   -2.5679    3.9760    0.4996 O   0  5  0  0  0  0  0  0  0  0  0  0
   -1.1251    4.8601   -0.9488 O   0  0  0  0  0  0  0  0  0  0  0  0
    1.1891    0.0087    1.0551 C   0  0  0  0  0  0  0  0  0  0  0  0
    2.2648    0.5732    0.9167 O   0  0  0  0  0  0  0  0  0  0  0  0
    1.3954   -1.1371    1.7810 N   0  0  0  0  0  0  0  0  0  0  0  0
    2.3877   -1.2414    1.9655 H   0  0  0  0  0  0  0  0  0  0  0  0
    0.5316   -1.4275    2.9172 C   0  0  0  0  0  0  0  0  0  0  0  0
   -0.4028   -0.8595    2.8679 H   0  0  0  0  0  0  0  0  0  0  0  0
    0.2915   -2.4947    2.9459 H   0  0  0  0  0  0  0  0  0  0  0  0
    1.0406   -1.1599    3.8481 H   0  0  0  0  0  0  0  0  0  0  0  0
  1  2  1  0  0  0  0
  2  3  1  0  0  0  0
  2  4  1  0  0  0  0
  2  5  1  0  0  0  0
  5  6  2  0  0  0  0
  5  7  1  0  0  0  0
  7  8  1  0  0  0  0
  7  9  1  0  0  0  0
  9 10  1  0  0  0  0
  9 11  1  0  0  0  0
  9 20  1  0  0  0  0
 11 12  1  0  0  0  0
 11 13  1  0  0  0  0
 11 14  1  0  0  0  0
 14 15  1  0  0  0  0
 14 16  1  0  0  0  0
 14 17  1  0  0  0  0
 17 18  1  0  0  0  0
 17 19  2  0  0  0  0
 20 21  2  0  0  0  0
 20 22  1  0  0  0  0
 22 23  1  0  0  0  0
 22 24  1  0  0  0  0
 24 25  1  0  0  0  0
 24 26  1  0  0  0  0
 24 27  1  0  0  0  0
M  CHG  1  18  -1
M  END
$$$$

  -OEChem-01062216073D

 27 26  0     1  0  0  0  0  0999 V2000
   -3.8329   -2.5181    0.9921 H   0  0  0  0  0  0  0  0  0  0  0  0
   -3.5268   -1.5588    0.5655 C   0  0  0  0  0  0  0  0  0  0  0  0
   -3.9819   -0.7542    1.1492 H   0  0  0  0  0  0  0  0  0  0  0  0
   -3.8888   -1.4986   -0.4641 H   0  0  0  0  0  0  0  0  0  0  0  0
   -2.0145   -1.4251    0.5924 C   0  0  0  0  0  0  0  0  0  0  0  0
   -1.3489   -2.3905    0.9276 O   0  0  0  0  0  0  0  0  0  0  0  0
   -1.4598   -0.2536    0.1182 N   0  0  0  0  0  0  0  0  0  0  0  0
   -2.1643    0.4178   -0.1830 H   0  0  0  0  0  0  0  0  0  0  0  0
   -0.1227    0.3725    0.2894 C   0  0  1  0  0  0  0  0  0  0  0  0
    0.4324    0.2228   -0.6409 H   0  0  0  0  0  0  0  0  0  0  0  0
   -0.4711    1.8760    0.4112 C   0  0  0  0  0  0  0  0  0  0  0  0
   -1.1862    2.0301    1.2270 H   0  0  0  0  0  0  0  0  0  0  0  0
    0.4256    2.4569    0.6512 H   0  0  0  0  0  0  0  0  0  0  0  0
   -1.0391    2.4360   -0.9109 C   0  0  0  0  0  0  0  0  0  0  0  0
   -0.2963    2.3195   -1.7059 H   0  0  0  0  0  0  0  0  0  0  0  0
   -1.9371    1.8925   -1.2148 H   0  0  0  0  0  0  0  0  0  0  0  0
   -1.4054    3.9120   -0.7745 C   0  0  0  0  0  0  0  0  0  0  0  0
   -2.4649    4.1717   -0.1505 O   0  5  0  0  0  0  0  0  0  0  0  0
   -0.6678    4.7641   -1.3259 O   0  0  0  0  0  0  0  0  0  0  0  0
    0.8842   -0.0808    1.3981 C   0  0  0  0  0  0  0  0  0  0  0  0
    1.7348    0.6975    1.8133 O   0  0  0  0  0  0  0  0  0  0  0  0
    0.9604   -1.3644    1.9005 N   0  0  0  0  0  0  0  0  0  0  0  0
    0.2389   -2.0147    1.5869 H   0  0  0  0  0  0  0  0  0  0  0  0
    1.8840   -1.7929    2.9413 C   0  0  0  0  0  0  0  0  0  0  0  0
    1.7178   -1.2211    3.8598 H   0  0  0  0  0  0  0  0  0  0  0  0
    1.7324   -2.8536    3.1614 H   0  0  0  0  0  0  0  0  0  0  0  0
    2.9200   -1.6518    2.6170 H   0  0  0  0  0  0  0  0  0  0  0  0
  1  2  1  0  0  0  0
  2  3  1  0  0  0  0
  2  4  1  0  0  0  0
  2  5  1  0  0  0  0
  5  6  2  0  0  0  0
  5  7  1  0  0  0  0
  7  8  1  0  0  0  0
  7  9  1  0  0  0  0
  9 10  1  0  0  0  0
  9 11  1  0  0  0  0
  9 20  1  0  0  0  0
 11 12  1  0  0  0  0
 11 13  1  0  0  0  0
 11 14  1  0  0  0  0
 14 15  1  0  0  0  0
 14 16  1  0  0  0  0
 14 17  1  0  0  0  0
 17 18  1  0  0  0  0
 17 19  2  0  0  0  0
 20 21  2  0  0  0  0
 20 22  1  0  0  0  0
 22 23  1  0  0  0  0
 22 24  1  0  0  0  0
 24 25  1  0  0  0  0
 24 26  1  0  0  0  0
 24 27  1  0  0  0  0
M  CHG  1  18  -1
M  END
$$$$

  -OEChem-01062216073D

 27 26  0     1  0  0  0  0  0999 V2000
   -3.7309   -2.5553    1.0879 H   0  0  0  0  0  0  0  0  0  0  0  0
   -3.4619   -1.5939    0.6414 C   0  0  0  0  0  0  0  0  0  0  0  0
   -3.9170   -0.7939    1.2314 H   0  0  0  0  0  0  0  0  0  0  0  0
   -3.8575   -1.5538   -0.3766 H   0  0  0  0  0  0  0  0  0  0  0  0
   -1.9531   -1.4241    0.6181 C   0  0  0  0  0  0  0  0  0  0  0  0
   -1.2521   -2.3750    0.9217 O   0  0  0  0  0  0  0  0  0  0  0  0
   -1.4406   -0.2370    0.1348 N   0  0  0  0  0  0  0  0  0  0  0  0
   -2.1662    0.4277   -0.1292 H   0  0  0  0  0  0  0  0  0  0  0  0
   -0.1078    0.4027    0.2764 C   0  0  1  0  0  0  0  0  0  0  0  0
    0.4295    0.2558   -0.6649 H   0  0  0  0  0  0  0  0  0  0  0  0
   -0.4493    1.9065    0.3997 C   0  0  0  0  0  0  0  0  0  0  0  0
   -1.1467    2.0665    1.2297 H   0  0  0  0  0  0  0  0  0  0  0  0
    0.4560    2.4837    0.6168 H   0  0  0  0  0  0  0  0  0  0  0  0
   -1.0432    2.4581   -0.9145 C   0  0  0  0  0  0  0  0  0  0  0  0
   -0.3174    2.3347   -1.7240 H   0  0  0  0  0  0  0  0  0  0  0  0
   -1.9475    1.9121   -1.1953 H   0  0  0  0  0  0  0  0  0  0  0  0
   -1.4052    3.9356   -0.7841 C   0  0  0  0  0  0  0  0  0  0  0  0
   -2.4535    4.2041   -0.1455 O   0  5  0  0  0  0  0  0  0  0  0  0
   -0.6747    4.7805   -1.3566 O   0  0  0  0  0  0  0  0  0  0  0  0
    0.9129   -0.0736    1.3605 C   0  0  0  0  0  0  0  0  0  0  0  0
    1.5854    0.7320    1.9936 O   0  0  0  0  0  0  0  0  0  0  0  0
    1.1803   -1.4075    1.5987 N   0  0  0  0  0  0  0  0  0  0  0  0
    0.4880   -2.0582    1.2226 H   0  0  0  0  0  0  0  0  0  0  0  0
    2.0540   -1.8811    2.6630 C   0  0  0  0  0  0  0  0  0  0  0  0
    1.6621   -1.5822    3.6404 H   0  0  0  0  0  0  0  0  0  0  0  0
    2.1204   -2.9727    2.6338 H   0  0  0  0  0  0  0  0  0  0  0  0
    3.0623   -1.4720    2.5440 H   0  0  0  0  0  0  0  0  0  0  0  0
  1  2  1  0  0  0  0
  2  3  1  0  0  0  0
  2  4  1  0  0  0  0
  2  5  1  0  0  0  0
  5  6  2  0  0  0  0
  5  7  1  0  0  0  0
  7  8  1  0  0  0  0
  7  9  1  0  0  0  0
  9 10  1  0  0  0  0
  9 11  1  0  0  0  0
  9 20  1  0  0  0  0
 11 12  1  0  0  0  0
 11 13  1  0  0  0  0
 11 14  1  0  0  0  0
 14 15  1  0  0  0  0
 14 16  1  0  0  0  0
 14 17  1  0  0  0  0
 17 18  1  0  0  0  0
 17 19  2  0  0  0  0
 20 21  2  0  0  0  0
 20 22  1  0  0  0  0
 22 23  1  0  0  0  0
 22 24  1  0  0  0  0
 24 25  1  0  0  0  0
 24 26  1  0  0  0  0
 24 27  1  0  0  0  0
M  CHG  1  18  -1
M  END
$$$$

  -OEChem-01062216073D

 27 26  0     1  0  0  0  0  0999 V2000
   -3.5817   -2.6478    1.1291 H   0  0  0  0  0  0  0  0  0  0  0  0
   -3.3723   -1.6522    0.7279 C   0  0  0  0  0  0  0  0  0  0  0  0
   -3.8150   -0.9055    1.3923 H   0  0  0  0  0  0  0  0  0  0  0  0
   -3.8318   -1.5660   -0.2600 H   0  0  0  0  0  0  0  0  0  0  0  0
   -1.8742   -1.4270    0.6252 C   0  0  0  0  0  0  0  0  0  0  0  0
   -1.1178   -2.3516    0.8754 O   0  0  0  0  0  0  0  0  0  0  0  0
   -1.4226   -0.2247    0.1202 N   0  0  0  0  0  0  0  0  0  0  0  0
   -2.1730    0.4277   -0.1016 H   0  0  0  0  0  0  0  0  0  0  0  0
   -0.1028    0.4361    0.2591 C   0  0  1  0  0  0  0  0  0  0  0  0
    0.4418    0.2944   -0.6785 H   0  0  0  0  0  0  0  0  0  0  0  0
   -0.4396    1.9384    0.3849 C   0  0  0  0  0  0  0  0  0  0  0  0
   -1.1355    2.1001    1.2156 H   0  0  0  0  0  0  0  0  0  0  0  0
    0.4704    2.5084    0.6028 H   0  0  0  0  0  0  0  0  0  0  0  0
   -1.0357    2.4882   -0.9276 C   0  0  0  0  0  0  0  0  0  0  0  0
   -0.3128    2.3632   -1.7396 H   0  0  0  0  0  0  0  0  0  0  0  0
   -1.9405    1.9407   -1.2038 H   0  0  0  0  0  0  0  0  0  0  0  0
   -1.3944    3.9663   -0.7986 C   0  0  0  0  0  0  0  0  0  0  0  0
   -2.4921    4.2348   -0.2493 O   0  5  0  0  0  0  0  0  0  0  0  0
   -0.6018    4.8138   -1.2765 O   0  0  0  0  0  0  0  0  0  0  0  0
    0.8942   -0.0528    1.3543 C   0  0  0  0  0  0  0  0  0  0  0  0
    1.3639    0.7166    2.1850 O   0  0  0  0  0  0  0  0  0  0  0  0
    1.3646   -1.3521    1.3625 N   0  0  0  0  0  0  0  0  0  0  0  0
    0.7327   -2.0153    0.9082 H   0  0  0  0  0  0  0  0  0  0  0  0
    2.2352   -1.8694    2.4089 C   0  0  0  0  0  0  0  0  0  0  0  0
    1.7388   -1.8122    3.3829 H   0  0  0  0  0  0  0  0  0  0  0  0
    2.4837   -2.9150    2.2054 H   0  0  0  0  0  0  0  0  0  0  0  0
    3.1672   -1.2966    2.4516 H   0  0  0  0  0  0  0  0  0  0  0  0
  1  2  1  0  0  0  0
  2  3  1  0  0  0  0
  2  4  1  0  0  0  0
  2  5  1  0  0  0  0
  5  6  2  0  0  0  0
  5  7  1  0  0  0  0
  7  8  1  0  0  0  0
  7  9  1  0  0  0  0
  9 10  1  0  0  0  0
  9 11  1  0  0  0  0
  9 20  1  0  0  0  0
 11 12  1  0  0  0  0
 11 13  1  0  0  0  0
 11 14  1  0  0  0  0
 14 15  1  0  0  0  0
 14 16  1  0  0  0  0
 14 17  1  0  0  0  0
 17 18  1  0  0  0  0
 17 19  2  0  0  0  0
 20 21  2  0  0  0  0
 20 22  1  0  0  0  0
 22 23  1  0  0  0  0
 22 24  1  0  0  0  0
 24 25  1  0  0  0  0
 24 26  1  0  0  0  0
 24 27  1  0  0  0  0
M  CHG  1  18  -1
M  END
$$$$

  -OEChem-01062216073D

 27 26  0     1  0  0  0  0  0999 V2000
   -3.4330   -2.7154    1.1905 H   0  0  0  0  0  0  0  0  0  0  0  0
   -3.2806   -1.7069    0.7959 C   0  0  0  0  0  0  0  0  0  0  0  0
   -3.7188   -0.9870    1.4921 H   0  0  0  0  0  0  0  0  0  0  0  0
   -3.7895   -1.6239   -0.1679 H   0  0  0  0  0  0  0  0  0  0  0  0
   -1.7984   -1.4246    0.6267 C   0  0  0  0  0  0  0  0  0  0  0  0
   -0.9903   -2.3170    0.8350 O   0  0  0  0  0  0  0  0  0  0  0  0
   -1.4075   -0.2138    0.0933 N   0  0  0  0  0  0  0  0  0  0  0  0
   -2.1794    0.4261   -0.0857 H   0  0  0  0  0  0  0  0  0  0  0  0
   -0.1005    0.4642    0.2362 C   0  0  1  0  0  0  0  0  0  0  0  0
    0.4582    0.3298   -0.6943 H   0  0  0  0  0  0  0  0  0  0  0  0
   -0.4341    1.9642    0.3700 C   0  0  0  0  0  0  0  0  0  0  0  0
   -1.1326    2.1223    1.1993 H   0  0  0  0  0  0  0  0  0  0  0  0
    0.4782    2.5272    0.5965 H   0  0  0  0  0  0  0  0  0  0  0  0
   -1.0291    2.5182   -0.9402 C   0  0  0  0  0  0  0  0  0  0  0  0
   -0.3074    2.3944   -1.7533 H   0  0  0  0  0  0  0  0  0  0  0  0
   -1.9343    1.9705   -1.2158 H   0  0  0  0  0  0  0  0  0  0  0  0
   -1.3858    3.9962   -0.8063 C   0  0  0  0  0  0  0  0  0  0  0  0
   -2.5024    4.2656   -0.2973 O   0  5  0  0  0  0  0  0  0  0  0  0
   -0.5664    4.8445   -1.2356 O   0  0  0  0  0  0  0  0  0  0  0  0
    0.8602   -0.0357    1.3534 C   0  0  0  0  0  0  0  0  0  0  0  0
    1.1152    0.6458    2.3401 O   0  0  0  0  0  0  0  0  0  0  0  0
    1.5461   -1.2243    1.1865 N   0  0  0  0  0  0  0  0  0  0  0  0
    1.0244   -1.8994    0.6260 H   0  0  0  0  0  0  0  0  0  0  0  0
    2.4240   -1.7631    2.2159 C   0  0  0  0  0  0  0  0  0  0  0  0
    1.8642   -1.9482    3.1383 H   0  0  0  0  0  0  0  0  0  0  0  0
    2.8607   -2.7073    1.8779 H   0  0  0  0  0  0  0  0  0  0  0  0
    3.2390   -1.0642    2.4298 H   0  0  0  0  0  0  0  0  0  0  0  0
  1  2  1  0  0  0  0
  2  3  1  0  0  0  0
  2  4  1  0  0  0  0
  2  5  1  0  0  0  0
  5  6  2  0  0  0  0
  5  7  1  0  0  0  0
  7  8  1  0  0  0  0
  7  9  1  0  0  0  0
  9 10  1  0  0  0  0
  9 11  1  0  0  0  0
  9 20  1  0  0  0  0
 11 12  1  0  0  0  0
 11 13  1  0  0  0  0
 11 14  1  0  0  0  0
 14 15  1  0  0  0  0
 14 16  1  0  0  0  0
 14 17  1  0  0  0  0
 17 18  1  0  0  0  0
 17 19  2  0  0  0  0
 20 21  2  0  0  0  0
 20 22  1  0  0  0  0
 22 23  1  0  0  0  0
 22 24  1  0  0  0  0
 24 25  1  0  0  0  0
 24 26  1  0  0  0  0
 24 27  1  0  0  0  0
M  CHG  1  18  -1
M  END
$$$$

  -OEChem-01062216073D

 27 26  0     1  0  0  0  0  0999 V2000
   -3.3095   -2.7628    1.2429 H   0  0  0  0  0  0  0  0  0  0  0  0
   -3.2001   -1.7413    0.8684 C   0  0  0  0  0  0  0  0  0  0  0  0
   -3.6113   -1.0492    1.6080 H   0  0  0  0  0  0  0  0  0  0  0  0
   -3.7647   -1.6435   -0.0623 H   0  0  0  0  0  0  0  0  0  0  0  0
   -1.7359   -1.4229    0.6245 C   0  0  0  0  0  0  0  0  0  0  0  0
   -0.8917   -2.2910    0.7933 O   0  0  0  0  0  0  0  0  0  0  0  0
   -1.3978   -0.2078    0.0654 N   0  0  0  0  0  0  0  0  0  0  0  0
   -2.1869    0.4208   -0.0722 H   0  0  0  0  0  0  0  0  0  0  0  0
   -0.1017    0.4855    0.2067 C   0  0  1  0  0  0  0  0  0  0  0  0
    0.4617    0.3568   -0.7214 H   0  0  0  0  0  0  0  0  0  0  0  0
   -0.4318    1.9831    0.3508 C   0  0  0  0  0  0  0  0  0  0  0  0
   -1.1300    2.1364    1.1813 H   0  0  0  0  0  0  0  0  0  0  0  0
    0.4827    2.5406    0.5820 H   0  0  0  0  0  0  0  0  0  0  0  0
   -1.0315    2.5432   -0.9536 C   0  0  0  0  0  0  0  0  0  0  0  0
   -0.3138    2.4237   -1.7708 H   0  0  0  0  0  0  0  0  0  0  0  0
   -1.9377    1.9960   -1.2275 H   0  0  0  0  0  0  0  0  0  0  0  0
   -1.3856    4.0211   -0.8121 C   0  0  0  0  0  0  0  0  0  0  0  0
   -2.5354    4.2935   -0.3858 O   0  5  0  0  0  0  0  0  0  0  0  0
   -0.5214    4.8682   -1.1455 O   0  0  0  0  0  0  0  0  0  0  0  0
    0.8376   -0.0166    1.3365 C   0  0  0  0  0  0  0  0  0  0  0  0
    0.8533    0.5125    2.4426 O   0  0  0  0  0  0  0  0  0  0  0  0
    1.7493   -1.0205    1.0645 N   0  0  0  0  0  0  0  0  0  0  0  0
    1.4531   -1.6411    0.3152 H   0  0  0  0  0  0  0  0  0  0  0  0
    2.5967   -1.5917    2.1017 C   0  0  0  0  0  0  0  0  0  0  0  0
    1.9851   -2.0488    2.8863 H   0  0  0  0  0  0  0  0  0  0  0  0
    3.2462   -2.3608    1.6734 H   0  0  0  0  0  0  0  0  0  0  0  0
    3.2290   -0.8186    2.5503 H   0  0  0  0  0  0  0  0  0  0  0  0
  1  2  1  0  0  0  0
  2  3  1  0  0  0  0
  2  4  1  0  0  0  0
  2  5  1  0  0  0  0
  5  6  2  0  0  0  0
  5  7  1  0  0  0  0
  7  8  1  0  0  0  0
  7  9  1  0  0  0  0
  9 10  1  0  0  0  0
  9 11  1  0  0  0  0
  9 20  1  0  0  0  0
 11 12  1  0  0  0  0
 11 13  1  0  0  0  0
 11 14  1  0  0  0  0
 14 15  1  0  0  0  0
 14 16  1  0  0  0  0
 14 17  1  0  0  0  0
 17 18  1  0  0  0  0
 17 19  2  0  0  0  0
 20 21  2  0  0  0  0
 20 22  1  0  0  0  0
 22 23  1  0  0  0  0
 22 24  1  0  0  0  0
 24 25  1  0  0  0  0
 24 26  1  0  0  0  0
 24 27  1  0  0  0  0
M  CHG  1  18  -1
M  END
$$$$

  -OEChem-01062216073D

 27 26  0     1  0  0  0  0  0999 V2000
   -3.2330   -2.7765    1.2741 H   0  0  0  0  0  0  0  0  0  0  0  0
   -3.1523   -1.7856    0.8187 C   0  0  0  0  0  0  0  0  0  0  0  0
   -3.6004   -1.0519    1.4939 H   0  0  0  0  0  0  0  0  0  0  0  0
   -3.7021   -1.7829   -0.1258 H   0  0  0  0  0  0  0  0  0  0  0  0
   -1.6957   -1.4367    0.5718 C   0  0  0  0  0  0  0  0  0  0  0  0
   -0.8352   -2.2936    0.7148 O   0  0  0  0  0  0  0  0  0  0  0  0
   -1.3830   -0.2074    0.0278 N   0  0  0  0  0  0  0  0  0  0  0  0
   -2.1832    0.4084   -0.0937 H   0  0  0  0  0  0  0  0  0  0  0  0
   -0.1033    0.5034    0.2139 C   0  0  1  0  0  0  0  0  0  0  0  0
    0.4825    0.3914   -0.7020 H   0  0  0  0  0  0  0  0  0  0  0  0
   -0.4309    1.9991    0.3804 C   0  0  0  0  0  0  0  0  0  0  0  0
   -1.1475    2.1348    1.1980 H   0  0  0  0  0  0  0  0  0  0  0  0
    0.4797    2.5466    0.6473 H   0  0  0  0  0  0  0  0  0  0  0  0
   -1.0008    2.5897   -0.9295 C   0  0  0  0  0  0  0  0  0  0  0  0
   -0.2585    2.4699   -1.7240 H   0  0  0  0  0  0  0  0  0  0  0  0
   -1.8990    2.0391   -1.2210 H   0  0  0  0  0  0  0  0  0  0  0  0
   -1.3780    4.0730   -0.8460 C   0  0  0  0  0  0  0  0  0  0  0  0
   -1.2607    4.6810    0.2464 O   0  5  0  0  0  0  0  0  0  0  0  0
   -1.8145    4.5874   -1.9048 O   0  0  0  0  0  0  0  0  0  0  0  0
    0.8027   -0.0080    1.3646 C   0  0  0  0  0  0  0  0  0  0  0  0
    0.5672    0.2797    2.5333 O   0  0  0  0  0  0  0  0  0  0  0  0
    1.9305   -0.7544    1.0714 N   0  0  0  0  0  0  0  0  0  0  0  0
    1.9352   -1.1812    0.1510 H   0  0  0  0  0  0  0  0  0  0  0  0
    2.7416   -1.3733    2.1100 C   0  0  0  0  0  0  0  0  0  0  0  0
    2.1481   -2.0996    2.6746 H   0  0  0  0  0  0  0  0  0  0  0  0
    3.5937   -1.8921    1.6613 H   0  0  0  0  0  0  0  0  0  0  0  0
    3.1256   -0.6158    2.8011 H   0  0  0  0  0  0  0  0  0  0  0  0
  1  2  1  0  0  0  0
  2  3  1  0  0  0  0
  2  4  1  0  0  0  0
  2  5  1  0  0  0  0
  5  6  2  0  0  0  0
  5  7  1  0  0  0  0
  7  8  1  0  0  0  0
  7  9  1  0  0  0  0
  9 10  1  0  0  0  0
  9 11  1  0  0  0  0
  9 20  1  0  0  0  0
 11 12  1  0  0  0  0
 11 13  1  0  0  0  0
 11 14  1  0  0  0  0
 14 15  1  0  0  0  0
 14 16  1  0  0  0  0
 14 17  1  0  0  0  0
 17 18  1  0  0  0  0
 17 19  2  0  0  0  0
 20 21  2  0  0  0  0
 20 22  1  0  0  0  0
 22 23  1  0  0  0  0
 22 24  1  0  0  0  0
 24 25  1  0  0  0  0
 24 26  1  0  0  0  0
 24 27  1  0  0  0  0
M  CHG  1  18  -1
M  END
$$$$

  -OEChem-01062216073D

 27 26  0     1  0  0  0  0  0999 V2000
   -3.2255   -2.7919    1.2199 H   0  0  0  0  0  0  0  0  0  0  0  0
   -3.1501   -1.8072    0.7503 C   0  0  0  0  0  0  0  0  0  0  0  0
   -3.5970   -1.0655    1.4175 H   0  0  0  0  0  0  0  0  0  0  0  0
   -3.7035   -1.8193   -0.1919 H   0  0  0  0  0  0  0  0  0  0  0  0
   -1.6951   -1.4578    0.4945 C   0  0  0  0  0  0  0  0  0  0  0  0
   -0.8342   -2.3172    0.6212 O   0  0  0  0  0  0  0  0  0  0  0  0
   -1.3810   -0.2273   -0.0464 N   0  0  0  0  0  0  0  0  0  0  0  0
   -2.1831    0.3881   -0.1619 H   0  0  0  0  0  0  0  0  0  0  0  0
   -0.1118    0.4872    0.1897 C   0  0  1  0  0  0  0  0  0  0  0  0
    0.5039    0.3790   -0.7066 H   0  0  0  0  0  0  0  0  0  0  0  0
   -0.4461    1.9782    0.3602 C   0  0  0  0  0  0  0  0  0  0  0  0
   -1.1914    2.1057    1.1533 H   0  0  0  0  0  0  0  0  0  0  0  0
    0.4539    2.5245    0.6635 H   0  0  0  0  0  0  0  0  0  0  0  0
   -0.9710    2.5829   -0.9546 C   0  0  0  0  0  0  0  0  0  0  0  0
   -0.2088    2.4901   -1.7339 H   0  0  0  0  0  0  0  0  0  0  0  0
   -1.8611    2.0469   -1.2961 H   0  0  0  0  0  0  0  0  0  0  0  0
   -1.3259    4.0568   -0.7777 C   0  0  0  0  0  0  0  0  0  0  0  0
   -0.4048    4.8991   -0.9130 O   0  5  0  0  0  0  0  0  0  0  0  0
   -2.5217    4.3329   -0.5108 O   0  0  0  0  0  0  0  0  0  0  0  0
    0.7553   -0.0133    1.3734 C   0  0  0  0  0  0  0  0  0  0  0  0
    0.3559    0.0813    2.5297 O   0  0  0  0  0  0  0  0  0  0  0  0
    2.0396   -0.4746    1.1445 N   0  0  0  0  0  0  0  0  0  0  0  0
    2.2823   -0.6733    0.1803 H   0  0  0  0  0  0  0  0  0  0  0  0
    2.8776   -1.0246    2.1998 C   0  0  0  0  0  0  0  0  0  0  0  0
    2.4066   -1.9110    2.6371 H   0  0  0  0  0  0  0  0  0  0  0  0
    3.8523   -1.3116    1.7946 H   0  0  0  0  0  0  0  0  0  0  0  0
    3.0375   -0.2821    2.9884 H   0  0  0  0  0  0  0  0  0  0  0  0
  1  2  1  0  0  0  0
  2  3  1  0  0  0  0
  2  4  1  0  0  0  0
  2  5  1  0  0  0  0
  5  6  2  0  0  0  0
  5  7  1  0  0  0  0
  7  8  1  0  0  0  0
  7  9  1  0  0  0  0
  9 10  1  0  0  0  0
  9 11  1  0  0  0  0
  9 20  1  0  0  0  0
 11 12  1  0  0  0  0
 11 13  1  0  0  0  0
 11 14  1  0  0  0  0
 14 15  1  0  0  0  0
 14 16  1  0  0  0  0
 14 17  1  0  0  0  0
 17 18  1  0  0  0  0
 17 19  2  0  0  0  0
 20 21  2  0  0  0  0
 20 22  1  0  0  0  0
 22 23  1  0  0  0  0
 22 24  1  0  0  0  0
 24 25  1  0  0  0  0
 24 26  1  0  0  0  0
 24 27  1  0  0  0  0
M  CHG  1  18  -1
M  END
$$$$

  -OEChem-01062216073D

 27 26  0     1  0  0  0  0  0999 V2000
   -3.2864   -2.8224    1.1296 H   0  0  0  0  0  0  0  0  0  0  0  0
   -3.1873   -1.7972    0.7625 C   0  0  0  0  0  0  0  0  0  0  0  0
   -3.5680   -1.1123    1.5245 H   0  0  0  0  0  0  0  0  0  0  0  0
   -3.7838   -1.6868   -0.1464 H   0  0  0  0  0  0  0  0  0  0  0  0
   -1.7312   -1.4812    0.4710 C   0  0  0  0  0  0  0  0  0  0  0  0
   -0.8885   -2.3637    0.5527 O   0  0  0  0  0  0  0  0  0  0  0  0
   -1.4023   -0.2541   -0.0684 N   0  0  0  0  0  0  0  0  0  0  0  0
   -2.1966    0.3741   -0.1652 H   0  0  0  0  0  0  0  0  0  0  0  0
   -0.1247    0.4424    0.1766 C   0  0  1  0  0  0  0  0  0  0  0  0
    0.4899    0.3236   -0.7193 H   0  0  0  0  0  0  0  0  0  0  0  0
   -0.4360    1.9363    0.3551 C   0  0  0  0  0  0  0  0  0  0  0  0
   -1.1805    2.0697    1.1480 H   0  0  0  0  0  0  0  0  0  0  0  0
    0.4718    2.4668    0.6632 H   0  0  0  0  0  0  0  0  0  0  0  0
   -0.9470    2.5586   -0.9561 C   0  0  0  0  0  0  0  0  0  0  0  0
   -0.1848    2.4596   -1.7347 H   0  0  0  0  0  0  0  0  0  0  0  0
   -1.8451    2.0402   -1.3038 H   0  0  0  0  0  0  0  0  0  0  0  0
   -1.2772    4.0362   -0.7645 C   0  0  0  0  0  0  0  0  0  0  0  0
   -0.3464    4.8654   -0.9139 O   0  5  0  0  0  0  0  0  0  0  0  0
   -2.4607    4.3274   -0.4623 O   0  0  0  0  0  0  0  0  0  0  0  0
    0.7394   -0.0600    1.3615 C   0  0  0  0  0  0  0  0  0  0  0  0
    0.2702   -0.1474    2.4922 O   0  0  0  0  0  0  0  0  0  0  0  0
    2.1018   -0.2356    1.1946 N   0  0  0  0  0  0  0  0  0  0  0  0
    2.4758   -0.1238    0.2588 H   0  0  0  0  0  0  0  0  0  0  0  0
    2.9992   -0.6186    2.2746 C   0  0  0  0  0  0  0  0  0  0  0  0
    2.6939   -1.5790    2.7025 H   0  0  0  0  0  0  0  0  0  0  0  0
    4.0212   -0.7169    1.8971 H   0  0  0  0  0  0  0  0  0  0  0  0
    2.9930    0.1401    3.0638 H   0  0  0  0  0  0  0  0  0  0  0  0
  1  2  1  0  0  0  0
  2  3  1  0  0  0  0
  2  4  1  0  0  0  0
  2  5  1  0  0  0  0
  5  6  2  0  0  0  0
  5  7  1  0  0  0  0
  7  8  1  0  0  0  0
  7  9  1  0  0  0  0
  9 10  1  0  0  0  0
  9 11  1  0  0  0  0
  9 20  1  0  0  0  0
 11 12  1  0  0  0  0
 11 13  1  0  0  0  0
 11 14  1  0  0  0  0
 14 15  1  0  0  0  0
 14 16  1  0  0  0  0
 14 17  1  0  0  0  0
 17 18  1  0  0  0  0
 17 19  2  0  0  0  0
 20 21  2  0  0  0  0
 20 22  1  0  0  0  0
 22 23  1  0  0  0  0
 22 24  1  0  0  0  0
 24 25  1  0  0  0  0
 24 26  1  0  0  0  0
 24 27  1  0  0  0  0
M  CHG  1  18  -1
M  END
$$$$

  -OEChem-01062216073D

 27 26  0     1  0  0  0  0  0999 V2000
   -3.3283   -2.8287    1.1186 H   0  0  0  0  0  0  0  0  0  0  0  0
   -3.2165   -1.7970    0.7736 C   0  0  0  0  0  0  0  0  0  0  0  0
   -3.5610   -1.1237    1.5627 H   0  0  0  0  0  0  0  0  0  0  0  0
   -3.8351   -1.6516   -0.1155 H   0  0  0  0  0  0  0  0  0  0  0  0
   -1.7620   -1.5057    0.4498 C   0  0  0  0  0  0  0  0  0  0  0  0
   -0.9404   -2.4111    0.4748 O   0  0  0  0  0  0  0  0  0  0  0  0
   -1.4182   -0.2787   -0.0803 N   0  0  0  0  0  0  0  0  0  0  0  0
   -2.2036    0.3635   -0.1538 H   0  0  0  0  0  0  0  0  0  0  0  0
   -0.1291    0.3963    0.1682 C   0  0  1  0  0  0  0  0  0  0  0  0
    0.4781    0.2697   -0.7321 H   0  0  0  0  0  0  0  0  0  0  0  0
   -0.4144    1.8942    0.3583 C   0  0  0  0  0  0  0  0  0  0  0  0
   -1.1558    2.0329    1.1531 H   0  0  0  0  0  0  0  0  0  0  0  0
    0.5013    2.4088    0.6701 H   0  0  0  0  0  0  0  0  0  0  0  0
   -0.9162    2.5377   -0.9455 C   0  0  0  0  0  0  0  0  0  0  0  0
   -0.1575    2.4339   -1.7268 H   0  0  0  0  0  0  0  0  0  0  0  0
   -1.8242    2.0391   -1.2961 H   0  0  0  0  0  0  0  0  0  0  0  0
   -1.2180    4.0186   -0.7346 C   0  0  0  0  0  0  0  0  0  0  0  0
   -0.2572    4.8232   -0.8144 O   0  5  0  0  0  0  0  0  0  0  0  0
   -2.4056    4.3366   -0.4801 O   0  0  0  0  0  0  0  0  0  0  0  0
    0.7476   -0.1116    1.3422 C   0  0  0  0  0  0  0  0  0  0  0  0
    0.2583   -0.3767    2.4362 O   0  0  0  0  0  0  0  0  0  0  0  0
    2.1242    0.0046    1.2534 N   0  0  0  0  0  0  0  0  0  0  0  0
    2.4990    0.4009    0.3979 H   0  0  0  0  0  0  0  0  0  0  0  0
    3.0200   -0.2004    2.3825 C   0  0  0  0  0  0  0  0  0  0  0  0
    2.8916   -1.2065    2.7948 H   0  0  0  0  0  0  0  0  0  0  0  0
    4.0600   -0.0891    2.0620 H   0  0  0  0  0  0  0  0  0  0  0  0
    2.8183    0.5341    3.1690 H   0  0  0  0  0  0  0  0  0  0  0  0
  1  2  1  0  0  0  0
  2  3  1  0  0  0  0
  2  4  1  0  0  0  0
  2  5  1  0  0  0  0
  5  6  2  0  0  0  0
  5  7  1  0  0  0  0
  7  8  1  0  0  0  0
  7  9  1  0  0  0  0
  9 10  1  0  0  0  0
  9 11  1  0  0  0  0
  9 20  1  0  0  0  0
 11 12  1  0  0  0  0
 11 13  1  0  0  0  0
 11 14  1  0  0  0  0
 14 15  1  0  0  0  0
 14 16  1  0  0  0  0
 14 17  1  0  0  0  0
 17 18  1  0  0  0  0
 17 19  2  0  0  0  0
 20 21  2  0  0  0  0
 20 22  1  0  0  0  0
 22 23  1  0  0  0  0
 22 24  1  0  0  0  0
 24 25  1  0  0  0  0
 24 26  1  0  0  0  0
 24 27  1  0  0  0  0
M  CHG  1  18  -1
M  END
$$$$

  -OEChem-01062216073D

 27 26  0     1  0  0  0  0  0999 V2000
   -3.3428   -2.8087    1.1344 H   0  0  0  0  0  0  0  0  0  0  0  0
   -3.2165   -1.7760    0.7983 C   0  0  0  0  0  0  0  0  0  0  0  0
   -3.5204   -1.1046    1.6055 H   0  0  0  0  0  0  0  0  0  0  0  0
   -3.8573   -1.6046   -0.0701 H   0  0  0  0  0  0  0  0  0  0  0  0
   -1.7659   -1.5161    0.4334 C   0  0  0  0  0  0  0  0  0  0  0  0
   -0.9720   -2.4454    0.3944 O   0  0  0  0  0  0  0  0  0  0  0  0
   -1.4080   -0.2905   -0.0895 N   0  0  0  0  0  0  0  0  0  0  0  0
   -2.1865    0.3614   -0.1481 H   0  0  0  0  0  0  0  0  0  0  0  0
   -0.1120    0.3719    0.1614 C   0  0  1  0  0  0  0  0  0  0  0  0
    0.4923    0.2447   -0.7408 H   0  0  0  0  0  0  0  0  0  0  0  0
   -0.4003    1.8704    0.3559 C   0  0  0  0  0  0  0  0  0  0  0  0
   -1.1425    2.0043    1.1509 H   0  0  0  0  0  0  0  0  0  0  0  0
    0.5113    2.3902    0.6696 H   0  0  0  0  0  0  0  0  0  0  0  0
   -0.9019    2.5203   -0.9444 C   0  0  0  0  0  0  0  0  0  0  0  0
   -0.1430    2.4223   -1.7262 H   0  0  0  0  0  0  0  0  0  0  0  0
   -1.8097    2.0238   -1.2983 H   0  0  0  0  0  0  0  0  0  0  0  0
   -1.2036    3.9992   -0.7212 C   0  0  0  0  0  0  0  0  0  0  0  0
   -0.2350    4.7976   -0.7486 O   0  5  0  0  0  0  0  0  0  0  0  0
   -2.3967    4.3201   -0.4991 O   0  0  0  0  0  0  0  0  0  0  0  0
    0.7803   -0.1303    1.3290 C   0  0  0  0  0  0  0  0  0  0  0  0
    0.3035   -0.5898    2.3620 O   0  0  0  0  0  0  0  0  0  0  0  0
    2.1067    0.2674    1.3618 N   0  0  0  0  0  0  0  0  0  0  0  0
    2.4178    0.8705    0.6065 H   0  0  0  0  0  0  0  0  0  0  0  0
    2.9511    0.1408    2.5415 C   0  0  0  0  0  0  0  0  0  0  0  0
    2.9934   -0.9021    2.8721 H   0  0  0  0  0  0  0  0  0  0  0  0
    3.9686    0.4706    2.3120 H   0  0  0  0  0  0  0  0  0  0  0  0
    2.5613    0.7568    3.3583 H   0  0  0  0  0  0  0  0  0  0  0  0
  1  2  1  0  0  0  0
  2  3  1  0  0  0  0
  2  4  1  0  0  0  0
  2  5  1  0  0  0  0
  5  6  2  0  0  0  0
  5  7  1  0  0  0  0
  7  8  1  0  0  0  0
  7  9  1  0  0  0  0
  9 10  1  0  0  0  0
  9 11  1  0  0  0  0
  9 20  1  0  0  0  0
 11 12  1  0  0  0  0
 11 13  1  0  0  0  0
 11 14  1  0  0  0  0
 14 15  1  0  0  0  0
 14 16  1  0  0  0  0
 14 17  1  0  0  0  0
 17 18  1  0  0  0  0
 17 19  2  0  0  0  0
 20 21  2  0  0  0  0
 20 22  1  0  0  0  0
 22 23  1  0  0  0  0
 22 24  1  0  0  0  0
 24 25  1  0  0  0  0
 24 26  1  0  0  0  0
 24 27  1  0  0  0  0
M  CHG  1  18  -1
M  END
$$$$

  -OEChem-01062216073D

 27 26  0     1  0  0  0  0  0999 V2000
   -3.6646   -2.7772    0.9255 H   0  0  0  0  0  0  0  0  0  0  0  0
   -3.3592   -1.8698    0.3967 C   0  0  0  0  0  0  0  0  0  0  0  0
   -4.1521   -1.1234    0.4898 H   0  0  0  0  0  0  0  0  0  0  0  0
   -3.2166   -2.1105   -0.6596 H   0  0  0  0  0  0  0  0  0  0  0  0
   -2.0674   -1.3273    0.9840 C   0  0  0  0  0  0  0  0  0  0  0  0
   -1.6755   -1.7985    2.0356 O   0  0  0  0  0  0  0  0  0  0  0  0
   -1.5282   -0.1939    0.4037 N   0  0  0  0  0  0  0  0  0  0  0  0
   -2.1108    0.2056   -0.3255 H   0  0  0  0  0  0  0  0  0  0  0  0
   -0.1698    0.3946    0.4934 C   0  0  1  0  0  0  0  0  0  0  0  0
    0.2383    0.3758   -0.5205 H   0  0  0  0  0  0  0  0  0  0  0  0
   -0.3814    1.8719    0.8885 C   0  0  0  0  0  0  0  0  0  0  0  0
   -0.9836    1.9238    1.8025 H   0  0  0  0  0  0  0  0  0  0  0  0
    0.5735    2.3603    1.1020 H   0  0  0  0  0  0  0  0  0  0  0  0
   -1.0730    2.6627   -0.2391 C   0  0  0  0  0  0  0  0  0  0  0  0
   -0.4518    2.6413   -1.1390 H   0  0  0  0  0  0  0  0  0  0  0  0
   -2.0378    2.2108   -0.4861 H   0  0  0  0  0  0  0  0  0  0  0  0
   -1.3000    4.1182    0.1666 C   0  0  0  0  0  0  0  0  0  0  0  0
   -0.2830    4.8063    0.4325 O   0  5  0  0  0  0  0  0  0  0  0  0
   -2.4802    4.5445    0.1783 O   0  0  0  0  0  0  0  0  0  0  0  0
    0.9798   -0.2366    1.3335 C   0  0  0  0  0  0  0  0  0  0  0  0
    1.0525   -1.4354    1.5645 O   0  0  0  0  0  0  0  0  0  0  0  0
    2.2025    0.4182    1.3383 N   0  0  0  0  0  0  0  0  0  0  0  0
    2.1836    1.4080    1.1066 H   0  0  0  0  0  0  0  0  0  0  0  0
    3.4211   -0.1344    1.9156 C   0  0  0  0  0  0  0  0  0  0  0  0
    3.7439   -1.0181    1.3558 H   0  0  0  0  0  0  0  0  0  0  0  0
    4.2230    0.6090    1.8807 H   0  0  0  0  0  0  0  0  0  0  0  0
    3.2560   -0.4163    2.9606 H   0  0  0  0  0  0  0  0  0  0  0  0
  1  2  1  0  0  0  0
  2  3  1  0  0  0  0
  2  4  1  0  0  0  0
  2  5  1  0  0  0  0
  5  6  2  0  0  0  0
  5  7  1  0  0  0  0
  7  8  1  0  0  0  0
  7  9  1  0  0  0  0
  9 10  1  0  0  0  0
  9 11  1  0  0  0  0
  9 20  1  0  0  0  0
 11 12  1  0  0  0  0
 11 13  1  0  0  0  0
 11 14  1  0  0  0  0
 14 15  1  0  0  0  0
 14 16  1  0  0  0  0
 14 17  1  0  0  0  0
 17 18  1  0  0  0  0
 17 19  2  0  0  0  0
 20 21  2  0  0  0  0
 20 22  1  0  0  0  0
 22 23  1  0  0  0  0
 22 24  1  0  0  0  0
 24 25  1  0  0  0  0
 24 26  1  0  0  0  0
 24 27  1  0  0  0  0
M  CHG  1  18  -1
M  END
$$$$

  -OEChem-01062216073D

 27 26  0     1  0  0  0  0  0999 V2000
   -3.5252   -2.8306    1.0013 H   0  0  0  0  0  0  0  0  0  0  0  0
   -3.2577   -1.9433    0.4206 C   0  0  0  0  0  0  0  0  0  0  0  0
   -4.1009   -1.2481    0.4289 H   0  0  0  0  0  0  0  0  0  0  0  0
   -3.0536   -2.2465   -0.6091 H   0  0  0  0  0  0  0  0  0  0  0  0
   -2.0304   -1.2752    1.0159 C   0  0  0  0  0  0  0  0  0  0  0  0
   -1.6430   -1.6398    2.1132 O   0  0  0  0  0  0  0  0  0  0  0  0
   -1.5456   -0.1369    0.3993 N   0  0  0  0  0  0  0  0  0  0  0  0
   -2.1106    0.1831   -0.3808 H   0  0  0  0  0  0  0  0  0  0  0  0
   -0.1899    0.4572    0.4678 C   0  0  1  0  0  0  0  0  0  0  0  0
    0.2248    0.4363   -0.5437 H   0  0  0  0  0  0  0  0  0  0  0  0
   -0.3977    1.9359    0.8616 C   0  0  0  0  0  0  0  0  0  0  0  0
   -0.9820    1.9914    1.7868 H   0  0  0  0  0  0  0  0  0  0  0  0
    0.5607    2.4267    1.0490 H   0  0  0  0  0  0  0  0  0  0  0  0
   -1.1081    2.7252   -0.2555 C   0  0  0  0  0  0  0  0  0  0  0  0
   -0.5019    2.7027   -1.1655 H   0  0  0  0  0  0  0  0  0  0  0  0
   -2.0764    2.2713   -0.4850 H   0  0  0  0  0  0  0  0  0  0  0  0
   -1.3308    4.1820    0.1509 C   0  0  0  0  0  0  0  0  0  0  0  0
   -0.3160    4.8600    0.4507 O   0  5  0  0  0  0  0  0  0  0  0  0
   -2.5069    4.6196    0.1313 O   0  0  0  0  0  0  0  0  0  0  0  0
    0.9209   -0.2220    1.3209 C   0  0  0  0  0  0  0  0  0  0  0  0
    1.0741   -1.4376    1.2747 O   0  0  0  0  0  0  0  0  0  0  0  0
    2.0675    0.4901    1.6380 N   0  0  0  0  0  0  0  0  0  0  0  0
    1.9947    1.5036    1.6077 H   0  0  0  0  0  0  0  0  0  0  0  0
    3.2606   -0.1051    2.2255 C   0  0  0  0  0  0  0  0  0  0  0  0
    3.7292   -0.7995    1.5206 H   0  0  0  0  0  0  0  0  0  0  0  0
    3.9851    0.6756    2.4752 H   0  0  0  0  0  0  0  0  0  0  0  0
    3.0062   -0.6470    3.1422 H   0  0  0  0  0  0  0  0  0  0  0  0
  1  2  1  0  0  0  0
  2  3  1  0  0  0  0
  2  4  1  0  0  0  0
  2  5  1  0  0  0  0
  5  6  2  0  0  0  0
  5  7  1  0  0  0  0
  7  8  1  0  0  0  0
  7  9  1  0  0  0  0
  9 10  1  0  0  0  0
  9 11  1  0  0  0  0
  9 20  1  0  0  0  0
 11 12  1  0  0  0  0
 11 13  1  0  0  0  0
 11 14  1  0  0  0  0
 14 15  1  0  0  0  0
 14 16  1  0  0  0  0
 14 17  1  0  0  0  0
 17 18  1  0  0  0  0
 17 19  2  0  0  0  0
 20 21  2  0  0  0  0
 20 22  1  0  0  0  0
 22 23  1  0  0  0  0
 22 24  1  0  0  0  0
 24 25  1  0  0  0  0
 24 26  1  0  0  0  0
 24 27  1  0  0  0  0
M  CHG  1  18  -1
M  END
$$$$

  -OEChem-01062216073D

 27 26  0     1  0  0  0  0  0999 V2000
   -3.5344   -2.7982    1.0333 H   0  0  0  0  0  0  0  0  0  0  0  0
   -3.2672   -1.9182    0.4414 C   0  0  0  0  0  0  0  0  0  0  0  0
   -4.0887   -1.1988    0.4878 H   0  0  0  0  0  0  0  0  0  0  0  0
   -3.1188   -2.2251   -0.5968 H   0  0  0  0  0  0  0  0  0  0  0  0
   -1.9954   -1.2873    0.9814 C   0  0  0  0  0  0  0  0  0  0  0  0
   -1.5342   -1.7087    2.0287 O   0  0  0  0  0  0  0  0  0  0  0  0
   -1.5250   -0.1418    0.3669 N   0  0  0  0  0  0  0  0  0  0  0  0
   -2.1187    0.2109   -0.3773 H   0  0  0  0  0  0  0  0  0  0  0  0
   -0.1777    0.4690    0.4383 C   0  0  1  0  0  0  0  0  0  0  0  0
    0.2464    0.4565   -0.5697 H   0  0  0  0  0  0  0  0  0  0  0  0
   -0.4037    1.9431    0.8373 C   0  0  0  0  0  0  0  0  0  0  0  0
   -0.9839    1.9906    1.7655 H   0  0  0  0  0  0  0  0  0  0  0  0
    0.5526    2.4423    1.0164 H   0  0  0  0  0  0  0  0  0  0  0  0
   -1.1235    2.7289   -0.2756 C   0  0  0  0  0  0  0  0  0  0  0  0
   -0.5164    2.7187   -1.1856 H   0  0  0  0  0  0  0  0  0  0  0  0
   -2.0858    2.2639   -0.5080 H   0  0  0  0  0  0  0  0  0  0  0  0
   -1.3635    4.1809    0.1389 C   0  0  0  0  0  0  0  0  0  0  0  0
   -0.3600    4.8681    0.4545 O   0  5  0  0  0  0  0  0  0  0  0  0
   -2.5455    4.6026    0.1204 O   0  0  0  0  0  0  0  0  0  0  0  0
    0.9161   -0.2228    1.3018 C   0  0  0  0  0  0  0  0  0  0  0  0
    1.1938   -1.3973    1.0806 O   0  0  0  0  0  0  0  0  0  0  0  0
    1.9127    0.5207    1.9139 N   0  0  0  0  0  0  0  0  0  0  0  0
    1.7297    1.5131    2.0366 H   0  0  0  0  0  0  0  0  0  0  0  0
    3.0809   -0.0611    2.5604 C   0  0  0  0  0  0  0  0  0  0  0  0
    3.7127   -0.5684    1.8244 H   0  0  0  0  0  0  0  0  0  0  0  0
    3.6718    0.7235    3.0419 H   0  0  0  0  0  0  0  0  0  0  0  0
    2.7758   -0.7835    3.3246 H   0  0  0  0  0  0  0  0  0  0  0  0
  1  2  1  0  0  0  0
  2  3  1  0  0  0  0
  2  4  1  0  0  0  0
  2  5  1  0  0  0  0
  5  6  2  0  0  0  0
  5  7  1  0  0  0  0
  7  8  1  0  0  0  0
  7  9  1  0  0  0  0
  9 10  1  0  0  0  0
  9 11  1  0  0  0  0
  9 20  1  0  0  0  0
 11 12  1  0  0  0  0
 11 13  1  0  0  0  0
 11 14  1  0  0  0  0
 14 15  1  0  0  0  0
 14 16  1  0  0  0  0
 14 17  1  0  0  0  0
 17 18  1  0  0  0  0
 17 19  2  0  0  0  0
 20 21  2  0  0  0  0
 20 22  1  0  0  0  0
 22 23  1  0  0  0  0
 22 24  1  0  0  0  0
 24 25  1  0  0  0  0
 24 26  1  0  0  0  0
 24 27  1  0  0  0  0
M  CHG  1  18  -1
M  END
$$$$

  -OEChem-01062216073D

 27 26  0     1  0  0  0  0  0999 V2000
   -3.5421   -2.7890    1.0394 H   0  0  0  0  0  0  0  0  0  0  0  0
   -3.2900   -1.8956    0.4610 C   0  0  0  0  0  0  0  0  0  0  0  0
   -4.0927   -1.1628    0.5762 H   0  0  0  0  0  0  0  0  0  0  0  0
   -3.2068   -2.1717   -0.5930 H   0  0  0  0  0  0  0  0  0  0  0  0
   -1.9771   -1.3065    0.9472 C   0  0  0  0  0  0  0  0  0  0  0  0
   -1.4556   -1.7854    1.9398 O   0  0  0  0  0  0  0  0  0  0  0  0
   -1.5131   -0.1561    0.3364 N   0  0  0  0  0  0  0  0  0  0  0  0
   -2.1279    0.2251   -0.3763 H   0  0  0  0  0  0  0  0  0  0  0  0
   -0.1720    0.4659    0.4157 C   0  0  1  0  0  0  0  0  0  0  0  0
    0.2607    0.4598   -0.5887 H   0  0  0  0  0  0  0  0  0  0  0  0
   -0.4044    1.9362    0.8221 C   0  0  0  0  0  0  0  0  0  0  0  0
   -0.9834    1.9790    1.7511 H   0  0  0  0  0  0  0  0  0  0  0  0
    0.5551    2.4312    1.0010 H   0  0  0  0  0  0  0  0  0  0  0  0
   -1.1253    2.7289   -0.2852 C   0  0  0  0  0  0  0  0  0  0  0  0
   -0.5157    2.7275   -1.1933 H   0  0  0  0  0  0  0  0  0  0  0  0
   -2.0851    2.2615   -0.5232 H   0  0  0  0  0  0  0  0  0  0  0  0
   -1.3728    4.1782    0.1370 C   0  0  0  0  0  0  0  0  0  0  0  0
   -0.3891    4.8466    0.5424 O   0  5  0  0  0  0  0  0  0  0  0  0
   -2.5453    4.6152    0.0387 O   0  0  0  0  0  0  0  0  0  0  0  0
    0.9091   -0.2300    1.2892 C   0  0  0  0  0  0  0  0  0  0  0  0
    1.3214   -1.3339    0.9461 O   0  0  0  0  0  0  0  0  0  0  0  0
    1.7102    0.4902    2.1602 N   0  0  0  0  0  0  0  0  0  0  0  0
    1.4094    1.4354    2.3824 H   0  0  0  0  0  0  0  0  0  0  0  0
    2.8627   -0.0656    2.8541 C   0  0  0  0  0  0  0  0  0  0  0  0
    3.6513   -0.3217    2.1394 H   0  0  0  0  0  0  0  0  0  0  0  0
    3.2615    0.6652    3.5637 H   0  0  0  0  0  0  0  0  0  0  0  0
    2.5784   -0.9662    3.4079 H   0  0  0  0  0  0  0  0  0  0  0  0
  1  2  1  0  0  0  0
  2  3  1  0  0  0  0
  2  4  1  0  0  0  0
  2  5  1  0  0  0  0
  5  6  2  0  0  0  0
  5  7  1  0  0  0  0
  7  8  1  0  0  0  0
  7  9  1  0  0  0  0
  9 10  1  0  0  0  0
  9 11  1  0  0  0  0
  9 20  1  0  0  0  0
 11 12  1  0  0  0  0
 11 13  1  0  0  0  0
 11 14  1  0  0  0  0
 14 15  1  0  0  0  0
 14 16  1  0  0  0  0
 14 17  1  0  0  0  0
 17 18  1  0  0  0  0
 17 19  2  0  0  0  0
 20 21  2  0  0  0  0
 20 22  1  0  0  0  0
 22 23  1  0  0  0  0
 22 24  1  0  0  0  0
 24 25  1  0  0  0  0
 24 26  1  0  0  0  0
 24 27  1  0  0  0  0
M  CHG  1  18  -1
M  END
$$$$

  -OEChem-01062216073D

 27 26  0     1  0  0  0  0  0999 V2000
   -3.5558   -2.7602    1.0363 H   0  0  0  0  0  0  0  0  0  0  0  0
   -3.3054   -1.8600    0.4679 C   0  0  0  0  0  0  0  0  0  0  0  0
   -4.0705   -1.1019    0.6540 H   0  0  0  0  0  0  0  0  0  0  0  0
   -3.2990   -2.1074   -0.5964 H   0  0  0  0  0  0  0  0  0  0  0  0
   -1.9430   -1.3341    0.8855 C   0  0  0  0  0  0  0  0  0  0  0  0
   -1.3566   -1.8918    1.7973 O   0  0  0  0  0  0  0  0  0  0  0  0
   -1.4825   -0.1761    0.2868 N   0  0  0  0  0  0  0  0  0  0  0  0
   -2.1323    0.2605   -0.3605 H   0  0  0  0  0  0  0  0  0  0  0  0
   -0.1500    0.4607    0.3796 C   0  0  1  0  0  0  0  0  0  0  0  0
    0.2902    0.4712   -0.6219 H   0  0  0  0  0  0  0  0  0  0  0  0
   -0.4009    1.9214    0.8054 C   0  0  0  0  0  0  0  0  0  0  0  0
   -0.9858    1.9448    1.7317 H   0  0  0  0  0  0  0  0  0  0  0  0
    0.5560    2.4182    0.9989 H   0  0  0  0  0  0  0  0  0  0  0  0
   -1.1272    2.7214   -0.2925 C   0  0  0  0  0  0  0  0  0  0  0  0
   -0.5153    2.7418   -1.1988 H   0  0  0  0  0  0  0  0  0  0  0  0
   -2.0808    2.2474   -0.5413 H   0  0  0  0  0  0  0  0  0  0  0  0
   -1.3907    4.1595    0.1546 C   0  0  0  0  0  0  0  0  0  0  0  0
   -0.4034    4.8582    0.4929 O   0  5  0  0  0  0  0  0  0  0  0  0
   -2.5830    4.5523    0.1576 O   0  0  0  0  0  0  0  0  0  0  0  0
    0.9270   -0.2297    1.2597 C   0  0  0  0  0  0  0  0  0  0  0  0
    1.4880   -1.2327    0.8292 O   0  0  0  0  0  0  0  0  0  0  0  0
    1.4982    0.4115    2.3462 N   0  0  0  0  0  0  0  0  0  0  0  0
    1.0486    1.2670    2.6602 H   0  0  0  0  0  0  0  0  0  0  0  0
    2.5929   -0.1416    3.1290 C   0  0  0  0  0  0  0  0  0  0  0  0
    3.4855   -0.2622    2.5068 H   0  0  0  0  0  0  0  0  0  0  0  0
    2.8368    0.5290    3.9583 H   0  0  0  0  0  0  0  0  0  0  0  0
    2.3124   -1.1161    3.5416 H   0  0  0  0  0  0  0  0  0  0  0  0
  1  2  1  0  0  0  0
  2  3  1  0  0  0  0
  2  4  1  0  0  0  0
  2  5  1  0  0  0  0
  5  6  2  0  0  0  0
  5  7  1  0  0  0  0
  7  8  1  0  0  0  0
  7  9  1  0  0  0  0
  9 10  1  0  0  0  0
  9 11  1  0  0  0  0
  9 20  1  0  0  0  0
 11 12  1  0  0  0  0
 11 13  1  0  0  0  0
 11 14  1  0  0  0  0
 14 15  1  0  0  0  0
 14 16  1  0  0  0  0
 14 17  1  0  0  0  0
 17 18  1  0  0  0  0
 17 19  2  0  0  0  0
 20 21  2  0  0  0  0
 20 22  1  0  0  0  0
 22 23  1  0  0  0  0
 22 24  1  0  0  0  0
 24 25  1  0  0  0  0
 24 26  1  0  0  0  0
 24 27  1  0  0  0  0
M  CHG  1  18  -1
M  END
$$$$

  -OEChem-01062216073D

 27 26  0     1  0  0  0  0  0999 V2000
   -3.5475   -2.7373    1.0275 H   0  0  0  0  0  0  0  0  0  0  0  0
   -3.3031   -1.8303    0.4675 C   0  0  0  0  0  0  0  0  0  0  0  0
   -4.0367   -1.0577    0.7116 H   0  0  0  0  0  0  0  0  0  0  0  0
   -3.3597   -2.0510   -0.6012 H   0  0  0  0  0  0  0  0  0  0  0  0
   -1.9071   -1.3501    0.8243 C   0  0  0  0  0  0  0  0  0  0  0  0
   -1.2754   -1.9642    1.6671 O   0  0  0  0  0  0  0  0  0  0  0  0
   -1.4486   -0.1880    0.2323 N   0  0  0  0  0  0  0  0  0  0  0  0
   -2.1230    0.2918   -0.3571 H   0  0  0  0  0  0  0  0  0  0  0  0
   -0.1241    0.4608    0.3442 C   0  0  1  0  0  0  0  0  0  0  0  0
    0.3286    0.4835   -0.6516 H   0  0  0  0  0  0  0  0  0  0  0  0
   -0.3936    1.9128    0.7845 C   0  0  0  0  0  0  0  0  0  0  0  0
   -0.9917    1.9195    1.7028 H   0  0  0  0  0  0  0  0  0  0  0  0
    0.5566    2.4148    0.9990 H   0  0  0  0  0  0  0  0  0  0  0  0
   -1.1174    2.7174   -0.3089 C   0  0  0  0  0  0  0  0  0  0  0  0
   -0.5031    2.7526   -1.2136 H   0  0  0  0  0  0  0  0  0  0  0  0
   -2.0693    2.2474   -0.5706 H   0  0  0  0  0  0  0  0  0  0  0  0
   -1.3886    4.1400    0.1733 C   0  0  0  0  0  0  0  0  0  0  0  0
   -0.4876    4.9968    0.0044 O   0  5  0  0  0  0  0  0  0  0  0  0
   -2.4862    4.3522    0.7447 O   0  0  0  0  0  0  0  0  0  0  0  0
    0.9439   -0.2189    1.2398 C   0  0  0  0  0  0  0  0  0  0  0  0
    1.6639   -1.0863    0.7551 O   0  0  0  0  0  0  0  0  0  0  0  0
    1.2673    0.2860    2.4874 N   0  0  0  0  0  0  0  0  0  0  0  0
    0.6350    0.9821    2.8706 H   0  0  0  0  0  0  0  0  0  0  0  0
    2.2803   -0.2992    3.3519 C   0  0  0  0  0  0  0  0  0  0  0  0
    3.2618   -0.2668    2.8683 H   0  0  0  0  0  0  0  0  0  0  0  0
    2.3392    0.2591    4.2908 H   0  0  0  0  0  0  0  0  0  0  0  0
    2.0310   -1.3404    3.5809 H   0  0  0  0  0  0  0  0  0  0  0  0
  1  2  1  0  0  0  0
  2  3  1  0  0  0  0
  2  4  1  0  0  0  0
  2  5  1  0  0  0  0
  5  6  2  0  0  0  0
  5  7  1  0  0  0  0
  7  8  1  0  0  0  0
  7  9  1  0  0  0  0
  9 10  1  0  0  0  0
  9 11  1  0  0  0  0
  9 20  1  0  0  0  0
 11 12  1  0  0  0  0
 11 13  1  0  0  0  0
 11 14  1  0  0  0  0
 14 15  1  0  0  0  0
 14 16  1  0  0  0  0
 14 17  1  0  0  0  0
 17 18  1  0  0  0  0
 17 19  2  0  0  0  0
 20 21  2  0  0  0  0
 20 22  1  0  0  0  0
 22 23  1  0  0  0  0
 22 24  1  0  0  0  0
 24 25  1  0  0  0  0
 24 26  1  0  0  0  0
 24 27  1  0  0  0  0
M  CHG  1  18  -1
M  END
$$$$

  -OEChem-01062216073D

 27 26  0     1  0  0  0  0  0999 V2000
   -3.5121   -2.7463    1.1830 H   0  0  0  0  0  0  0  0  0  0  0  0
   -3.3110   -1.8246    0.6299 C   0  0  0  0  0  0  0  0  0  0  0  0
   -4.0150   -1.0557    0.9587 H   0  0  0  0  0  0  0  0  0  0  0  0
   -3.4620   -2.0138   -0.4358 H   0  0  0  0  0  0  0  0  0  0  0  0
   -1.8858   -1.3609    0.8758 C   0  0  0  0  0  0  0  0  0  0  0  0
   -1.1872   -1.9961    1.6469 O   0  0  0  0  0  0  0  0  0  0  0  0
   -1.4638   -0.2004    0.2549 N   0  0  0  0  0  0  0  0  0  0  0  0
   -2.1797    0.2904   -0.2740 H   0  0  0  0  0  0  0  0  0  0  0  0
   -0.1422    0.4627    0.3033 C   0  0  1  0  0  0  0  0  0  0  0  0
    0.2642    0.4894   -0.7127 H   0  0  0  0  0  0  0  0  0  0  0  0
   -0.4066    1.9100    0.7586 C   0  0  0  0  0  0  0  0  0  0  0  0
   -0.9619    1.9105    1.7031 H   0  0  0  0  0  0  0  0  0  0  0  0
    0.5485    2.4185    0.9325 H   0  0  0  0  0  0  0  0  0  0  0  0
   -1.1917    2.7051   -0.2997 C   0  0  0  0  0  0  0  0  0  0  0  0
   -0.6219    2.7478   -1.2326 H   0  0  0  0  0  0  0  0  0  0  0  0
   -2.1476    2.2204   -0.5162 H   0  0  0  0  0  0  0  0  0  0  0  0
   -1.4618    4.1263    0.1881 C   0  0  0  0  0  0  0  0  0  0  0  0
   -2.5851    4.3502    0.7032 O   0  5  0  0  0  0  0  0  0  0  0  0
   -0.5391    4.9697    0.0795 O   0  0  0  0  0  0  0  0  0  0  0  0
    0.9713   -0.1939    1.1570 C   0  0  0  0  0  0  0  0  0  0  0  0
    1.8096   -0.9023    0.6085 O   0  0  0  0  0  0  0  0  0  0  0  0
    1.1353    0.1291    2.4925 N   0  0  0  0  0  0  0  0  0  0  0  0
    0.3678    0.6334    2.9252 H   0  0  0  0  0  0  0  0  0  0  0  0
    2.1258   -0.5069    3.3474 C   0  0  0  0  0  0  0  0  0  0  0  0
    3.1333   -0.3545    2.9468 H   0  0  0  0  0  0  0  0  0  0  0  0
    2.0863   -0.0760    4.3522 H   0  0  0  0  0  0  0  0  0  0  0  0
    1.9316   -1.5819    3.4206 H   0  0  0  0  0  0  0  0  0  0  0  0
  1  2  1  0  0  0  0
  2  3  1  0  0  0  0
  2  4  1  0  0  0  0
  2  5  1  0  0  0  0
  5  6  2  0  0  0  0
  5  7  1  0  0  0  0
  7  8  1  0  0  0  0
  7  9  1  0  0  0  0
  9 10  1  0  0  0  0
  9 11  1  0  0  0  0
  9 20  1  0  0  0  0
 11 12  1  0  0  0  0
 11 13  1  0  0  0  0
 11 14  1  0  0  0  0
 14 15  1  0  0  0  0
 14 16  1  0  0  0  0
 14 17  1  0  0  0  0
 17 18  1  0  0  0  0
 17 19  2  0  0  0  0
 20 21  2  0  0  0  0
 20 22  1  0  0  0  0
 22 23  1  0  0  0  0
 22 24  1  0  0  0  0
 24 25  1  0  0  0  0
 24 26  1  0  0  0  0
 24 27  1  0  0  0  0
M  CHG  1  18  -1
M  END
$$$$

  -OEChem-01062216073D

 27 26  0     1  0  0  0  0  0999 V2000
   -3.5324   -2.7069    1.1903 H   0  0  0  0  0  0  0  0  0  0  0  0
   -3.3221   -1.7873    0.6368 C   0  0  0  0  0  0  0  0  0  0  0  0
   -3.9915   -1.0004    0.9941 H   0  0  0  0  0  0  0  0  0  0  0  0
   -3.5140   -1.9634   -0.4244 H   0  0  0  0  0  0  0  0  0  0  0  0
   -1.8767   -1.3678    0.8392 C   0  0  0  0  0  0  0  0  0  0  0  0
   -1.1669   -2.0402    1.5673 O   0  0  0  0  0  0  0  0  0  0  0  0
   -1.4427   -0.2109    0.2208 N   0  0  0  0  0  0  0  0  0  0  0  0
   -2.1647    0.3064   -0.2742 H   0  0  0  0  0  0  0  0  0  0  0  0
   -0.1236    0.4569    0.2879 C   0  0  1  0  0  0  0  0  0  0  0  0
    0.2953    0.4916   -0.7228 H   0  0  0  0  0  0  0  0  0  0  0  0
   -0.4047    1.8969    0.7536 C   0  0  0  0  0  0  0  0  0  0  0  0
   -0.9688    1.8846    1.6927 H   0  0  0  0  0  0  0  0  0  0  0  0
    0.5447    2.4106    0.9435 H   0  0  0  0  0  0  0  0  0  0  0  0
   -1.1851    2.6944   -0.3068 C   0  0  0  0  0  0  0  0  0  0  0  0
   -0.6052    2.7479   -1.2330 H   0  0  0  0  0  0  0  0  0  0  0  0
   -2.1355    2.2056   -0.5374 H   0  0  0  0  0  0  0  0  0  0  0  0
   -1.4736    4.1087    0.1895 C   0  0  0  0  0  0  0  0  0  0  0  0
   -2.5497    4.2829    0.8134 O   0  5  0  0  0  0  0  0  0  0  0  0
   -0.6181    4.9991   -0.0328 O   0  0  0  0  0  0  0  0  0  0  0  0
    0.9843   -0.1802    1.1618 C   0  0  0  0  0  0  0  0  0  0  0  0
    1.9640   -0.6847    0.6226 O   0  0  0  0  0  0  0  0  0  0  0  0
    0.9435   -0.0862    2.5412 N   0  0  0  0  0  0  0  0  0  0  0  0
    0.0410    0.1699    2.9288 H   0  0  0  0  0  0  0  0  0  0  0  0
    1.8944   -0.7715    3.4026 C   0  0  0  0  0  0  0  0  0  0  0  0
    2.9130   -0.4253    3.2006 H   0  0  0  0  0  0  0  0  0  0  0  0
    1.6627   -0.5687    4.4523 H   0  0  0  0  0  0  0  0  0  0  0  0
    1.8467   -1.8528    3.2377 H   0  0  0  0  0  0  0  0  0  0  0  0
  1  2  1  0  0  0  0
  2  3  1  0  0  0  0
  2  4  1  0  0  0  0
  2  5  1  0  0  0  0
  5  6  2  0  0  0  0
  5  7  1  0  0  0  0
  7  8  1  0  0  0  0
  7  9  1  0  0  0  0
  9 10  1  0  0  0  0
  9 11  1  0  0  0  0
  9 20  1  0  0  0  0
 11 12  1  0  0  0  0
 11 13  1  0  0  0  0
 11 14  1  0  0  0  0
 14 15  1  0  0  0  0
 14 16  1  0  0  0  0
 14 17  1  0  0  0  0
 17 18  1  0  0  0  0
 17 19  2  0  0  0  0
 20 21  2  0  0  0  0
 20 22  1  0  0  0  0
 22 23  1  0  0  0  0
 22 24  1  0  0  0  0
 24 25  1  0  0  0  0
 24 26  1  0  0  0  0
 24 27  1  0  0  0  0
M  CHG  1  18  -1
M  END
$$$$

  -OEChem-01062216073D

 27 26  0     1  0  0  0  0  0999 V2000
   -3.6388   -2.6562    1.1347 H   0  0  0  0  0  0  0  0  0  0  0  0
   -3.3922   -1.7409    0.5895 C   0  0  0  0  0  0  0  0  0  0  0  0
   -4.0378   -0.9341    0.9468 H   0  0  0  0  0  0  0  0  0  0  0  0
   -3.5813   -1.9035   -0.4745 H   0  0  0  0  0  0  0  0  0  0  0  0
   -1.9352   -1.3716    0.8068 C   0  0  0  0  0  0  0  0  0  0  0  0
   -1.2494   -2.0796    1.5237 O   0  0  0  0  0  0  0  0  0  0  0  0
   -1.4586   -0.2232    0.2060 N   0  0  0  0  0  0  0  0  0  0  0  0
   -2.1655    0.3221   -0.2812 H   0  0  0  0  0  0  0  0  0  0  0  0
   -0.1312    0.4279    0.2997 C   0  0  1  0  0  0  0  0  0  0  0  0
    0.3002    0.4656   -0.7056 H   0  0  0  0  0  0  0  0  0  0  0  0
   -0.4122    1.8661    0.7699 C   0  0  0  0  0  0  0  0  0  0  0  0
   -0.9910    1.8497    1.7001 H   0  0  0  0  0  0  0  0  0  0  0  0
    0.5363    2.3734    0.9805 H   0  0  0  0  0  0  0  0  0  0  0  0
   -1.1681    2.6757   -0.3008 C   0  0  0  0  0  0  0  0  0  0  0  0
   -0.5700    2.7278   -1.2156 H   0  0  0  0  0  0  0  0  0  0  0  0
   -2.1178    2.1957   -0.5514 H   0  0  0  0  0  0  0  0  0  0  0  0
   -1.4603    4.0901    0.1941 C   0  0  0  0  0  0  0  0  0  0  0  0
   -2.4703    4.2373    0.9266 O   0  5  0  0  0  0  0  0  0  0  0  0
   -0.6877    5.0129   -0.1601 O   0  0  0  0  0  0  0  0  0  0  0  0
    0.9750   -0.1966    1.1871 C   0  0  0  0  0  0  0  0  0  0  0  0
    2.0733   -0.4342    0.6953 O   0  0  0  0  0  0  0  0  0  0  0  0
    0.7953   -0.3719    2.5467 N   0  0  0  0  0  0  0  0  0  0  0  0
   -0.1795   -0.4533    2.8240 H   0  0  0  0  0  0  0  0  0  0  0  0
    1.7925   -1.0171    3.3872 C   0  0  0  0  0  0  0  0  0  0  0  0
    2.7327   -0.4566    3.3651 H   0  0  0  0  0  0  0  0  0  0  0  0
    1.4403   -1.0577    4.4221 H   0  0  0  0  0  0  0  0  0  0  0  0
    1.9802   -2.0389    3.0421 H   0  0  0  0  0  0  0  0  0  0  0  0
  1  2  1  0  0  0  0
  2  3  1  0  0  0  0
  2  4  1  0  0  0  0
  2  5  1  0  0  0  0
  5  6  2  0  0  0  0
  5  7  1  0  0  0  0
  7  8  1  0  0  0  0
  7  9  1  0  0  0  0
  9 10  1  0  0  0  0
  9 11  1  0  0  0  0
  9 20  1  0  0  0  0
 11 12  1  0  0  0  0
 11 13  1  0  0  0  0
 11 14  1  0  0  0  0
 14 15  1  0  0  0  0
 14 16  1  0  0  0  0
 14 17  1  0  0  0  0
 17 18  1  0  0  0  0
 17 19  2  0  0  0  0
 20 21  2  0  0  0  0
 20 22  1  0  0  0  0
 22 23  1  0  0  0  0
 22 24  1  0  0  0  0
 24 25  1  0  0  0  0
 24 26  1  0  0  0  0
 24 27  1  0  0  0  0
M  CHG  1  18  -1
M  END
$$$$

  -OEChem-01062216073D

 27 26  0     1  0  0  0  0  0999 V2000
   -3.7523   -2.6050    1.0578 H   0  0  0  0  0  0  0  0  0  0  0  0
   -3.4732   -1.6789    0.5473 C   0  0  0  0  0  0  0  0  0  0  0  0
   -4.0796   -0.8615    0.9464 H   0  0  0  0  0  0  0  0  0  0  0  0
   -3.6822   -1.7885   -0.5198 H   0  0  0  0  0  0  0  0  0  0  0  0
   -1.9992   -1.3811    0.7599 C   0  0  0  0  0  0  0  0  0  0  0  0
   -1.3375   -2.1513    1.4341 O   0  0  0  0  0  0  0  0  0  0  0  0
   -1.4765   -0.2391    0.1864 N   0  0  0  0  0  0  0  0  0  0  0  0
   -2.1709    0.3459   -0.2726 H   0  0  0  0  0  0  0  0  0  0  0  0
   -0.1413    0.3955    0.3124 C   0  0  1  0  0  0  0  0  0  0  0  0
    0.3030    0.4362   -0.6872 H   0  0  0  0  0  0  0  0  0  0  0  0
   -0.4272    1.8324    0.7840 C   0  0  0  0  0  0  0  0  0  0  0  0
   -1.0259    1.8116    1.7017 H   0  0  0  0  0  0  0  0  0  0  0  0
    0.5176    2.3354    1.0195 H   0  0  0  0  0  0  0  0  0  0  0  0
   -1.1538    2.6519   -0.3006 C   0  0  0  0  0  0  0  0  0  0  0  0
   -0.5326    2.7041   -1.2001 H   0  0  0  0  0  0  0  0  0  0  0  0
   -2.0996    2.1786   -0.5766 H   0  0  0  0  0  0  0  0  0  0  0  0
   -1.4537    4.0660    0.1911 C   0  0  0  0  0  0  0  0  0  0  0  0
   -2.4304    4.1989    0.9701 O   0  5  0  0  0  0  0  0  0  0  0  0
   -0.7328    5.0046   -0.2254 O   0  0  0  0  0  0  0  0  0  0  0  0
    0.9693   -0.2120    1.2100 C   0  0  0  0  0  0  0  0  0  0  0  0
    2.1279   -0.1911    0.8079 O   0  0  0  0  0  0  0  0  0  0  0  0
    0.7237   -0.6712    2.4898 N   0  0  0  0  0  0  0  0  0  0  0  0
   -0.2345   -0.9940    2.6226 H   0  0  0  0  0  0  0  0  0  0  0  0
    1.7557   -1.2857    3.3116 C   0  0  0  0  0  0  0  0  0  0  0  0
    2.5813   -0.5861    3.4772 H   0  0  0  0  0  0  0  0  0  0  0  0
    1.3414   -1.5648    4.2848 H   0  0  0  0  0  0  0  0  0  0  0  0
    2.1453   -2.1862    2.8263 H   0  0  0  0  0  0  0  0  0  0  0  0
  1  2  1  0  0  0  0
  2  3  1  0  0  0  0
  2  4  1  0  0  0  0
  2  5  1  0  0  0  0
  5  6  2  0  0  0  0
  5  7  1  0  0  0  0
  7  8  1  0  0  0  0
  7  9  1  0  0  0  0
  9 10  1  0  0  0  0
  9 11  1  0  0  0  0
  9 20  1  0  0  0  0
 11 12  1  0  0  0  0
 11 13  1  0  0  0  0
 11 14  1  0  0  0  0
 14 15  1  0  0  0  0
 14 16  1  0  0  0  0
 14 17  1  0  0  0  0
 17 18  1  0  0  0  0
 17 19  2  0  0  0  0
 20 21  2  0  0  0  0
 20 22  1  0  0  0  0
 22 23  1  0  0  0  0
 22 24  1  0  0  0  0
 24 25  1  0  0  0  0
 24 26  1  0  0  0  0
 24 27  1  0  0  0  0
M  CHG  1  18  -1
M  END
$$$$

  -OEChem-01062216073D

 27 26  0     1  0  0  0  0  0999 V2000
   -3.8544   -2.5347    1.0033 H   0  0  0  0  0  0  0  0  0  0  0  0
   -3.5421   -1.5954    0.5381 C   0  0  0  0  0  0  0  0  0  0  0  0
   -4.0856   -0.7721    1.0094 H   0  0  0  0  0  0  0  0  0  0  0  0
   -3.7964   -1.6270   -0.5243 H   0  0  0  0  0  0  0  0  0  0  0  0
   -2.0469   -1.3913    0.7075 C   0  0  0  0  0  0  0  0  0  0  0  0
   -1.4027   -2.2464    1.2902 O   0  0  0  0  0  0  0  0  0  0  0  0
   -1.4835   -0.2551    0.1620 N   0  0  0  0  0  0  0  0  0  0  0  0
   -2.1711    0.3733   -0.2475 H   0  0  0  0  0  0  0  0  0  0  0  0
   -0.1437    0.3663    0.3175 C   0  0  1  0  0  0  0  0  0  0  0  0
    0.3140    0.4122   -0.6756 H   0  0  0  0  0  0  0  0  0  0  0  0
   -0.4474    1.8013    0.7888 C   0  0  0  0  0  0  0  0  0  0  0  0
   -1.0669    1.7742    1.6924 H   0  0  0  0  0  0  0  0  0  0  0  0
    0.4887    2.3090    1.0484 H   0  0  0  0  0  0  0  0  0  0  0  0
   -1.1512    2.6243   -0.3094 C   0  0  0  0  0  0  0  0  0  0  0  0
   -0.5083    2.6836   -1.1928 H   0  0  0  0  0  0  0  0  0  0  0  0
   -2.0884    2.1503   -0.6118 H   0  0  0  0  0  0  0  0  0  0  0  0
   -1.4696    4.0350    0.1809 C   0  0  0  0  0  0  0  0  0  0  0  0
   -2.4571    4.1555    0.9483 O   0  5  0  0  0  0  0  0  0  0  0  0
   -0.7590    4.9833   -0.2312 O   0  0  0  0  0  0  0  0  0  0  0  0
    0.9705   -0.2269    1.2250 C   0  0  0  0  0  0  0  0  0  0  0  0
    2.1391    0.0027    0.9335 O   0  0  0  0  0  0  0  0  0  0  0  0
    0.7263   -0.9550    2.3728 N   0  0  0  0  0  0  0  0  0  0  0  0
   -0.2003   -1.3821    2.4037 H   0  0  0  0  0  0  0  0  0  0  0  0
    1.7826   -1.5754    3.1590 C   0  0  0  0  0  0  0  0  0  0  0  0
    2.4904   -0.8197    3.5149 H   0  0  0  0  0  0  0  0  0  0  0  0
    1.3531   -2.0805    4.0291 H   0  0  0  0  0  0  0  0  0  0  0  0
    2.3236   -2.3137    2.5586 H   0  0  0  0  0  0  0  0  0  0  0  0
  1  2  1  0  0  0  0
  2  3  1  0  0  0  0
  2  4  1  0  0  0  0
  2  5  1  0  0  0  0
  5  6  2  0  0  0  0
  5  7  1  0  0  0  0
  7  8  1  0  0  0  0
  7  9  1  0  0  0  0
  9 10  1  0  0  0  0
  9 11  1  0  0  0  0
  9 20  1  0  0  0  0
 11 12  1  0  0  0  0
 11 13  1  0  0  0  0
 11 14  1  0  0  0  0
 14 15  1  0  0  0  0
 14 16  1  0  0  0  0
 14 17  1  0  0  0  0
 17 18  1  0  0  0  0
 17 19  2  0  0  0  0
 20 21  2  0  0  0  0
 20 22  1  0  0  0  0
 22 23  1  0  0  0  0
 22 24  1  0  0  0  0
 24 25  1  0  0  0  0
 24 26  1  0  0  0  0
 24 27  1  0  0  0  0
M  CHG  1  18  -1
M  END
$$$$

  -OEChem-01062216073D

 27 26  0     1  0  0  0  0  0999 V2000
   -3.8978   -2.4760    1.3055 H   0  0  0  0  0  0  0  0  0  0  0  0
   -3.5841   -1.5864    0.7519 C   0  0  0  0  0  0  0  0  0  0  0  0
   -4.0701   -0.7108    1.1907 H   0  0  0  0  0  0  0  0  0  0  0  0
   -3.9047   -1.6866   -0.2881 H   0  0  0  0  0  0  0  0  0  0  0  0
   -2.0753   -1.4259    0.8160 C   0  0  0  0  0  0  0  0  0  0  0  0
   -1.4185   -2.3033    1.3492 O   0  0  0  0  0  0  0  0  0  0  0  0
   -1.5194   -0.3200    0.2047 N   0  0  0  0  0  0  0  0  0  0  0  0
   -2.2234    0.3073   -0.1781 H   0  0  0  0  0  0  0  0  0  0  0  0
   -0.1763    0.3116    0.2867 C   0  0  1  0  0  0  0  0  0  0  0  0
    0.2457    0.3103   -0.7230 H   0  0  0  0  0  0  0  0  0  0  0  0
   -0.4912    1.7665    0.6919 C   0  0  0  0  0  0  0  0  0  0  0  0
   -1.0850    1.7757    1.6129 H   0  0  0  0  0  0  0  0  0  0  0  0
    0.4411    2.3033    0.9001 H   0  0  0  0  0  0  0  0  0  0  0  0
   -1.2372    2.5249   -0.4263 C   0  0  0  0  0  0  0  0  0  0  0  0
   -0.6172    2.5479   -1.3279 H   0  0  0  0  0  0  0  0  0  0  0  0
   -2.1753    2.0253   -0.6803 H   0  0  0  0  0  0  0  0  0  0  0  0
   -1.5656    3.9544   -0.0004 C   0  0  0  0  0  0  0  0  0  0  0  0
   -2.4735    4.0922    0.8572 O   0  5  0  0  0  0  0  0  0  0  0  0
   -0.9549    4.8974   -0.5589 O   0  0  0  0  0  0  0  0  0  0  0  0
    0.9885   -0.2106    1.1793 C   0  0  0  0  0  0  0  0  0  0  0  0
    2.1203    0.1954    0.9401 O   0  0  0  0  0  0  0  0  0  0  0  0
    0.8575   -1.1179    2.2115 N   0  0  0  0  0  0  0  0  0  0  0  0
   -0.0321   -1.6173    2.2406 H   0  0  0  0  0  0  0  0  0  0  0  0
    1.9832   -1.6753    2.9473 C   0  0  0  0  0  0  0  0  0  0  0  0
    2.5737   -0.8771    3.4084 H   0  0  0  0  0  0  0  0  0  0  0  0
    1.6207   -2.3362    3.7400 H   0  0  0  0  0  0  0  0  0  0  0  0
    2.6285   -2.2536    2.2786 H   0  0  0  0  0  0  0  0  0  0  0  0
  1  2  1  0  0  0  0
  2  3  1  0  0  0  0
  2  4  1  0  0  0  0
  2  5  1  0  0  0  0
  5  6  2  0  0  0  0
  5  7  1  0  0  0  0
  7  8  1  0  0  0  0
  7  9  1  0  0  0  0
  9 10  1  0  0  0  0
  9 11  1  0  0  0  0
  9 20  1  0  0  0  0
 11 12  1  0  0  0  0
 11 13  1  0  0  0  0
 11 14  1  0  0  0  0
 14 15  1  0  0  0  0
 14 16  1  0  0  0  0
 14 17  1  0  0  0  0
 17 18  1  0  0  0  0
 17 19  2  0  0  0  0
 20 21  2  0  0  0  0
 20 22  1  0  0  0  0
 22 23  1  0  0  0  0
 22 24  1  0  0  0  0
 24 25  1  0  0  0  0
 24 26  1  0  0  0  0
 24 27  1  0  0  0  0
M  CHG  1  18  -1
M  END
$$$$

  -OEChem-01062216073D

 27 26  0     1  0  0  0  0  0999 V2000
   -3.2043   -2.7867    1.4632 H   0  0  0  0  0  0  0  0  0  0  0  0
   -3.1076   -1.8013    0.9993 C   0  0  0  0  0  0  0  0  0  0  0  0
   -3.3548   -1.0384    1.7425 H   0  0  0  0  0  0  0  0  0  0  0  0
   -3.8129   -1.7293    0.1677 H   0  0  0  0  0  0  0  0  0  0  0  0
   -1.6908   -1.5923    0.4957 C   0  0  0  0  0  0  0  0  0  0  0  0
   -0.9587   -2.5595    0.3781 O   0  0  0  0  0  0  0  0  0  0  0  0
   -1.3532   -0.3549   -0.0076 N   0  0  0  0  0  0  0  0  0  0  0  0
   -2.1411    0.2885    0.0155 H   0  0  0  0  0  0  0  0  0  0  0  0
   -0.0563    0.3659   -0.0011 C   0  0  1  0  0  0  0  0  0  0  0  0
    0.2047    0.5774   -1.0425 H   0  0  0  0  0  0  0  0  0  0  0  0
   -0.3987    1.6871    0.7173 C   0  0  0  0  0  0  0  0  0  0  0  0
   -0.8368    1.4738    1.6989 H   0  0  0  0  0  0  0  0  0  0  0  0
    0.5186    2.2619    0.8887 H   0  0  0  0  0  0  0  0  0  0  0  0
   -1.3583    2.5693   -0.1065 C   0  0  0  0  0  0  0  0  0  0  0  0
   -0.8945    2.8207   -1.0653 H   0  0  0  0  0  0  0  0  0  0  0  0
   -2.2933    2.0441   -0.3170 H   0  0  0  0  0  0  0  0  0  0  0  0
   -1.6934    3.8529    0.6499 C   0  0  0  0  0  0  0  0  0  0  0  0
   -2.4547    3.7365    1.6431 O   0  5  0  0  0  0  0  0  0  0  0  0
   -1.2173    4.9356    0.2318 O   0  0  0  0  0  0  0  0  0  0  0  0
    1.2655   -0.1738    0.6281 C   0  0  0  0  0  0  0  0  0  0  0  0
    2.3246    0.3014    0.2434 O   0  0  0  0  0  0  0  0  0  0  0  0
    1.5149   -1.3535    1.2826 N   0  0  0  0  0  0  0  0  0  0  0  0
    2.5096   -1.5521    1.2655 H   0  0  0  0  0  0  0  0  0  0  0  0
    0.8474   -1.6313    2.5470 C   0  0  0  0  0  0  0  0  0  0  0  0
   -0.0608   -1.0316    2.6634 H   0  0  0  0  0  0  0  0  0  0  0  0
    0.5758   -2.6897    2.6051 H   0  0  0  0  0  0  0  0  0  0  0  0
    1.5167   -1.3957    3.3798 H   0  0  0  0  0  0  0  0  0  0  0  0
  1  2  1  0  0  0  0
  2  3  1  0  0  0  0
  2  4  1  0  0  0  0
  2  5  1  0  0  0  0
  5  6  2  0  0  0  0
  5  7  1  0  0  0  0
  7  8  1  0  0  0  0
  7  9  1  0  0  0  0
  9 10  1  0  0  0  0
  9 11  1  0  0  0  0
  9 20  1  0  0  0  0
 11 12  1  0  0  0  0
 11 13  1  0  0  0  0
 11 14  1  0  0  0  0
 14 15  1  0  0  0  0
 14 16  1  0  0  0  0
 14 17  1  0  0  0  0
 17 18  1  0  0  0  0
 17 19  2  0  0  0  0
 20 21  2  0  0  0  0
 20 22  1  0  0  0  0
 22 23  1  0  0  0  0
 22 24  1  0  0  0  0
 24 25  1  0  0  0  0
 24 26  1  0  0  0  0
 24 27  1  0  0  0  0
M  CHG  1  18  -1
M  END
$$$$

  -OEChem-01062216073D

 27 26  0     1  0  0  0  0  0999 V2000
   -3.4233   -2.5648    1.6309 H   0  0  0  0  0  0  0  0  0  0  0  0
   -3.2536   -1.5941    1.1568 C   0  0  0  0  0  0  0  0  0  0  0  0
   -3.4087   -0.8081    1.9009 H   0  0  0  0  0  0  0  0  0  0  0  0
   -3.9758   -1.4639    0.3469 H   0  0  0  0  0  0  0  0  0  0  0  0
   -1.8404   -1.5149    0.6077 C   0  0  0  0  0  0  0  0  0  0  0  0
   -1.1962   -2.5431    0.5011 O   0  0  0  0  0  0  0  0  0  0  0  0
   -1.4273   -0.3259    0.0471 N   0  0  0  0  0  0  0  0  0  0  0  0
   -2.1661    0.3735    0.0686 H   0  0  0  0  0  0  0  0  0  0  0  0
   -0.0853    0.3029   -0.0267 C   0  0  1  0  0  0  0  0  0  0  0  0
    0.1456    0.4486   -1.0862 H   0  0  0  0  0  0  0  0  0  0  0  0
   -0.3183    1.6783    0.6366 C   0  0  0  0  0  0  0  0  0  0  0  0
   -0.7330    1.5406    1.6416 H   0  0  0  0  0  0  0  0  0  0  0  0
    0.6369    2.2033    0.7497 H   0  0  0  0  0  0  0  0  0  0  0  0
   -1.2490    2.5807   -0.1998 C   0  0  0  0  0  0  0  0  0  0  0  0
   -0.8047    2.7536   -1.1847 H   0  0  0  0  0  0  0  0  0  0  0  0
   -2.2221    2.1075   -0.3522 H   0  0  0  0  0  0  0  0  0  0  0  0
   -1.4780    3.9194    0.4985 C   0  0  0  0  0  0  0  0  0  0  0  0
   -2.1970    3.8996    1.5290 O   0  5  0  0  0  0  0  0  0  0  0  0
   -0.9714    4.9508   -0.0050 O   0  0  0  0  0  0  0  0  0  0  0  0
    1.2277   -0.2992    0.5672 C   0  0  0  0  0  0  0  0  0  0  0  0
    2.2900    0.2236    0.2613 O   0  0  0  0  0  0  0  0  0  0  0  0
    1.4936   -1.5692    1.0084 N   0  0  0  0  0  0  0  0  0  0  0  0
    2.4785   -1.7643    0.8620 H   0  0  0  0  0  0  0  0  0  0  0  0
    1.0070   -1.9549    2.3261 C   0  0  0  0  0  0  0  0  0  0  0  0
    0.1206   -1.3793    2.6115 H   0  0  0  0  0  0  0  0  0  0  0  0
    0.7487   -3.0182    2.3355 H   0  0  0  0  0  0  0  0  0  0  0  0
    1.7833   -1.7771    3.0766 H   0  0  0  0  0  0  0  0  0  0  0  0
  1  2  1  0  0  0  0
  2  3  1  0  0  0  0
  2  4  1  0  0  0  0
  2  5  1  0  0  0  0
  5  6  2  0  0  0  0
  5  7  1  0  0  0  0
  7  8  1  0  0  0  0
  7  9  1  0  0  0  0
  9 10  1  0  0  0  0
  9 11  1  0  0  0  0
  9 20  1  0  0  0  0
 11 12  1  0  0  0  0
 11 13  1  0  0  0  0
 11 14  1  0  0  0  0
 14 15  1  0  0  0  0
 14 16  1  0  0  0  0
 14 17  1  0  0  0  0
 17 18  1  0  0  0  0
 17 19  2  0  0  0  0
 20 21  2  0  0  0  0
 20 22  1  0  0  0  0
 22 23  1  0  0  0  0
 22 24  1  0  0  0  0
 24 25  1  0  0  0  0
 24 26  1  0  0  0  0
 24 27  1  0  0  0  0
M  CHG  1  18  -1
M  END
$$$$

  -OEChem-01062216073D

 27 26  0     1  0  0  0  0  0999 V2000
   -3.9106   -2.4337    1.1120 H   0  0  0  0  0  0  0  0  0  0  0  0
   -3.5826   -1.5005    0.6454 C   0  0  0  0  0  0  0  0  0  0  0  0
   -4.0199   -0.6619    1.1940 H   0  0  0  0  0  0  0  0  0  0  0  0
   -3.9424   -1.4761   -0.3863 H   0  0  0  0  0  0  0  0  0  0  0  0
   -2.0673   -1.3996    0.6699 C   0  0  0  0  0  0  0  0  0  0  0  0
   -1.4307   -2.3605    1.0652 O   0  0  0  0  0  0  0  0  0  0  0  0
   -1.4937   -0.2459    0.1714 N   0  0  0  0  0  0  0  0  0  0  0  0
   -2.1925    0.4411   -0.1042 H   0  0  0  0  0  0  0  0  0  0  0  0
   -0.1341    0.3473    0.2811 C   0  0  1  0  0  0  0  0  0  0  0  0
    0.2711    0.4125   -0.7325 H   0  0  0  0  0  0  0  0  0  0  0  0
   -0.4288    1.7858    0.7720 C   0  0  0  0  0  0  0  0  0  0  0  0
   -1.0193    1.7515    1.6944 H   0  0  0  0  0  0  0  0  0  0  0  0
    0.5041    2.3107    1.0030 H   0  0  0  0  0  0  0  0  0  0  0  0
   -1.1670    2.6115   -0.3047 C   0  0  0  0  0  0  0  0  0  0  0  0
   -0.5475    2.6744   -1.2044 H   0  0  0  0  0  0  0  0  0  0  0  0
   -2.1112    2.1383   -0.5849 H   0  0  0  0  0  0  0  0  0  0  0  0
   -1.4793    4.0210    0.1926 C   0  0  0  0  0  0  0  0  0  0  0  0
   -2.4266    4.1333    1.0104 O   0  5  0  0  0  0  0  0  0  0  0  0
   -0.8201    4.9781   -0.2805 O   0  0  0  0  0  0  0  0  0  0  0  0
    1.0337   -0.3147    1.0831 C   0  0  0  0  0  0  0  0  0  0  0  0
    1.9724    0.3680    1.4767 O   0  0  0  0  0  0  0  0  0  0  0  0
    1.1732   -1.6776    1.2553 N   0  0  0  0  0  0  0  0  0  0  0  0
    0.3323   -2.2267    1.0720 H   0  0  0  0  0  0  0  0  0  0  0  0
    2.2349   -2.2925    2.0396 C   0  0  0  0  0  0  0  0  0  0  0  0
    2.1917   -1.9486    3.0780 H   0  0  0  0  0  0  0  0  0  0  0  0
    2.1248   -3.3808    2.0288 H   0  0  0  0  0  0  0  0  0  0  0  0
    3.2152   -2.0412    1.6223 H   0  0  0  0  0  0  0  0  0  0  0  0
  1  2  1  0  0  0  0
  2  3  1  0  0  0  0
  2  4  1  0  0  0  0
  2  5  1  0  0  0  0
  5  6  2  0  0  0  0
  5  7  1  0  0  0  0
  7  8  1  0  0  0  0
  7  9  1  0  0  0  0
  9 10  1  0  0  0  0
  9 11  1  0  0  0  0
  9 20  1  0  0  0  0
 11 12  1  0  0  0  0
 11 13  1  0  0  0  0
 11 14  1  0  0  0  0
 14 15  1  0  0  0  0
 14 16  1  0  0  0  0
 14 17  1  0  0  0  0
 17 18  1  0  0  0  0
 17 19  2  0  0  0  0
 20 21  2  0  0  0  0
 20 22  1  0  0  0  0
 22 23  1  0  0  0  0
 22 24  1  0  0  0  0
 24 25  1  0  0  0  0
 24 26  1  0  0  0  0
 24 27  1  0  0  0  0
M  CHG  1  18  -1
M  END
$$$$

  -OEChem-01062216073D

 27 26  0     1  0  0  0  0  0999 V2000
   -3.7633   -2.5018    1.1891 H   0  0  0  0  0  0  0  0  0  0  0  0
   -3.4883   -1.5466    0.7331 C   0  0  0  0  0  0  0  0  0  0  0  0
   -3.9086   -0.7370    1.3357 H   0  0  0  0  0  0  0  0  0  0  0  0
   -3.9138   -1.4988   -0.2723 H   0  0  0  0  0  0  0  0  0  0  0  0
   -1.9777   -1.4083    0.6645 C   0  0  0  0  0  0  0  0  0  0  0  0
   -1.2892   -2.3653    0.9748 O   0  0  0  0  0  0  0  0  0  0  0  0
   -1.4595   -0.2316    0.1606 N   0  0  0  0  0  0  0  0  0  0  0  0
   -2.1840    0.4502   -0.0565 H   0  0  0  0  0  0  0  0  0  0  0  0
   -0.1134    0.3864    0.2718 C   0  0  1  0  0  0  0  0  0  0  0  0
    0.2962    0.4596   -0.7395 H   0  0  0  0  0  0  0  0  0  0  0  0
   -0.4192    1.8217    0.7618 C   0  0  0  0  0  0  0  0  0  0  0  0
   -1.0064    1.7861    1.6862 H   0  0  0  0  0  0  0  0  0  0  0  0
    0.5121    2.3529    0.9855 H   0  0  0  0  0  0  0  0  0  0  0  0
   -1.1667    2.6347   -0.3174 C   0  0  0  0  0  0  0  0  0  0  0  0
   -0.5494    2.7016   -1.2184 H   0  0  0  0  0  0  0  0  0  0  0  0
   -2.1053    2.1486   -0.5950 H   0  0  0  0  0  0  0  0  0  0  0  0
   -1.4928    4.0426    0.1743 C   0  0  0  0  0  0  0  0  0  0  0  0
   -2.4886    4.1582    0.9318 O   0  5  0  0  0  0  0  0  0  0  0  0
   -0.7884    4.9952   -0.2396 O   0  0  0  0  0  0  0  0  0  0  0  0
    1.0397   -0.2958    1.0746 C   0  0  0  0  0  0  0  0  0  0  0  0
    1.8357    0.3685    1.7283 O   0  0  0  0  0  0  0  0  0  0  0  0
    1.3154   -1.6444    0.9543 N   0  0  0  0  0  0  0  0  0  0  0  0
    0.5104   -2.2030    0.6642 H   0  0  0  0  0  0  0  0  0  0  0  0
    2.3509   -2.3158    1.7274 C   0  0  0  0  0  0  0  0  0  0  0  0
    2.1403   -2.2363    2.7987 H   0  0  0  0  0  0  0  0  0  0  0  0
    2.3903   -3.3752    1.4577 H   0  0  0  0  0  0  0  0  0  0  0  0
    3.3312   -1.8727    1.5244 H   0  0  0  0  0  0  0  0  0  0  0  0
  1  2  1  0  0  0  0
  2  3  1  0  0  0  0
  2  4  1  0  0  0  0
  2  5  1  0  0  0  0
  5  6  2  0  0  0  0
  5  7  1  0  0  0  0
  7  8  1  0  0  0  0
  7  9  1  0  0  0  0
  9 10  1  0  0  0  0
  9 11  1  0  0  0  0
  9 20  1  0  0  0  0
 11 12  1  0  0  0  0
 11 13  1  0  0  0  0
 11 14  1  0  0  0  0
 14 15  1  0  0  0  0
 14 16  1  0  0  0  0
 14 17  1  0  0  0  0
 17 18  1  0  0  0  0
 17 19  2  0  0  0  0
 20 21  2  0  0  0  0
 20 22  1  0  0  0  0
 22 23  1  0  0  0  0
 22 24  1  0  0  0  0
 24 25  1  0  0  0  0
 24 26  1  0  0  0  0
 24 27  1  0  0  0  0
M  CHG  1  18  -1
M  END
$$$$

  -OEChem-01062216073D

 27 26  0     1  0  0  0  0  0999 V2000
   -3.5845   -2.5963    1.2401 H   0  0  0  0  0  0  0  0  0  0  0  0
   -3.3758   -1.6100    0.8165 C   0  0  0  0  0  0  0  0  0  0  0  0
   -3.7662   -0.8470    1.4951 H   0  0  0  0  0  0  0  0  0  0  0  0
   -3.8854   -1.5234   -0.1463 H   0  0  0  0  0  0  0  0  0  0  0  0
   -1.8811   -1.4190    0.6321 C   0  0  0  0  0  0  0  0  0  0  0  0
   -1.1356   -2.3656    0.8242 O   0  0  0  0  0  0  0  0  0  0  0  0
   -1.4310   -0.2188    0.1202 N   0  0  0  0  0  0  0  0  0  0  0  0
   -2.1815    0.4541   -0.0247 H   0  0  0  0  0  0  0  0  0  0  0  0
   -0.1026    0.4258    0.2556 C   0  0  1  0  0  0  0  0  0  0  0  0
    0.3280    0.5120   -0.7458 H   0  0  0  0  0  0  0  0  0  0  0  0
   -0.4172    1.8541    0.7528 C   0  0  0  0  0  0  0  0  0  0  0  0
   -1.0141    1.8106    1.6705 H   0  0  0  0  0  0  0  0  0  0  0  0
    0.5130    2.3818    0.9904 H   0  0  0  0  0  0  0  0  0  0  0  0
   -1.1576    2.6672   -0.3299 C   0  0  0  0  0  0  0  0  0  0  0  0
   -0.5321    2.7401   -1.2247 H   0  0  0  0  0  0  0  0  0  0  0  0
   -2.0899    2.1747   -0.6180 H   0  0  0  0  0  0  0  0  0  0  0  0
   -1.4967    4.0723    0.1609 C   0  0  0  0  0  0  0  0  0  0  0  0
   -2.5181    4.1868    0.8835 O   0  5  0  0  0  0  0  0  0  0  0  0
   -0.7724    5.0243   -0.2186 O   0  0  0  0  0  0  0  0  0  0  0  0
    1.0171   -0.2761    1.0814 C   0  0  0  0  0  0  0  0  0  0  0  0
    1.6207    0.3061    1.9755 O   0  0  0  0  0  0  0  0  0  0  0  0
    1.4695   -1.5299    0.7147 N   0  0  0  0  0  0  0  0  0  0  0  0
    0.7378   -2.0956    0.2815 H   0  0  0  0  0  0  0  0  0  0  0  0
    2.4842   -2.2440    1.4770 C   0  0  0  0  0  0  0  0  0  0  0  0
    2.1372   -2.4247    2.4995 H   0  0  0  0  0  0  0  0  0  0  0  0
    2.6961   -3.2079    1.0053 H   0  0  0  0  0  0  0  0  0  0  0  0
    3.4145   -1.6679    1.5144 H   0  0  0  0  0  0  0  0  0  0  0  0
  1  2  1  0  0  0  0
  2  3  1  0  0  0  0
  2  4  1  0  0  0  0
  2  5  1  0  0  0  0
  5  6  2  0  0  0  0
  5  7  1  0  0  0  0
  7  8  1  0  0  0  0
  7  9  1  0  0  0  0
  9 10  1  0  0  0  0
  9 11  1  0  0  0  0
  9 20  1  0  0  0  0
 11 12  1  0  0  0  0
 11 13  1  0  0  0  0
 11 14  1  0  0  0  0
 14 15  1  0  0  0  0
 14 16  1  0  0  0  0
 14 17  1  0  0  0  0
 17 18  1  0  0  0  0
 17 19  2  0  0  0  0
 20 21  2  0  0  0  0
 20 22  1  0  0  0  0
 22 23  1  0  0  0  0
 22 24  1  0  0  0  0
 24 25  1  0  0  0  0
 24 26  1  0  0  0  0
 24 27  1  0  0  0  0
M  CHG  1  18  -1
M  END
$$$$

  -OEChem-01062216073D

 27 26  0     1  0  0  0  0  0999 V2000
   -3.4381   -2.6735    1.2594 H   0  0  0  0  0  0  0  0  0  0  0  0
   -3.2789   -1.6609    0.8781 C   0  0  0  0  0  0  0  0  0  0  0  0
   -3.6428   -0.9451    1.6199 H   0  0  0  0  0  0  0  0  0  0  0  0
   -3.8500   -1.5371   -0.0454 H   0  0  0  0  0  0  0  0  0  0  0  0
   -1.8033   -1.4218    0.6133 C   0  0  0  0  0  0  0  0  0  0  0  0
   -1.0153   -2.3462    0.7392 O   0  0  0  0  0  0  0  0  0  0  0  0
   -1.4116   -0.2102    0.0808 N   0  0  0  0  0  0  0  0  0  0  0  0
   -2.1815    0.4485   -0.0217 H   0  0  0  0  0  0  0  0  0  0  0  0
   -0.0980    0.4550    0.2303 C   0  0  1  0  0  0  0  0  0  0  0  0
    0.3487    0.5514   -0.7631 H   0  0  0  0  0  0  0  0  0  0  0  0
   -0.4173    1.8762    0.7375 C   0  0  0  0  0  0  0  0  0  0  0  0
   -1.0181    1.8239    1.6523 H   0  0  0  0  0  0  0  0  0  0  0  0
    0.5135    2.3988    0.9845 H   0  0  0  0  0  0  0  0  0  0  0  0
   -1.1575    2.6936   -0.3407 C   0  0  0  0  0  0  0  0  0  0  0  0
   -0.5315    2.7758   -1.2342 H   0  0  0  0  0  0  0  0  0  0  0  0
   -2.0867    2.1976   -0.6330 H   0  0  0  0  0  0  0  0  0  0  0  0
   -1.5017    4.0938    0.1599 C   0  0  0  0  0  0  0  0  0  0  0  0
   -2.5654    4.2144    0.8175 O   0  5  0  0  0  0  0  0  0  0  0  0
   -0.7302    5.0366   -0.1419 O   0  0  0  0  0  0  0  0  0  0  0  0
    0.9907   -0.2582    1.0806 C   0  0  0  0  0  0  0  0  0  0  0  0
    1.3823    0.1976    2.1493 O   0  0  0  0  0  0  0  0  0  0  0  0
    1.6498   -1.3522    0.5503 N   0  0  0  0  0  0  0  0  0  0  0  0
    1.0625   -1.8923   -0.0822 H   0  0  0  0  0  0  0  0  0  0  0  0
    2.6455   -2.0927    1.3121 C   0  0  0  0  0  0  0  0  0  0  0  0
    2.1980   -2.5136    2.2184 H   0  0  0  0  0  0  0  0  0  0  0  0
    3.0455   -2.9121    0.7077 H   0  0  0  0  0  0  0  0  0  0  0  0
    3.4759   -1.4388    1.5975 H   0  0  0  0  0  0  0  0  0  0  0  0
  1  2  1  0  0  0  0
  2  3  1  0  0  0  0
  2  4  1  0  0  0  0
  2  5  1  0  0  0  0
  5  6  2  0  0  0  0
  5  7  1  0  0  0  0
  7  8  1  0  0  0  0
  7  9  1  0  0  0  0
  9 10  1  0  0  0  0
  9 11  1  0  0  0  0
  9 20  1  0  0  0  0
 11 12  1  0  0  0  0
 11 13  1  0  0  0  0
 11 14  1  0  0  0  0
 14 15  1  0  0  0  0
 14 16  1  0  0  0  0
 14 17  1  0  0  0  0
 17 18  1  0  0  0  0
 17 19  2  0  0  0  0
 20 21  2  0  0  0  0
 20 22  1  0  0  0  0
 22 23  1  0  0  0  0
 22 24  1  0  0  0  0
 24 25  1  0  0  0  0
 24 26  1  0  0  0  0
 24 27  1  0  0  0  0
M  CHG  1  18  -1
M  END
$$$$

  -OEChem-01062216073D

 27 26  0     1  0  0  0  0  0999 V2000
   -3.3525   -2.7035    1.3124 H   0  0  0  0  0  0  0  0  0  0  0  0
   -3.2252   -1.6928    0.9146 C   0  0  0  0  0  0  0  0  0  0  0  0
   -3.5837   -0.9755    1.6576 H   0  0  0  0  0  0  0  0  0  0  0  0
   -3.8236   -1.5919    0.0056 H   0  0  0  0  0  0  0  0  0  0  0  0
   -1.7625   -1.4269    0.6063 C   0  0  0  0  0  0  0  0  0  0  0  0
   -0.9532   -2.3376    0.6976 O   0  0  0  0  0  0  0  0  0  0  0  0
   -1.4081   -0.2097    0.0600 N   0  0  0  0  0  0  0  0  0  0  0  0
   -2.1898    0.4383   -0.0136 H   0  0  0  0  0  0  0  0  0  0  0  0
   -0.1043    0.4690    0.2140 C   0  0  1  0  0  0  0  0  0  0  0  0
    0.3440    0.5731   -0.7775 H   0  0  0  0  0  0  0  0  0  0  0  0
   -0.4193    1.8864    0.7295 C   0  0  0  0  0  0  0  0  0  0  0  0
   -1.0194    1.8295    1.6447 H   0  0  0  0  0  0  0  0  0  0  0  0
    0.5142    2.4026    0.9794 H   0  0  0  0  0  0  0  0  0  0  0  0
   -1.1621    2.7090   -0.3419 C   0  0  0  0  0  0  0  0  0  0  0  0
   -0.5389    2.7950   -1.2371 H   0  0  0  0  0  0  0  0  0  0  0  0
   -2.0919    2.2134   -0.6339 H   0  0  0  0  0  0  0  0  0  0  0  0
   -1.5030    4.1075    0.1654 C   0  0  0  0  0  0  0  0  0  0  0  0
   -2.5992    4.2448    0.7632 O   0  5  0  0  0  0  0  0  0  0  0  0
   -0.6878    5.0334   -0.0669 O   0  0  0  0  0  0  0  0  0  0  0  0
    0.9744   -0.2433    1.0739 C   0  0  0  0  0  0  0  0  0  0  0  0
    1.1479    0.0399    2.2544 O   0  0  0  0  0  0  0  0  0  0  0  0
    1.8530   -1.1206    0.4636 N   0  0  0  0  0  0  0  0  0  0  0  0
    1.4980   -1.5375   -0.3912 H   0  0  0  0  0  0  0  0  0  0  0  0
    2.8368   -1.8799    1.2222 C   0  0  0  0  0  0  0  0  0  0  0  0
    2.3404   -2.5168    1.9616 H   0  0  0  0  0  0  0  0  0  0  0  0
    3.4202   -2.5156    0.5497 H   0  0  0  0  0  0  0  0  0  0  0  0
    3.5255   -1.2054    1.7412 H   0  0  0  0  0  0  0  0  0  0  0  0
  1  2  1  0  0  0  0
  2  3  1  0  0  0  0
  2  4  1  0  0  0  0
  2  5  1  0  0  0  0
  5  6  2  0  0  0  0
  5  7  1  0  0  0  0
  7  8  1  0  0  0  0
  7  9  1  0  0  0  0
  9 10  1  0  0  0  0
  9 11  1  0  0  0  0
  9 20  1  0  0  0  0
 11 12  1  0  0  0  0
 11 13  1  0  0  0  0
 11 14  1  0  0  0  0
 14 15  1  0  0  0  0
 14 16  1  0  0  0  0
 14 17  1  0  0  0  0
 17 18  1  0  0  0  0
 17 19  2  0  0  0  0
 20 21  2  0  0  0  0
 20 22  1  0  0  0  0
 22 23  1  0  0  0  0
 22 24  1  0  0  0  0
 24 25  1  0  0  0  0
 24 26  1  0  0  0  0
 24 27  1  0  0  0  0
M  CHG  1  18  -1
M  END
$$$$

  -OEChem-01062216073D

 27 26  0     1  0  0  0  0  0999 V2000
   -3.3437   -2.7138    1.1577 H   0  0  0  0  0  0  0  0  0  0  0  0
   -3.2175   -1.7048    0.7552 C   0  0  0  0  0  0  0  0  0  0  0  0
   -3.5927   -0.9855    1.4880 H   0  0  0  0  0  0  0  0  0  0  0  0
   -3.8015   -1.6141   -0.1639 H   0  0  0  0  0  0  0  0  0  0  0  0
   -1.7515   -1.4317    0.4694 C   0  0  0  0  0  0  0  0  0  0  0  0
   -0.9459   -2.3489    0.5258 O   0  0  0  0  0  0  0  0  0  0  0  0
   -1.3865   -0.2003   -0.0371 N   0  0  0  0  0  0  0  0  0  0  0  0
   -2.1680    0.4481   -0.1063 H   0  0  0  0  0  0  0  0  0  0  0  0
   -0.0973    0.4749    0.2153 C   0  0  1  0  0  0  0  0  0  0  0  0
    0.4074    0.6027   -0.7456 H   0  0  0  0  0  0  0  0  0  0  0  0
   -0.4297    1.8775    0.7540 C   0  0  0  0  0  0  0  0  0  0  0  0
   -1.0829    1.7981    1.6303 H   0  0  0  0  0  0  0  0  0  0  0  0
    0.4918    2.3761    1.0745 H   0  0  0  0  0  0  0  0  0  0  0  0
   -1.1040    2.7374   -0.3322 C   0  0  0  0  0  0  0  0  0  0  0  0
   -0.4290    2.8463   -1.1863 H   0  0  0  0  0  0  0  0  0  0  0  0
   -2.0184    2.2584   -0.6929 H   0  0  0  0  0  0  0  0  0  0  0  0
   -1.4609    4.1226    0.1997 C   0  0  0  0  0  0  0  0  0  0  0  0
   -0.6066    5.0346    0.0801 O   0  5  0  0  0  0  0  0  0  0  0  0
   -2.5999    4.2635    0.7098 O   0  0  0  0  0  0  0  0  0  0  0  0
    0.9234   -0.2562    1.1262 C   0  0  0  0  0  0  0  0  0  0  0  0
    0.8355   -0.2038    2.3484 O   0  0  0  0  0  0  0  0  0  0  0  0
    2.0293   -0.8676    0.5621 N   0  0  0  0  0  0  0  0  0  0  0  0
    1.9684   -1.0562   -0.4323 H   0  0  0  0  0  0  0  0  0  0  0  0
    2.9850   -1.6329    1.3495 C   0  0  0  0  0  0  0  0  0  0  0  0
    2.4859   -2.4715    1.8458 H   0  0  0  0  0  0  0  0  0  0  0  0
    3.7722   -2.0298    0.7020 H   0  0  0  0  0  0  0  0  0  0  0  0
    3.4519   -0.9977    2.1093 H   0  0  0  0  0  0  0  0  0  0  0  0
  1  2  1  0  0  0  0
  2  3  1  0  0  0  0
  2  4  1  0  0  0  0
  2  5  1  0  0  0  0
  5  6  2  0  0  0  0
  5  7  1  0  0  0  0
  7  8  1  0  0  0  0
  7  9  1  0  0  0  0
  9 10  1  0  0  0  0
  9 11  1  0  0  0  0
  9 20  1  0  0  0  0
 11 12  1  0  0  0  0
 11 13  1  0  0  0  0
 11 14  1  0  0  0  0
 14 15  1  0  0  0  0
 14 16  1  0  0  0  0
 14 17  1  0  0  0  0
 17 18  1  0  0  0  0
 17 19  2  0  0  0  0
 20 21  2  0  0  0  0
 20 22  1  0  0  0  0
 22 23  1  0  0  0  0
 22 24  1  0  0  0  0
 24 25  1  0  0  0  0
 24 26  1  0  0  0  0
 24 27  1  0  0  0  0
M  CHG  1  18  -1
M  END
$$$$

  -OEChem-01062216073D

 27 26  0     1  0  0  0  0  0999 V2000
   -3.3430   -2.7102    1.1919 H   0  0  0  0  0  0  0  0  0  0  0  0
   -3.2212   -1.7020    0.7866 C   0  0  0  0  0  0  0  0  0  0  0  0
   -3.5556   -0.9798    1.5361 H   0  0  0  0  0  0  0  0  0  0  0  0
   -3.8415   -1.6010   -0.1073 H   0  0  0  0  0  0  0  0  0  0  0  0
   -1.7652   -1.4470    0.4407 C   0  0  0  0  0  0  0  0  0  0  0  0
   -0.9732   -2.3780    0.4349 O   0  0  0  0  0  0  0  0  0  0  0  0
   -1.4026   -0.2165   -0.0690 N   0  0  0  0  0  0  0  0  0  0  0  0
   -2.1822    0.4360   -0.1138 H   0  0  0  0  0  0  0  0  0  0  0  0
   -0.1120    0.4513    0.1927 C   0  0  1  0  0  0  0  0  0  0  0  0
    0.3936    0.5750   -0.7681 H   0  0  0  0  0  0  0  0  0  0  0  0
   -0.4305    1.8529    0.7396 C   0  0  0  0  0  0  0  0  0  0  0  0
   -1.0868    1.7734    1.6135 H   0  0  0  0  0  0  0  0  0  0  0  0
    0.4952    2.3396    1.0665 H   0  0  0  0  0  0  0  0  0  0  0  0
   -1.0938    2.7283   -0.3401 C   0  0  0  0  0  0  0  0  0  0  0  0
   -0.4177    2.8374   -1.1933 H   0  0  0  0  0  0  0  0  0  0  0  0
   -2.0130    2.2611   -0.7043 H   0  0  0  0  0  0  0  0  0  0  0  0
   -1.4346    4.1123    0.2051 C   0  0  0  0  0  0  0  0  0  0  0  0
   -0.5443    4.9958    0.1554 O   0  5  0  0  0  0  0  0  0  0  0  0
   -2.5923    4.2799    0.6618 O   0  0  0  0  0  0  0  0  0  0  0  0
    0.9035   -0.2785    1.1099 C   0  0  0  0  0  0  0  0  0  0  0  0
    0.6866   -0.4125    2.3099 O   0  0  0  0  0  0  0  0  0  0  0  0
    2.1521   -0.6199    0.6201 N   0  0  0  0  0  0  0  0  0  0  0  0
    2.2815   -0.5659   -0.3839 H   0  0  0  0  0  0  0  0  0  0  0  0
    3.1625   -1.2944    1.4219 C   0  0  0  0  0  0  0  0  0  0  0  0
    2.7764   -2.2457    1.8022 H   0  0  0  0  0  0  0  0  0  0  0  0
    4.0492   -1.4978    0.8145 H   0  0  0  0  0  0  0  0  0  0  0  0
    3.4597   -0.6678    2.2691 H   0  0  0  0  0  0  0  0  0  0  0  0
  1  2  1  0  0  0  0
  2  3  1  0  0  0  0
  2  4  1  0  0  0  0
  2  5  1  0  0  0  0
  5  6  2  0  0  0  0
  5  7  1  0  0  0  0
  7  8  1  0  0  0  0
  7  9  1  0  0  0  0
  9 10  1  0  0  0  0
  9 11  1  0  0  0  0
  9 20  1  0  0  0  0
 11 12  1  0  0  0  0
 11 13  1  0  0  0  0
 11 14  1  0  0  0  0
 14 15  1  0  0  0  0
 14 16  1  0  0  0  0
 14 17  1  0  0  0  0
 17 18  1  0  0  0  0
 17 19  2  0  0  0  0
 20 21  2  0  0  0  0
 20 22  1  0  0  0  0
 22 23  1  0  0  0  0
 22 24  1  0  0  0  0
 24 25  1  0  0  0  0
 24 26  1  0  0  0  0
 24 27  1  0  0  0  0
M  CHG  1  18  -1
M  END
$$$$

  -OEChem-01062216073D

 27 26  0     1  0  0  0  0  0999 V2000
   -3.3787   -2.7392    1.1373 H   0  0  0  0  0  0  0  0  0  0  0  0
   -3.2351   -1.7001    0.8286 C   0  0  0  0  0  0  0  0  0  0  0  0
   -3.4826   -1.0467    1.6693 H   0  0  0  0  0  0  0  0  0  0  0  0
   -3.9085   -1.4809   -0.0037 H   0  0  0  0  0  0  0  0  0  0  0  0
   -1.7942   -1.4717    0.4085 C   0  0  0  0  0  0  0  0  0  0  0  0
   -1.0295   -2.4217    0.3243 O   0  0  0  0  0  0  0  0  0  0  0  0
   -1.4262   -0.2431   -0.1014 N   0  0  0  0  0  0  0  0  0  0  0  0
   -2.1989    0.4186   -0.1141 H   0  0  0  0  0  0  0  0  0  0  0  0
   -0.1280    0.4088    0.1656 C   0  0  1  0  0  0  0  0  0  0  0  0
    0.3752    0.5214   -0.7979 H   0  0  0  0  0  0  0  0  0  0  0  0
   -0.4187    1.8133    0.7173 C   0  0  0  0  0  0  0  0  0  0  0  0
   -1.0746    1.7425    1.5921 H   0  0  0  0  0  0  0  0  0  0  0  0
    0.5167    2.2813    1.0440 H   0  0  0  0  0  0  0  0  0  0  0  0
   -1.0657    2.7065   -0.3565 C   0  0  0  0  0  0  0  0  0  0  0  0
   -0.3898    2.8069   -1.2109 H   0  0  0  0  0  0  0  0  0  0  0  0
   -1.9954    2.2605   -0.7207 H   0  0  0  0  0  0  0  0  0  0  0  0
   -1.3760    4.0929    0.2002 C   0  0  0  0  0  0  0  0  0  0  0  0
   -0.4640    4.9546    0.1579 O   0  5  0  0  0  0  0  0  0  0  0  0
   -2.5266    4.2825    0.6658 O   0  0  0  0  0  0  0  0  0  0  0  0
    0.8878   -0.3223    1.0817 C   0  0  0  0  0  0  0  0  0  0  0  0
    0.5904   -0.6378    2.2295 O   0  0  0  0  0  0  0  0  0  0  0  0
    2.2191   -0.3907    0.7088 N   0  0  0  0  0  0  0  0  0  0  0  0
    2.4679   -0.0281   -0.2048 H   0  0  0  0  0  0  0  0  0  0  0  0
    3.2686   -0.9081    1.5751 C   0  0  0  0  0  0  0  0  0  0  0  0
    3.0498   -1.9410    1.8654 H   0  0  0  0  0  0  0  0  0  0  0  0
    4.2295   -0.8922    1.0526 H   0  0  0  0  0  0  0  0  0  0  0  0
    3.3548   -0.2962    2.4789 H   0  0  0  0  0  0  0  0  0  0  0  0
  1  2  1  0  0  0  0
  2  3  1  0  0  0  0
  2  4  1  0  0  0  0
  2  5  1  0  0  0  0
  5  6  2  0  0  0  0
  5  7  1  0  0  0  0
  7  8  1  0  0  0  0
  7  9  1  0  0  0  0
  9 10  1  0  0  0  0
  9 11  1  0  0  0  0
  9 20  1  0  0  0  0
 11 12  1  0  0  0  0
 11 13  1  0  0  0  0
 11 14  1  0  0  0  0
 14 15  1  0  0  0  0
 14 16  1  0  0  0  0
 14 17  1  0  0  0  0
 17 18  1  0  0  0  0
 17 19  2  0  0  0  0
 20 21  2  0  0  0  0
 20 22  1  0  0  0  0
 22 23  1  0  0  0  0
 22 24  1  0  0  0  0
 24 25  1  0  0  0  0
 24 26  1  0  0  0  0
 24 27  1  0  0  0  0
M  CHG  1  18  -1
M  END
$$$$

  -OEChem-01062216073D

 27 26  0     1  0  0  0  0  0999 V2000
   -3.4079   -2.7176    1.1753 H   0  0  0  0  0  0  0  0  0  0  0  0
   -3.2529   -1.6856    0.8490 C   0  0  0  0  0  0  0  0  0  0  0  0
   -3.4660   -1.0168    1.6869 H   0  0  0  0  0  0  0  0  0  0  0  0
   -3.9430   -1.4641    0.0314 H   0  0  0  0  0  0  0  0  0  0  0  0
   -1.8196   -1.4905    0.3881 C   0  0  0  0  0  0  0  0  0  0  0  0
   -1.0918   -2.4615    0.2410 O   0  0  0  0  0  0  0  0  0  0  0  0
   -1.4336   -0.2658   -0.1166 N   0  0  0  0  0  0  0  0  0  0  0  0
   -2.1950    0.4088   -0.1127 H   0  0  0  0  0  0  0  0  0  0  0  0
   -0.1240    0.3649    0.1468 C   0  0  1  0  0  0  0  0  0  0  0  0
    0.3722    0.4723   -0.8210 H   0  0  0  0  0  0  0  0  0  0  0  0
   -0.3962    1.7694    0.7086 C   0  0  0  0  0  0  0  0  0  0  0  0
   -1.0500    1.6983    1.5850 H   0  0  0  0  0  0  0  0  0  0  0  0
    0.5439    2.2265    1.0372 H   0  0  0  0  0  0  0  0  0  0  0  0
   -1.0372    2.6797   -0.3537 C   0  0  0  0  0  0  0  0  0  0  0  0
   -0.3639    2.7813   -1.2100 H   0  0  0  0  0  0  0  0  0  0  0  0
   -1.9739    2.2484   -0.7178 H   0  0  0  0  0  0  0  0  0  0  0  0
   -1.3252    4.0633    0.2216 C   0  0  0  0  0  0  0  0  0  0  0  0
   -0.3826    4.8923    0.2390 O   0  5  0  0  0  0  0  0  0  0  0  0
   -2.4850    4.2806    0.6499 O   0  0  0  0  0  0  0  0  0  0  0  0
    0.9048   -0.3634    1.0514 C   0  0  0  0  0  0  0  0  0  0  0  0
    0.5809   -0.8496    2.1300 O   0  0  0  0  0  0  0  0  0  0  0  0
    2.2546   -0.1603    0.8175 N   0  0  0  0  0  0  0  0  0  0  0  0
    2.4988    0.4420    0.0386 H   0  0  0  0  0  0  0  0  0  0  0  0
    3.2961   -0.5311    1.7651 C   0  0  0  0  0  0  0  0  0  0  0  0
    3.2401   -1.5996    1.9973 H   0  0  0  0  0  0  0  0  0  0  0  0
    4.2820   -0.3224    1.3396 H   0  0  0  0  0  0  0  0  0  0  0  0
    3.1898    0.0400    2.6931 H   0  0  0  0  0  0  0  0  0  0  0  0
  1  2  1  0  0  0  0
  2  3  1  0  0  0  0
  2  4  1  0  0  0  0
  2  5  1  0  0  0  0
  5  6  2  0  0  0  0
  5  7  1  0  0  0  0
  7  8  1  0  0  0  0
  7  9  1  0  0  0  0
  9 10  1  0  0  0  0
  9 11  1  0  0  0  0
  9 20  1  0  0  0  0
 11 12  1  0  0  0  0
 11 13  1  0  0  0  0
 11 14  1  0  0  0  0
 14 15  1  0  0  0  0
 14 16  1  0  0  0  0
 14 17  1  0  0  0  0
 17 18  1  0  0  0  0
 17 19  2  0  0  0  0
 20 21  2  0  0  0  0
 20 22  1  0  0  0  0
 22 23  1  0  0  0  0
 22 24  1  0  0  0  0
 24 25  1  0  0  0  0
 24 26  1  0  0  0  0
 24 27  1  0  0  0  0
M  CHG  1  18  -1
M  END
$$$$

  -OEChem-01062216073D

 27 26  0     1  0  0  0  0  0999 V2000
   -3.3787   -2.6783    1.2544 H   0  0  0  0  0  0  0  0  0  0  0  0
   -3.2264   -1.6582    0.8915 C   0  0  0  0  0  0  0  0  0  0  0  0
   -3.3882   -0.9635    1.7199 H   0  0  0  0  0  0  0  0  0  0  0  0
   -3.9529   -1.4488    0.1027 H   0  0  0  0  0  0  0  0  0  0  0  0
   -1.8150   -1.4980    0.3560 C   0  0  0  0  0  0  0  0  0  0  0  0
   -1.1381   -2.4890    0.1241 O   0  0  0  0  0  0  0  0  0  0  0  0
   -1.4156   -0.2764   -0.1443 N   0  0  0  0  0  0  0  0  0  0  0  0
   -2.1698    0.4056   -0.1207 H   0  0  0  0  0  0  0  0  0  0  0  0
   -0.1023    0.3461    0.1254 C   0  0  1  0  0  0  0  0  0  0  0  0
    0.3967    0.4543   -0.8412 H   0  0  0  0  0  0  0  0  0  0  0  0
   -0.3871    1.7484    0.6910 C   0  0  0  0  0  0  0  0  0  0  0  0
   -1.0475    1.6685    1.5618 H   0  0  0  0  0  0  0  0  0  0  0  0
    0.5442    2.2146    1.0302 H   0  0  0  0  0  0  0  0  0  0  0  0
   -1.0253    2.6627   -0.3682 C   0  0  0  0  0  0  0  0  0  0  0  0
   -0.3477    2.7744   -1.2197 H   0  0  0  0  0  0  0  0  0  0  0  0
   -1.9588    2.2316   -0.7406 H   0  0  0  0  0  0  0  0  0  0  0  0
   -1.3204    4.0386    0.2214 C   0  0  0  0  0  0  0  0  0  0  0  0
   -0.3799    4.8697    0.2499 O   0  5  0  0  0  0  0  0  0  0  0  0
   -2.4776    4.2427    0.6626 O   0  0  0  0  0  0  0  0  0  0  0  0
    0.9379   -0.3680    1.0323 C   0  0  0  0  0  0  0  0  0  0  0  0
    0.6108   -1.0496    1.9974 O   0  0  0  0  0  0  0  0  0  0  0  0
    2.2481    0.0818    0.9989 N   0  0  0  0  0  0  0  0  0  0  0  0
    2.4448    0.8545    0.3702 H   0  0  0  0  0  0  0  0  0  0  0  0
    3.2349   -0.2474    2.0187 C   0  0  0  0  0  0  0  0  0  0  0  0
    3.3386   -1.3331    2.1155 H   0  0  0  0  0  0  0  0  0  0  0  0
    4.2094    0.1682    1.7459 H   0  0  0  0  0  0  0  0  0  0  0  0
    2.9375    0.1681    2.9869 H   0  0  0  0  0  0  0  0  0  0  0  0
  1  2  1  0  0  0  0
  2  3  1  0  0  0  0
  2  4  1  0  0  0  0
  2  5  1  0  0  0  0
  5  6  2  0  0  0  0
  5  7  1  0  0  0  0
  7  8  1  0  0  0  0
  7  9  1  0  0  0  0
  9 10  1  0  0  0  0
  9 11  1  0  0  0  0
  9 20  1  0  0  0  0
 11 12  1  0  0  0  0
 11 13  1  0  0  0  0
 11 14  1  0  0  0  0
 14 15  1  0  0  0  0
 14 16  1  0  0  0  0
 14 17  1  0  0  0  0
 17 18  1  0  0  0  0
 17 19  2  0  0  0  0
 20 21  2  0  0  0  0
 20 22  1  0  0  0  0
 22 23  1  0  0  0  0
 22 24  1  0  0  0  0
 24 25  1  0  0  0  0
 24 26  1  0  0  0  0
 24 27  1  0  0  0  0
M  CHG  1  18  -1
M  END
$$$$

  -OEChem-01062216073D

 27 26  0     1  0  0  0  0  0999 V2000
   -3.4596   -2.8763    1.0880 H   0  0  0  0  0  0  0  0  0  0  0  0
   -3.2367   -1.9861    0.4930 C   0  0  0  0  0  0  0  0  0  0  0  0
   -4.0956   -1.3114    0.5306 H   0  0  0  0  0  0  0  0  0  0  0  0
   -3.0647   -2.2904   -0.5422 H   0  0  0  0  0  0  0  0  0  0  0  0
   -2.0037   -1.2867    1.0381 C   0  0  0  0  0  0  0  0  0  0  0  0
   -1.5647   -1.6288    2.1243 O   0  0  0  0  0  0  0  0  0  0  0  0
   -1.5551   -0.1461    0.3991 N   0  0  0  0  0  0  0  0  0  0  0  0
   -2.1320    0.1538   -0.3790 H   0  0  0  0  0  0  0  0  0  0  0  0
   -0.1930    0.4332    0.4438 C   0  0  1  0  0  0  0  0  0  0  0  0
    0.0916    0.6525   -0.5885 H   0  0  0  0  0  0  0  0  0  0  0  0
   -0.2912    1.7776    1.1930 C   0  0  0  0  0  0  0  0  0  0  0  0
   -0.7590    1.6175    2.1707 H   0  0  0  0  0  0  0  0  0  0  0  0
    0.7040    2.1951    1.3718 H   0  0  0  0  0  0  0  0  0  0  0  0
   -1.1043    2.8095    0.3879 C   0  0  0  0  0  0  0  0  0  0  0  0
   -0.6168    2.9929   -0.5737 H   0  0  0  0  0  0  0  0  0  0  0  0
   -2.1088    2.4253    0.1884 H   0  0  0  0  0  0  0  0  0  0  0  0
   -1.2227    4.1364    1.1375 C   0  0  0  0  0  0  0  0  0  0  0  0
   -0.1526    4.7208    1.4433 O   0  5  0  0  0  0  0  0  0  0  0  0
   -2.3741    4.5854    1.3571 O   0  0  0  0  0  0  0  0  0  0  0  0
    1.0000   -0.4163    0.9674 C   0  0  0  0  0  0  0  0  0  0  0  0
    1.0110   -1.6368    0.8484 O   0  0  0  0  0  0  0  0  0  0  0  0
    2.2544    0.1731    0.9966 N   0  0  0  0  0  0  0  0  0  0  0  0
    2.2712    1.1881    1.0538 H   0  0  0  0  0  0  0  0  0  0  0  0
    3.4864   -0.5563    1.2669 C   0  0  0  0  0  0  0  0  0  0  0  0
    3.7031   -1.2563    0.4536 H   0  0  0  0  0  0  0  0  0  0  0  0
    4.3240    0.1419    1.3548 H   0  0  0  0  0  0  0  0  0  0  0  0
    3.4027   -1.1158    2.2042 H   0  0  0  0  0  0  0  0  0  0  0  0
  1  2  1  0  0  0  0
  2  3  1  0  0  0  0
  2  4  1  0  0  0  0
  2  5  1  0  0  0  0
  5  6  2  0  0  0  0
  5  7  1  0  0  0  0
  7  8  1  0  0  0  0
  7  9  1  0  0  0  0
  9 10  1  0  0  0  0
  9 11  1  0  0  0  0
  9 20  1  0  0  0  0
 11 12  1  0  0  0  0
 11 13  1  0  0  0  0
 11 14  1  0  0  0  0
 14 15  1  0  0  0  0
 14 16  1  0  0  0  0
 14 17  1  0  0  0  0
 17 18  1  0  0  0  0
 17 19  2  0  0  0  0
 20 21  2  0  0  0  0
 20 22  1  0  0  0  0
 22 23  1  0  0  0  0
 22 24  1  0  0  0  0
 24 25  1  0  0  0  0
 24 26  1  0  0  0  0
 24 27  1  0  0  0  0
M  CHG  1  18  -1
M  END
$$$$

  -OEChem-01062216073D

 27 26  0     1  0  0  0  0  0999 V2000
   -3.4416   -2.8529    1.1147 H   0  0  0  0  0  0  0  0  0  0  0  0
   -3.2290   -1.9628    0.5159 C   0  0  0  0  0  0  0  0  0  0  0  0
   -4.0746   -1.2747    0.5934 H   0  0  0  0  0  0  0  0  0  0  0  0
   -3.1055   -2.2631   -0.5275 H   0  0  0  0  0  0  0  0  0  0  0  0
   -1.9631   -1.2866    1.0127 C   0  0  0  0  0  0  0  0  0  0  0  0
   -1.4626   -1.6682    2.0588 O   0  0  0  0  0  0  0  0  0  0  0  0
   -1.5327   -0.1386    0.3738 N   0  0  0  0  0  0  0  0  0  0  0  0
   -2.1350    0.1840   -0.3758 H   0  0  0  0  0  0  0  0  0  0  0  0
   -0.1794    0.4593    0.4180 C   0  0  1  0  0  0  0  0  0  0  0  0
    0.1134    0.6867   -0.6105 H   0  0  0  0  0  0  0  0  0  0  0  0
   -0.3045    1.7986    1.1743 C   0  0  0  0  0  0  0  0  0  0  0  0
   -0.7644    1.6258    2.1537 H   0  0  0  0  0  0  0  0  0  0  0  0
    0.6814    2.2390    1.3462 H   0  0  0  0  0  0  0  0  0  0  0  0
   -1.1374    2.8202    0.3762 C   0  0  0  0  0  0  0  0  0  0  0  0
   -0.6537    3.0193   -0.5843 H   0  0  0  0  0  0  0  0  0  0  0  0
   -2.1345    2.4184    0.1741 H   0  0  0  0  0  0  0  0  0  0  0  0
   -1.2806    4.1394    1.1359 C   0  0  0  0  0  0  0  0  0  0  0  0
   -0.2233    4.7279    1.4761 O   0  5  0  0  0  0  0  0  0  0  0  0
   -2.4406    4.5745    1.3375 O   0  0  0  0  0  0  0  0  0  0  0  0
    0.9978   -0.4083    0.9476 C   0  0  0  0  0  0  0  0  0  0  0  0
    1.0816   -1.5870    0.6150 O   0  0  0  0  0  0  0  0  0  0  0  0
    2.1936    0.1959    1.3014 N   0  0  0  0  0  0  0  0  0  0  0  0
    2.1485    1.1849    1.5330 H   0  0  0  0  0  0  0  0  0  0  0  0
    3.4079   -0.5405    1.6244 C   0  0  0  0  0  0  0  0  0  0  0  0
    3.7865   -1.0617    0.7393 H   0  0  0  0  0  0  0  0  0  0  0  0
    4.1812    0.1478    1.9777 H   0  0  0  0  0  0  0  0  0  0  0  0
    3.2115   -1.2748    2.4124 H   0  0  0  0  0  0  0  0  0  0  0  0
  1  2  1  0  0  0  0
  2  3  1  0  0  0  0
  2  4  1  0  0  0  0
  2  5  1  0  0  0  0
  5  6  2  0  0  0  0
  5  7  1  0  0  0  0
  7  8  1  0  0  0  0
  7  9  1  0  0  0  0
  9 10  1  0  0  0  0
  9 11  1  0  0  0  0
  9 20  1  0  0  0  0
 11 12  1  0  0  0  0
 11 13  1  0  0  0  0
 11 14  1  0  0  0  0
 14 15  1  0  0  0  0
 14 16  1  0  0  0  0
 14 17  1  0  0  0  0
 17 18  1  0  0  0  0
 17 19  2  0  0  0  0
 20 21  2  0  0  0  0
 20 22  1  0  0  0  0
 22 23  1  0  0  0  0
 22 24  1  0  0  0  0
 24 25  1  0  0  0  0
 24 26  1  0  0  0  0
 24 27  1  0  0  0  0
M  CHG  1  18  -1
M  END
$$$$

  -OEChem-01062216073D

 27 26  0     1  0  0  0  0  0999 V2000
   -3.4523   -2.8172    1.1437 H   0  0  0  0  0  0  0  0  0  0  0  0
   -3.2388   -1.9301    0.5405 C   0  0  0  0  0  0  0  0  0  0  0  0
   -4.0577   -1.2162    0.6604 H   0  0  0  0  0  0  0  0  0  0  0  0
   -3.1729   -2.2268   -0.5091 H   0  0  0  0  0  0  0  0  0  0  0  0
   -1.9313   -1.2963    0.9821 C   0  0  0  0  0  0  0  0  0  0  0  0
   -1.3735   -1.7297    1.9778 O   0  0  0  0  0  0  0  0  0  0  0  0
   -1.5100   -0.1436    0.3453 N   0  0  0  0  0  0  0  0  0  0  0  0
   -2.1398    0.2115   -0.3663 H   0  0  0  0  0  0  0  0  0  0  0  0
   -0.1652    0.4719    0.3895 C   0  0  1  0  0  0  0  0  0  0  0  0
    0.1315    0.7061   -0.6365 H   0  0  0  0  0  0  0  0  0  0  0  0
   -0.3108    1.8049    1.1528 C   0  0  0  0  0  0  0  0  0  0  0  0
   -0.7622    1.6216    2.1341 H   0  0  0  0  0  0  0  0  0  0  0  0
    0.6709    2.2587    1.3167 H   0  0  0  0  0  0  0  0  0  0  0  0
   -1.1602    2.8202    0.3645 C   0  0  0  0  0  0  0  0  0  0  0  0
   -0.6806    3.0341   -0.5949 H   0  0  0  0  0  0  0  0  0  0  0  0
   -2.1515    2.4056    0.1607 H   0  0  0  0  0  0  0  0  0  0  0  0
   -1.3213    4.1312    1.1352 C   0  0  0  0  0  0  0  0  0  0  0  0
   -0.2749    4.7168    1.5113 O   0  5  0  0  0  0  0  0  0  0  0  0
   -2.4874    4.5579    1.3189 O   0  0  0  0  0  0  0  0  0  0  0  0
    1.0047   -0.4010    0.9245 C   0  0  0  0  0  0  0  0  0  0  0  0
    1.1857   -1.5132    0.4366 O   0  0  0  0  0  0  0  0  0  0  0  0
    2.0846    0.1716    1.5762 N   0  0  0  0  0  0  0  0  0  0  0  0
    1.9401    1.1026    1.9583 H   0  0  0  0  0  0  0  0  0  0  0  0
    3.2738   -0.5694    1.9711 C   0  0  0  0  0  0  0  0  0  0  0  0
    3.8087   -0.9336    1.0883 H   0  0  0  0  0  0  0  0  0  0  0  0
    3.9474    0.0779    2.5403 H   0  0  0  0  0  0  0  0  0  0  0  0
    3.0012   -1.4239    2.5990 H   0  0  0  0  0  0  0  0  0  0  0  0
  1  2  1  0  0  0  0
  2  3  1  0  0  0  0
  2  4  1  0  0  0  0
  2  5  1  0  0  0  0
  5  6  2  0  0  0  0
  5  7  1  0  0  0  0
  7  8  1  0  0  0  0
  7  9  1  0  0  0  0
  9 10  1  0  0  0  0
  9 11  1  0  0  0  0
  9 20  1  0  0  0  0
 11 12  1  0  0  0  0
 11 13  1  0  0  0  0
 11 14  1  0  0  0  0
 14 15  1  0  0  0  0
 14 16  1  0  0  0  0
 14 17  1  0  0  0  0
 17 18  1  0  0  0  0
 17 19  2  0  0  0  0
 20 21  2  0  0  0  0
 20 22  1  0  0  0  0
 22 23  1  0  0  0  0
 22 24  1  0  0  0  0
 24 25  1  0  0  0  0
 24 26  1  0  0  0  0
 24 27  1  0  0  0  0
M  CHG  1  18  -1
M  END
$$$$

  -OEChem-01062216073D

 27 26  0     1  0  0  0  0  0999 V2000
   -3.4627   -2.7967    1.1380 H   0  0  0  0  0  0  0  0  0  0  0  0
   -3.2536   -1.8991    0.5493 C   0  0  0  0  0  0  0  0  0  0  0  0
   -4.0474   -1.1688    0.7259 H   0  0  0  0  0  0  0  0  0  0  0  0
   -3.2440   -2.1681   -0.5097 H   0  0  0  0  0  0  0  0  0  0  0  0
   -1.9109   -1.3104    0.9456 C   0  0  0  0  0  0  0  0  0  0  0  0
   -1.3080   -1.8015    1.8864 O   0  0  0  0  0  0  0  0  0  0  0  0
   -1.4905   -0.1529    0.3167 N   0  0  0  0  0  0  0  0  0  0  0  0
   -2.1480    0.2470   -0.3450 H   0  0  0  0  0  0  0  0  0  0  0  0
   -0.1524    0.4752    0.3683 C   0  0  1  0  0  0  0  0  0  0  0  0
    0.1492    0.7162   -0.6548 H   0  0  0  0  0  0  0  0  0  0  0  0
   -0.3126    1.8016    1.1388 C   0  0  0  0  0  0  0  0  0  0  0  0
   -0.7629    1.6097    2.1190 H   0  0  0  0  0  0  0  0  0  0  0  0
    0.6684    2.2590    1.3024 H   0  0  0  0  0  0  0  0  0  0  0  0
   -1.1699    2.8150    0.3563 C   0  0  0  0  0  0  0  0  0  0  0  0
   -0.6903    3.0409   -0.6003 H   0  0  0  0  0  0  0  0  0  0  0  0
   -2.1568    2.3925    0.1467 H   0  0  0  0  0  0  0  0  0  0  0  0
   -1.3453    4.1192    1.1361 C   0  0  0  0  0  0  0  0  0  0  0  0
   -0.3081    4.7005    1.5428 O   0  5  0  0  0  0  0  0  0  0  0  0
   -2.5160    4.5406    1.3036 O   0  0  0  0  0  0  0  0  0  0  0  0
    1.0137   -0.3968    0.9092 C   0  0  0  0  0  0  0  0  0  0  0  0
    1.3134   -1.4215    0.3026 O   0  0  0  0  0  0  0  0  0  0  0  0
    1.9293    0.0967    1.8230 N   0  0  0  0  0  0  0  0  0  0  0  0
    1.6667    0.9483    2.3121 H   0  0  0  0  0  0  0  0  0  0  0  0
    3.0886   -0.6511    2.2863 C   0  0  0  0  0  0  0  0  0  0  0  0
    3.7820   -0.8332    1.4591 H   0  0  0  0  0  0  0  0  0  0  0  0
    3.6150   -0.0851    3.0606 H   0  0  0  0  0  0  0  0  0  0  0  0
    2.7791   -1.6124    2.7091 H   0  0  0  0  0  0  0  0  0  0  0  0
  1  2  1  0  0  0  0
  2  3  1  0  0  0  0
  2  4  1  0  0  0  0
  2  5  1  0  0  0  0
  5  6  2  0  0  0  0
  5  7  1  0  0  0  0
  7  8  1  0  0  0  0
  7  9  1  0  0  0  0
  9 10  1  0  0  0  0
  9 11  1  0  0  0  0
  9 20  1  0  0  0  0
 11 12  1  0  0  0  0
 11 13  1  0  0  0  0
 11 14  1  0  0  0  0
 14 15  1  0  0  0  0
 14 16  1  0  0  0  0
 14 17  1  0  0  0  0
 17 18  1  0  0  0  0
 17 19  2  0  0  0  0
 20 21  2  0  0  0  0
 20 22  1  0  0  0  0
 22 23  1  0  0  0  0
 22 24  1  0  0  0  0
 24 25  1  0  0  0  0
 24 26  1  0  0  0  0
 24 27  1  0  0  0  0
M  CHG  1  18  -1
M  END
$$$$

  -OEChem-01062216073D

 27 26  0     1  0  0  0  0  0999 V2000
   -3.4768   -2.7608    1.1418 H   0  0  0  0  0  0  0  0  0  0  0  0
   -3.2656   -1.8591    0.5599 C   0  0  0  0  0  0  0  0  0  0  0  0
   -4.0206   -1.1042    0.7941 H   0  0  0  0  0  0  0  0  0  0  0  0
   -3.3238   -2.1050   -0.5032 H   0  0  0  0  0  0  0  0  0  0  0  0
   -1.8822   -1.3280    0.8935 C   0  0  0  0  0  0  0  0  0  0  0  0
   -1.2344   -1.8833    1.7661 O   0  0  0  0  0  0  0  0  0  0  0  0
   -1.4618   -0.1644    0.2761 N   0  0  0  0  0  0  0  0  0  0  0  0
   -2.1472    0.2830   -0.3246 H   0  0  0  0  0  0  0  0  0  0  0  0
   -0.1314    0.4784    0.3407 C   0  0  1  0  0  0  0  0  0  0  0  0
    0.1750    0.7322   -0.6780 H   0  0  0  0  0  0  0  0  0  0  0  0
   -0.3107    1.7936    1.1240 C   0  0  0  0  0  0  0  0  0  0  0  0
   -0.7656    1.5875    2.0992 H   0  0  0  0  0  0  0  0  0  0  0  0
    0.6670    2.2552    1.2994 H   0  0  0  0  0  0  0  0  0  0  0  0
   -1.1755    2.8039    0.3474 C   0  0  0  0  0  0  0  0  0  0  0  0
   -0.6940    3.0458   -0.6043 H   0  0  0  0  0  0  0  0  0  0  0  0
   -2.1565    2.3730    0.1279 H   0  0  0  0  0  0  0  0  0  0  0  0
   -1.3683    4.0953    1.1426 C   0  0  0  0  0  0  0  0  0  0  0  0
   -0.3397    4.7315    1.4820 O   0  5  0  0  0  0  0  0  0  0  0  0
   -2.5461    4.4440    1.4020 O   0  0  0  0  0  0  0  0  0  0  0  0
    1.0381   -0.3819    0.8879 C   0  0  0  0  0  0  0  0  0  0  0  0
    1.4769   -1.2926    0.1914 O   0  0  0  0  0  0  0  0  0  0  0  0
    1.7532   -0.0130    2.0141 N   0  0  0  0  0  0  0  0  0  0  0  0
    1.3436    0.7195    2.5872 H   0  0  0  0  0  0  0  0  0  0  0  0
    2.8517   -0.7979    2.5563 C   0  0  0  0  0  0  0  0  0  0  0  0
    3.6742   -0.8536    1.8361 H   0  0  0  0  0  0  0  0  0  0  0  0
    3.2264   -0.3351    3.4740 H   0  0  0  0  0  0  0  0  0  0  0  0
    2.5154   -1.8131    2.7911 H   0  0  0  0  0  0  0  0  0  0  0  0
  1  2  1  0  0  0  0
  2  3  1  0  0  0  0
  2  4  1  0  0  0  0
  2  5  1  0  0  0  0
  5  6  2  0  0  0  0
  5  7  1  0  0  0  0
  7  8  1  0  0  0  0
  7  9  1  0  0  0  0
  9 10  1  0  0  0  0
  9 11  1  0  0  0  0
  9 20  1  0  0  0  0
 11 12  1  0  0  0  0
 11 13  1  0  0  0  0
 11 14  1  0  0  0  0
 14 15  1  0  0  0  0
 14 16  1  0  0  0  0
 14 17  1  0  0  0  0
 17 18  1  0  0  0  0
 17 19  2  0  0  0  0
 20 21  2  0  0  0  0
 20 22  1  0  0  0  0
 22 23  1  0  0  0  0
 22 24  1  0  0  0  0
 24 25  1  0  0  0  0
 24 26  1  0  0  0  0
 24 27  1  0  0  0  0
M  CHG  1  18  -1
M  END
$$$$

  -OEChem-01062216073D

 27 26  0     1  0  0  0  0  0999 V2000
   -3.4832   -2.7443    1.1159 H   0  0  0  0  0  0  0  0  0  0  0  0
   -3.2750   -1.8300    0.5531 C   0  0  0  0  0  0  0  0  0  0  0  0
   -4.0066   -1.0685    0.8356 H   0  0  0  0  0  0  0  0  0  0  0  0
   -3.3750   -2.0434   -0.5139 H   0  0  0  0  0  0  0  0  0  0  0  0
   -1.8708   -1.3350    0.8527 C   0  0  0  0  0  0  0  0  0  0  0  0
   -1.2008   -1.9324    1.6791 O   0  0  0  0  0  0  0  0  0  0  0  0
   -1.4435   -0.1705    0.2422 N   0  0  0  0  0  0  0  0  0  0  0  0
   -2.1423    0.3116   -0.3151 H   0  0  0  0  0  0  0  0  0  0  0  0
   -0.1165    0.4771    0.3240 C   0  0  1  0  0  0  0  0  0  0  0  0
    0.1996    0.7388   -0.6901 H   0  0  0  0  0  0  0  0  0  0  0  0
   -0.3094    1.7841    1.1163 C   0  0  0  0  0  0  0  0  0  0  0  0
   -0.7769    1.5685    2.0834 H   0  0  0  0  0  0  0  0  0  0  0  0
    0.6663    2.2438    1.3101 H   0  0  0  0  0  0  0  0  0  0  0  0
   -1.1713    2.7965    0.3406 C   0  0  0  0  0  0  0  0  0  0  0  0
   -0.6837    3.0497   -0.6054 H   0  0  0  0  0  0  0  0  0  0  0  0
   -2.1500    2.3670    0.1085 H   0  0  0  0  0  0  0  0  0  0  0  0
   -1.3714    4.0746    1.1531 C   0  0  0  0  0  0  0  0  0  0  0  0
   -0.3732    4.8151    1.3306 O   0  5  0  0  0  0  0  0  0  0  0  0
   -2.5221    4.2989    1.6029 O   0  0  0  0  0  0  0  0  0  0  0  0
    1.0517   -0.3727    0.8861 C   0  0  0  0  0  0  0  0  0  0  0  0
    1.6444   -1.1387    0.1323 O   0  0  0  0  0  0  0  0  0  0  0  0
    1.5462   -0.1745    2.1632 N   0  0  0  0  0  0  0  0  0  0  0  0
    0.9678    0.3875    2.7808 H   0  0  0  0  0  0  0  0  0  0  0  0
    2.6006   -0.9913    2.7435 C   0  0  0  0  0  0  0  0  0  0  0  0
    3.5171   -0.9106    2.1505 H   0  0  0  0  0  0  0  0  0  0  0  0
    2.8181   -0.6547    3.7614 H   0  0  0  0  0  0  0  0  0  0  0  0
    2.2929   -2.0414    2.7816 H   0  0  0  0  0  0  0  0  0  0  0  0
  1  2  1  0  0  0  0
  2  3  1  0  0  0  0
  2  4  1  0  0  0  0
  2  5  1  0  0  0  0
  5  6  2  0  0  0  0
  5  7  1  0  0  0  0
  7  8  1  0  0  0  0
  7  9  1  0  0  0  0
  9 10  1  0  0  0  0
  9 11  1  0  0  0  0
  9 20  1  0  0  0  0
 11 12  1  0  0  0  0
 11 13  1  0  0  0  0
 11 14  1  0  0  0  0
 14 15  1  0  0  0  0
 14 16  1  0  0  0  0
 14 17  1  0  0  0  0
 17 18  1  0  0  0  0
 17 19  2  0  0  0  0
 20 21  2  0  0  0  0
 20 22  1  0  0  0  0
 22 23  1  0  0  0  0
 22 24  1  0  0  0  0
 24 25  1  0  0  0  0
 24 26  1  0  0  0  0
 24 27  1  0  0  0  0
M  CHG  1  18  -1
M  END
$$$$

  -OEChem-01062216073D

 27 26  0     1  0  0  0  0  0999 V2000
   -3.4832   -2.7462    1.1589 H   0  0  0  0  0  0  0  0  0  0  0  0
   -3.2839   -1.8239    0.6058 C   0  0  0  0  0  0  0  0  0  0  0  0
   -3.9985   -1.0605    0.9244 H   0  0  0  0  0  0  0  0  0  0  0  0
   -3.4203   -2.0172   -0.4611 H   0  0  0  0  0  0  0  0  0  0  0  0
   -1.8662   -1.3470    0.8684 C   0  0  0  0  0  0  0  0  0  0  0  0
   -1.1719   -1.9699    1.6543 O   0  0  0  0  0  0  0  0  0  0  0  0
   -1.4449   -0.1832    0.2534 N   0  0  0  0  0  0  0  0  0  0  0  0
   -2.1571    0.3087   -0.2782 H   0  0  0  0  0  0  0  0  0  0  0  0
   -0.1204    0.4724    0.3158 C   0  0  1  0  0  0  0  0  0  0  0  0
    0.1747    0.7419   -0.7027 H   0  0  0  0  0  0  0  0  0  0  0  0
   -0.3030    1.7705    1.1235 C   0  0  0  0  0  0  0  0  0  0  0  0
   -0.7496    1.5401    2.0970 H   0  0  0  0  0  0  0  0  0  0  0  0
    0.6750    2.2298    1.3057 H   0  0  0  0  0  0  0  0  0  0  0  0
   -1.1875    2.7881    0.3727 C   0  0  0  0  0  0  0  0  0  0  0  0
   -0.7164    3.0326   -0.5838 H   0  0  0  0  0  0  0  0  0  0  0  0
   -2.1658    2.3460    0.1668 H   0  0  0  0  0  0  0  0  0  0  0  0
   -1.4205    4.0906    1.1464 C   0  0  0  0  0  0  0  0  0  0  0  0
   -1.0141    4.1821    2.3322 O   0  5  0  0  0  0  0  0  0  0  0  0
   -2.0459    4.9909    0.5352 O   0  0  0  0  0  0  0  0  0  0  0  0
    1.0687   -0.3560    0.8631 C   0  0  0  0  0  0  0  0  0  0  0  0
    1.7974   -0.9474    0.0721 O   0  0  0  0  0  0  0  0  0  0  0  0
    1.3835   -0.3643    2.2100 N   0  0  0  0  0  0  0  0  0  0  0  0
    0.6599   -0.0052    2.8265 H   0  0  0  0  0  0  0  0  0  0  0  0
    2.4107   -1.2246    2.7757 C   0  0  0  0  0  0  0  0  0  0  0  0
    3.3765   -1.0363    2.2956 H   0  0  0  0  0  0  0  0  0  0  0  0
    2.5153   -1.0288    3.8468 H   0  0  0  0  0  0  0  0  0  0  0  0
    2.1437   -2.2772    2.6373 H   0  0  0  0  0  0  0  0  0  0  0  0
  1  2  1  0  0  0  0
  2  3  1  0  0  0  0
  2  4  1  0  0  0  0
  2  5  1  0  0  0  0
  5  6  2  0  0  0  0
  5  7  1  0  0  0  0
  7  8  1  0  0  0  0
  7  9  1  0  0  0  0
  9 10  1  0  0  0  0
  9 11  1  0  0  0  0
  9 20  1  0  0  0  0
 11 12  1  0  0  0  0
 11 13  1  0  0  0  0
 11 14  1  0  0  0  0
 14 15  1  0  0  0  0
 14 16  1  0  0  0  0
 14 17  1  0  0  0  0
 17 18  1  0  0  0  0
 17 19  2  0  0  0  0
 20 21  2  0  0  0  0
 20 22  1  0  0  0  0
 22 23  1  0  0  0  0
 22 24  1  0  0  0  0
 24 25  1  0  0  0  0
 24 26  1  0  0  0  0
 24 27  1  0  0  0  0
M  CHG  1  18  -1
M  END
$$$$

  -OEChem-01062216073D

 27 26  0     1  0  0  0  0  0999 V2000
   -3.5499   -2.7133    1.2183 H   0  0  0  0  0  0  0  0  0  0  0  0
   -3.3471   -1.7833    0.6797 C   0  0  0  0  0  0  0  0  0  0  0  0
   -4.0161   -1.0052    1.0568 H   0  0  0  0  0  0  0  0  0  0  0  0
   -3.5472   -1.9414   -0.3829 H   0  0  0  0  0  0  0  0  0  0  0  0
   -1.9017   -1.3621    0.8780 C   0  0  0  0  0  0  0  0  0  0  0  0
   -1.1954   -2.0171    1.6256 O   0  0  0  0  0  0  0  0  0  0  0  0
   -1.4661   -0.2110    0.2507 N   0  0  0  0  0  0  0  0  0  0  0  0
   -2.1933    0.3146   -0.2265 H   0  0  0  0  0  0  0  0  0  0  0  0
   -0.1391    0.4440    0.2972 C   0  0  1  0  0  0  0  0  0  0  0  0
    0.1435    0.7094   -0.7263 H   0  0  0  0  0  0  0  0  0  0  0  0
   -0.3307    1.7442    1.0988 C   0  0  0  0  0  0  0  0  0  0  0  0
   -0.7707    1.5217    2.0770 H   0  0  0  0  0  0  0  0  0  0  0  0
    0.6447    2.2124    1.2732 H   0  0  0  0  0  0  0  0  0  0  0  0
   -1.2243    2.7453    0.3435 C   0  0  0  0  0  0  0  0  0  0  0  0
   -0.7637    3.0051   -0.6141 H   0  0  0  0  0  0  0  0  0  0  0  0
   -2.2023    2.3038    0.1324 H   0  0  0  0  0  0  0  0  0  0  0  0
   -1.4278    4.0196    1.1598 C   0  0  0  0  0  0  0  0  0  0  0  0
   -2.5195    4.1407    1.7690 O   0  5  0  0  0  0  0  0  0  0  0  0
   -0.4911    4.8543    1.1899 O   0  0  0  0  0  0  0  0  0  0  0  0
    1.0709   -0.3523    0.8472 C   0  0  0  0  0  0  0  0  0  0  0  0
    1.9530   -0.7073    0.0718 O   0  0  0  0  0  0  0  0  0  0  0  0
    1.2288   -0.5830    2.2012 N   0  0  0  0  0  0  0  0  0  0  0  0
    0.3591   -0.5466    2.7275 H   0  0  0  0  0  0  0  0  0  0  0  0
    2.3069   -1.4017    2.7337 C   0  0  0  0  0  0  0  0  0  0  0  0
    3.2795   -0.9971    2.4353 H   0  0  0  0  0  0  0  0  0  0  0  0
    2.2612   -1.4150    3.8267 H   0  0  0  0  0  0  0  0  0  0  0  0
    2.2221   -2.4300    2.3676 H   0  0  0  0  0  0  0  0  0  0  0  0
  1  2  1  0  0  0  0
  2  3  1  0  0  0  0
  2  4  1  0  0  0  0
  2  5  1  0  0  0  0
  5  6  2  0  0  0  0
  5  7  1  0  0  0  0
  7  8  1  0  0  0  0
  7  9  1  0  0  0  0
  9 10  1  0  0  0  0
  9 11  1  0  0  0  0
  9 20  1  0  0  0  0
 11 12  1  0  0  0  0
 11 13  1  0  0  0  0
 11 14  1  0  0  0  0
 14 15  1  0  0  0  0
 14 16  1  0  0  0  0
 14 17  1  0  0  0  0
 17 18  1  0  0  0  0
 17 19  2  0  0  0  0
 20 21  2  0  0  0  0
 20 22  1  0  0  0  0
 22 23  1  0  0  0  0
 22 24  1  0  0  0  0
 24 25  1  0  0  0  0
 24 26  1  0  0  0  0
 24 27  1  0  0  0  0
M  CHG  1  18  -1
M  END
$$$$

  -OEChem-01062216073D

 27 26  0     1  0  0  0  0  0999 V2000
   -3.6794   -2.6461    1.1584 H   0  0  0  0  0  0  0  0  0  0  0  0
   -3.4362   -1.7087    0.6501 C   0  0  0  0  0  0  0  0  0  0  0  0
   -4.0581   -0.9114    1.0657 H   0  0  0  0  0  0  0  0  0  0  0  0
   -3.6602   -1.8173   -0.4140 H   0  0  0  0  0  0  0  0  0  0  0  0
   -1.9682   -1.3698    0.8399 C   0  0  0  0  0  0  0  0  0  0  0  0
   -1.2892   -2.0893    1.5522 O   0  0  0  0  0  0  0  0  0  0  0  0
   -1.4795   -0.2316    0.2286 N   0  0  0  0  0  0  0  0  0  0  0  0
   -2.1935    0.3364   -0.2195 H   0  0  0  0  0  0  0  0  0  0  0  0
   -0.1419    0.4041    0.3004 C   0  0  1  0  0  0  0  0  0  0  0  0
    0.1549    0.6706   -0.7190 H   0  0  0  0  0  0  0  0  0  0  0  0
   -0.3400    1.7018    1.1035 C   0  0  0  0  0  0  0  0  0  0  0  0
   -0.8001    1.4762    2.0721 H   0  0  0  0  0  0  0  0  0  0  0  0
    0.6346    2.1624    1.3009 H   0  0  0  0  0  0  0  0  0  0  0  0
   -1.2090    2.7147    0.3350 C   0  0  0  0  0  0  0  0  0  0  0  0
   -0.7268    2.9724   -0.6128 H   0  0  0  0  0  0  0  0  0  0  0  0
   -2.1884    2.2870    0.1046 H   0  0  0  0  0  0  0  0  0  0  0  0
   -1.4168    3.9849    1.1561 C   0  0  0  0  0  0  0  0  0  0  0  0
   -2.3918    3.9984    1.9480 O   0  5  0  0  0  0  0  0  0  0  0  0
   -0.6095    4.9316    0.9928 O   0  0  0  0  0  0  0  0  0  0  0  0
    1.0738   -0.3704    0.8726 C   0  0  0  0  0  0  0  0  0  0  0  0
    2.0822   -0.4799    0.1828 O   0  0  0  0  0  0  0  0  0  0  0  0
    1.0958   -0.8559    2.1658 N   0  0  0  0  0  0  0  0  0  0  0  0
    0.1653   -1.0570    2.5328 H   0  0  0  0  0  0  0  0  0  0  0  0
    2.2052   -1.6383    2.6889 C   0  0  0  0  0  0  0  0  0  0  0  0
    3.1388   -1.0697    2.6269 H   0  0  0  0  0  0  0  0  0  0  0  0
    2.0241   -1.8877    3.7384 H   0  0  0  0  0  0  0  0  0  0  0  0
    2.3173   -2.5684    2.1226 H   0  0  0  0  0  0  0  0  0  0  0  0
  1  2  1  0  0  0  0
  2  3  1  0  0  0  0
  2  4  1  0  0  0  0
  2  5  1  0  0  0  0
  5  6  2  0  0  0  0
  5  7  1  0  0  0  0
  7  8  1  0  0  0  0
  7  9  1  0  0  0  0
  9 10  1  0  0  0  0
  9 11  1  0  0  0  0
  9 20  1  0  0  0  0
 11 12  1  0  0  0  0
 11 13  1  0  0  0  0
 11 14  1  0  0  0  0
 14 15  1  0  0  0  0
 14 16  1  0  0  0  0
 14 17  1  0  0  0  0
 17 18  1  0  0  0  0
 17 19  2  0  0  0  0
 20 21  2  0  0  0  0
 20 22  1  0  0  0  0
 22 23  1  0  0  0  0
 22 24  1  0  0  0  0
 24 25  1  0  0  0  0
 24 26  1  0  0  0  0
 24 27  1  0  0  0  0
M  CHG  1  18  -1
M  END
$$$$

  -OEChem-01062216073D

 27 26  0     1  0  0  0  0  0999 V2000
   -3.8261   -2.5169    1.1827 H   0  0  0  0  0  0  0  0  0  0  0  0
   -3.5226   -1.6179    0.6386 C   0  0  0  0  0  0  0  0  0  0  0  0
   -4.0813   -0.7644    1.0320 H   0  0  0  0  0  0  0  0  0  0  0  0
   -3.7669   -1.7470   -0.4187 H   0  0  0  0  0  0  0  0  0  0  0  0
   -2.0319   -1.3777    0.8016 C   0  0  0  0  0  0  0  0  0  0  0  0
   -1.3802   -2.1809    1.4463 O   0  0  0  0  0  0  0  0  0  0  0  0
   -1.4923   -0.2504    0.2131 N   0  0  0  0  0  0  0  0  0  0  0  0
   -2.1942    0.3634   -0.1929 H   0  0  0  0  0  0  0  0  0  0  0  0
   -0.1454    0.3677    0.3075 C   0  0  1  0  0  0  0  0  0  0  0  0
    0.1619    0.6368   -0.7082 H   0  0  0  0  0  0  0  0  0  0  0  0
   -0.3597    1.6633    1.1108 C   0  0  0  0  0  0  0  0  0  0  0  0
   -0.8401    1.4349    2.0689 H   0  0  0  0  0  0  0  0  0  0  0  0
    0.6105    2.1236    1.3306 H   0  0  0  0  0  0  0  0  0  0  0  0
   -1.2099    2.6808    0.3249 C   0  0  0  0  0  0  0  0  0  0  0  0
   -0.7051    2.9402   -0.6106 H   0  0  0  0  0  0  0  0  0  0  0  0
   -2.1844    2.2563    0.0691 H   0  0  0  0  0  0  0  0  0  0  0  0
   -1.4376    3.9503    1.1417 C   0  0  0  0  0  0  0  0  0  0  0  0
   -2.4462    3.9698    1.8903 O   0  5  0  0  0  0  0  0  0  0  0  0
   -0.6172    4.8912    1.0151 O   0  0  0  0  0  0  0  0  0  0  0  0
    1.0818   -0.3842    0.8922 C   0  0  0  0  0  0  0  0  0  0  0  0
    2.1573   -0.2809    0.3117 O   0  0  0  0  0  0  0  0  0  0  0  0
    1.0413   -1.1255    2.0565 N   0  0  0  0  0  0  0  0  0  0  0  0
    0.1041   -1.4419    2.3120 H   0  0  0  0  0  0  0  0  0  0  0  0
    2.1730   -1.8991    2.5446 C   0  0  0  0  0  0  0  0  0  0  0  0
    3.0415   -1.2515    2.7025 H   0  0  0  0  0  0  0  0  0  0  0  0
    1.9193   -2.3715    3.4981 H   0  0  0  0  0  0  0  0  0  0  0  0
    2.4392   -2.6815    1.8269 H   0  0  0  0  0  0  0  0  0  0  0  0
  1  2  1  0  0  0  0
  2  3  1  0  0  0  0
  2  4  1  0  0  0  0
  2  5  1  0  0  0  0
  5  6  2  0  0  0  0
  5  7  1  0  0  0  0
  7  8  1  0  0  0  0
  7  9  1  0  0  0  0
  9 10  1  0  0  0  0
  9 11  1  0  0  0  0
  9 20  1  0  0  0  0
 11 12  1  0  0  0  0
 11 13  1  0  0  0  0
 11 14  1  0  0  0  0
 14 15  1  0  0  0  0
 14 16  1  0  0  0  0
 14 17  1  0  0  0  0
 17 18  1  0  0  0  0
 17 19  2  0  0  0  0
 20 21  2  0  0  0  0
 20 22  1  0  0  0  0
 22 23  1  0  0  0  0
 22 24  1  0  0  0  0
 24 25  1  0  0  0  0
 24 26  1  0  0  0  0
 24 27  1  0  0  0  0
M  CHG  1  18  -1
M  END
$$$$

  -OEChem-01062216073D

 27 26  0     1  0  0  0  0  0999 V2000
   -3.9078   -2.4309    1.5650 H   0  0  0  0  0  0  0  0  0  0  0  0
   -3.6191   -1.5466    0.9899 C   0  0  0  0  0  0  0  0  0  0  0  0
   -4.0827   -0.6663    1.4435 H   0  0  0  0  0  0  0  0  0  0  0  0
   -3.9886   -1.6557   -0.0328 H   0  0  0  0  0  0  0  0  0  0  0  0
   -2.1087   -1.3882    0.9829 C   0  0  0  0  0  0  0  0  0  0  0  0
   -1.4361   -2.2250    1.5592 O   0  0  0  0  0  0  0  0  0  0  0  0
   -1.5817   -0.3076    0.3023 N   0  0  0  0  0  0  0  0  0  0  0  0
   -2.3015    0.3178   -0.0517 H   0  0  0  0  0  0  0  0  0  0  0  0
   -0.2213    0.2898    0.2562 C   0  0  1  0  0  0  0  0  0  0  0  0
    0.0013    0.5001   -0.7945 H   0  0  0  0  0  0  0  0  0  0  0  0
   -0.3705    1.6296    1.0028 C   0  0  0  0  0  0  0  0  0  0  0  0
   -0.7793    1.4555    2.0045 H   0  0  0  0  0  0  0  0  0  0  0  0
    0.6146    2.0940    1.1268 H   0  0  0  0  0  0  0  0  0  0  0  0
   -1.2714    2.6137    0.2289 C   0  0  0  0  0  0  0  0  0  0  0  0
   -0.8357    2.8153   -0.7543 H   0  0  0  0  0  0  0  0  0  0  0  0
   -2.2658    2.1883    0.0712 H   0  0  0  0  0  0  0  0  0  0  0  0
   -1.4336    3.9277    0.9899 C   0  0  0  0  0  0  0  0  0  0  0  0
   -2.2406    3.9292    1.9528 O   0  5  0  0  0  0  0  0  0  0  0  0
   -0.7843    4.9258    0.5942 O   0  0  0  0  0  0  0  0  0  0  0  0
    1.0626   -0.4212    0.7728 C   0  0  0  0  0  0  0  0  0  0  0  0
    2.1237   -0.1592    0.2168 O   0  0  0  0  0  0  0  0  0  0  0  0
    1.1023   -1.3352    1.8060 N   0  0  0  0  0  0  0  0  0  0  0  0
    0.1941   -1.6995    2.0987 H   0  0  0  0  0  0  0  0  0  0  0  0
    2.2984   -2.0685    2.1933 C   0  0  0  0  0  0  0  0  0  0  0  0
    3.0927   -1.3766    2.4914 H   0  0  0  0  0  0  0  0  0  0  0  0
    2.0767   -2.7239    3.0407 H   0  0  0  0  0  0  0  0  0  0  0  0
    2.6565   -2.6836    1.3616 H   0  0  0  0  0  0  0  0  0  0  0  0
  1  2  1  0  0  0  0
  2  3  1  0  0  0  0
  2  4  1  0  0  0  0
  2  5  1  0  0  0  0
  5  6  2  0  0  0  0
  5  7  1  0  0  0  0
  7  8  1  0  0  0  0
  7  9  1  0  0  0  0
  9 10  1  0  0  0  0
  9 11  1  0  0  0  0
  9 20  1  0  0  0  0
 11 12  1  0  0  0  0
 11 13  1  0  0  0  0
 11 14  1  0  0  0  0
 14 15  1  0  0  0  0
 14 16  1  0  0  0  0
 14 17  1  0  0  0  0
 17 18  1  0  0  0  0
 17 19  2  0  0  0  0
 20 21  2  0  0  0  0
 20 22  1  0  0  0  0
 22 23  1  0  0  0  0
 22 24  1  0  0  0  0
 24 25  1  0  0  0  0
 24 26  1  0  0  0  0
 24 27  1  0  0  0  0
M  CHG  1  18  -1
M  END
$$$$

  -OEChem-01062216073D

 27 26  0     1  0  0  0  0  0999 V2000
   -3.2890   -2.7954    1.2853 H   0  0  0  0  0  0  0  0  0  0  0  0
   -3.1437   -1.7631    0.9549 C   0  0  0  0  0  0  0  0  0  0  0  0
   -3.3091   -1.0956    1.8051 H   0  0  0  0  0  0  0  0  0  0  0  0
   -3.8752   -1.5348    0.1758 H   0  0  0  0  0  0  0  0  0  0  0  0
   -1.7363   -1.5735    0.4180 C   0  0  0  0  0  0  0  0  0  0  0  0
   -1.0359   -2.5562    0.2512 O   0  0  0  0  0  0  0  0  0  0  0  0
   -1.3834   -0.3265   -0.0526 N   0  0  0  0  0  0  0  0  0  0  0  0
   -2.1627    0.3232    0.0152 H   0  0  0  0  0  0  0  0  0  0  0  0
   -0.0814    0.3858   -0.0112 C   0  0  1  0  0  0  0  0  0  0  0  0
    0.0646    0.8431   -0.9947 H   0  0  0  0  0  0  0  0  0  0  0  0
   -0.3076    1.4985    1.0313 C   0  0  0  0  0  0  0  0  0  0  0  0
   -0.6415    1.0609    1.9785 H   0  0  0  0  0  0  0  0  0  0  0  0
    0.6388    2.0158    1.2262 H   0  0  0  0  0  0  0  0  0  0  0  0
   -1.3288    2.5478    0.5502 C   0  0  0  0  0  0  0  0  0  0  0  0
   -0.9675    3.0185   -0.3694 H   0  0  0  0  0  0  0  0  0  0  0  0
   -2.2939    2.0843    0.3304 H   0  0  0  0  0  0  0  0  0  0  0  0
   -1.5459    3.6168    1.6187 C   0  0  0  0  0  0  0  0  0  0  0  0
   -2.2322    3.2832    2.6171 O   0  5  0  0  0  0  0  0  0  0  0  0
   -1.0473    4.7532    1.4355 O   0  0  0  0  0  0  0  0  0  0  0  0
    1.2934   -0.2745    0.3112 C   0  0  0  0  0  0  0  0  0  0  0  0
    2.2902    0.1628   -0.2463 O   0  0  0  0  0  0  0  0  0  0  0  0
    1.5754   -1.4917    0.8789 N   0  0  0  0  0  0  0  0  0  0  0  0
    2.5422   -1.7458    0.7077 H   0  0  0  0  0  0  0  0  0  0  0  0
    1.0565   -1.8247    2.1988 C   0  0  0  0  0  0  0  0  0  0  0  0
    0.1497   -1.2584    2.4311 H   0  0  0  0  0  0  0  0  0  0  0  0
    0.8200   -2.8918    2.2505 H   0  0  0  0  0  0  0  0  0  0  0  0
    1.8049   -1.5936    2.9627 H   0  0  0  0  0  0  0  0  0  0  0  0
  1  2  1  0  0  0  0
  2  3  1  0  0  0  0
  2  4  1  0  0  0  0
  2  5  1  0  0  0  0
  5  6  2  0  0  0  0
  5  7  1  0  0  0  0
  7  8  1  0  0  0  0
  7  9  1  0  0  0  0
  9 10  1  0  0  0  0
  9 11  1  0  0  0  0
  9 20  1  0  0  0  0
 11 12  1  0  0  0  0
 11 13  1  0  0  0  0
 11 14  1  0  0  0  0
 14 15  1  0  0  0  0
 14 16  1  0  0  0  0
 14 17  1  0  0  0  0
 17 18  1  0  0  0  0
 17 19  2  0  0  0  0
 20 21  2  0  0  0  0
 20 22  1  0  0  0  0
 22 23  1  0  0  0  0
 22 24  1  0  0  0  0
 24 25  1  0  0  0  0
 24 26  1  0  0  0  0
 24 27  1  0  0  0  0
M  CHG  1  18  -1
M  END
$$$$

  -OEChem-01062216073D

 27 26  0     1  0  0  0  0  0999 V2000
   -3.9746   -2.4489    1.1714 H   0  0  0  0  0  0  0  0  0  0  0  0
   -3.6456   -1.5169    0.7030 C   0  0  0  0  0  0  0  0  0  0  0  0
   -4.1027   -0.6776    1.2343 H   0  0  0  0  0  0  0  0  0  0  0  0
   -3.9835   -1.5064   -0.3363 H   0  0  0  0  0  0  0  0  0  0  0  0
   -2.1324   -1.4001    0.7594 C   0  0  0  0  0  0  0  0  0  0  0  0
   -1.5055   -2.3081    1.2755 O   0  0  0  0  0  0  0  0  0  0  0  0
   -1.5605   -0.2692    0.2081 N   0  0  0  0  0  0  0  0  0  0  0  0
   -2.2607    0.4023   -0.0978 H   0  0  0  0  0  0  0  0  0  0  0  0
   -0.1933    0.3155    0.2576 C   0  0  1  0  0  0  0  0  0  0  0  0
    0.0629    0.6161   -0.7626 H   0  0  0  0  0  0  0  0  0  0  0  0
   -0.3889    1.5899    1.1086 C   0  0  0  0  0  0  0  0  0  0  0  0
   -0.8397    1.3290    2.0727 H   0  0  0  0  0  0  0  0  0  0  0  0
    0.5811    2.0543    1.3179 H   0  0  0  0  0  0  0  0  0  0  0  0
   -1.2640    2.6311    0.3788 C   0  0  0  0  0  0  0  0  0  0  0  0
   -0.7853    2.9159   -0.5631 H   0  0  0  0  0  0  0  0  0  0  0  0
   -2.2467    2.2166    0.1403 H   0  0  0  0  0  0  0  0  0  0  0  0
   -1.4752    3.8772    1.2360 C   0  0  0  0  0  0  0  0  0  0  0  0
   -2.3107    3.7864    2.1701 O   0  5  0  0  0  0  0  0  0  0  0  0
   -0.8462    4.9199    0.9328 O   0  0  0  0  0  0  0  0  0  0  0  0
    1.0861   -0.4386    0.7351 C   0  0  0  0  0  0  0  0  0  0  0  0
    2.1676    0.1231    0.6014 O   0  0  0  0  0  0  0  0  0  0  0  0
    1.1356   -1.7444    1.1778 N   0  0  0  0  0  0  0  0  0  0  0  0
    0.2362   -2.2025    1.3273 H   0  0  0  0  0  0  0  0  0  0  0  0
    2.3459   -2.4145    1.6304 C   0  0  0  0  0  0  0  0  0  0  0  0
    2.7762   -1.8876    2.4881 H   0  0  0  0  0  0  0  0  0  0  0  0
    2.1147   -3.4401    1.9330 H   0  0  0  0  0  0  0  0  0  0  0  0
    3.0879   -2.4502    0.8264 H   0  0  0  0  0  0  0  0  0  0  0  0
  1  2  1  0  0  0  0
  2  3  1  0  0  0  0
  2  4  1  0  0  0  0
  2  5  1  0  0  0  0
  5  6  2  0  0  0  0
  5  7  1  0  0  0  0
  7  8  1  0  0  0  0
  7  9  1  0  0  0  0
  9 10  1  0  0  0  0
  9 11  1  0  0  0  0
  9 20  1  0  0  0  0
 11 12  1  0  0  0  0
 11 13  1  0  0  0  0
 11 14  1  0  0  0  0
 14 15  1  0  0  0  0
 14 16  1  0  0  0  0
 14 17  1  0  0  0  0
 17 18  1  0  0  0  0
 17 19  2  0  0  0  0
 20 21  2  0  0  0  0
 20 22  1  0  0  0  0
 22 23  1  0  0  0  0
 22 24  1  0  0  0  0
 24 25  1  0  0  0  0
 24 26  1  0  0  0  0
 24 27  1  0  0  0  0
M  CHG  1  18  -1
M  END
$$$$

  -OEChem-01062216073D

 27 26  0     1  0  0  0  0  0999 V2000
   -3.9627   -2.4228    1.1670 H   0  0  0  0  0  0  0  0  0  0  0  0
   -3.6304   -1.4892    0.7041 C   0  0  0  0  0  0  0  0  0  0  0  0
   -4.0913   -0.6514    1.2344 H   0  0  0  0  0  0  0  0  0  0  0  0
   -3.9604   -1.4754   -0.3376 H   0  0  0  0  0  0  0  0  0  0  0  0
   -2.1179   -1.3720    0.7721 C   0  0  0  0  0  0  0  0  0  0  0  0
   -1.4932   -2.2740    1.3015 O   0  0  0  0  0  0  0  0  0  0  0  0
   -1.5405   -0.2454    0.2178 N   0  0  0  0  0  0  0  0  0  0  0  0
   -2.2349    0.4326   -0.0871 H   0  0  0  0  0  0  0  0  0  0  0  0
   -0.1655    0.3203    0.2633 C   0  0  1  0  0  0  0  0  0  0  0  0
    0.0982    0.6052   -0.7592 H   0  0  0  0  0  0  0  0  0  0  0  0
   -0.3468    1.6136    1.0920 C   0  0  0  0  0  0  0  0  0  0  0  0
   -0.8064    1.3766    2.0581 H   0  0  0  0  0  0  0  0  0  0  0  0
    0.6260    2.0723    1.2987 H   0  0  0  0  0  0  0  0  0  0  0  0
   -1.2048    2.6519    0.3362 C   0  0  0  0  0  0  0  0  0  0  0  0
   -0.7178    2.9113   -0.6088 H   0  0  0  0  0  0  0  0  0  0  0  0
   -2.1913    2.2451    0.1005 H   0  0  0  0  0  0  0  0  0  0  0  0
   -1.4067    3.9193    1.1639 C   0  0  0  0  0  0  0  0  0  0  0  0
   -2.2588    3.8636    2.0855 O   0  5  0  0  0  0  0  0  0  0  0  0
   -0.7579    4.9453    0.8453 O   0  0  0  0  0  0  0  0  0  0  0  0
    1.0920   -0.4741    0.7376 C   0  0  0  0  0  0  0  0  0  0  0  0
    2.1641    0.1133    0.8270 O   0  0  0  0  0  0  0  0  0  0  0  0
    1.1425   -1.8461    0.8848 N   0  0  0  0  0  0  0  0  0  0  0  0
    0.2346   -2.3058    0.9632 H   0  0  0  0  0  0  0  0  0  0  0  0
    2.3170   -2.5678    1.3539 C   0  0  0  0  0  0  0  0  0  0  0  0
    2.5985   -2.2299    2.3562 H   0  0  0  0  0  0  0  0  0  0  0  0
    2.1046   -3.6402    1.3954 H   0  0  0  0  0  0  0  0  0  0  0  0
    3.1616   -2.4103    0.6755 H   0  0  0  0  0  0  0  0  0  0  0  0
  1  2  1  0  0  0  0
  2  3  1  0  0  0  0
  2  4  1  0  0  0  0
  2  5  1  0  0  0  0
  5  6  2  0  0  0  0
  5  7  1  0  0  0  0
  7  8  1  0  0  0  0
  7  9  1  0  0  0  0
  9 10  1  0  0  0  0
  9 11  1  0  0  0  0
  9 20  1  0  0  0  0
 11 12  1  0  0  0  0
 11 13  1  0  0  0  0
 11 14  1  0  0  0  0
 14 15  1  0  0  0  0
 14 16  1  0  0  0  0
 14 17  1  0  0  0  0
 17 18  1  0  0  0  0
 17 19  2  0  0  0  0
 20 21  2  0  0  0  0
 20 22  1  0  0  0  0
 22 23  1  0  0  0  0
 22 24  1  0  0  0  0
 24 25  1  0  0  0  0
 24 26  1  0  0  0  0
 24 27  1  0  0  0  0
M  CHG  1  18  -1
M  END
$$$$

  -OEChem-01062216073D

 27 26  0     1  0  0  0  0  0999 V2000
   -3.8436   -2.4735    1.2265 H   0  0  0  0  0  0  0  0  0  0  0  0
   -3.5514   -1.5248    0.7676 C   0  0  0  0  0  0  0  0  0  0  0  0
   -3.9978   -0.7065    1.3393 H   0  0  0  0  0  0  0  0  0  0  0  0
   -3.9354   -1.4949   -0.2551 H   0  0  0  0  0  0  0  0  0  0  0  0
   -2.0395   -1.3831    0.7596 C   0  0  0  0  0  0  0  0  0  0  0  0
   -1.3680   -2.2988    1.2021 O   0  0  0  0  0  0  0  0  0  0  0  0
   -1.5048   -0.2332    0.2109 N   0  0  0  0  0  0  0  0  0  0  0  0
   -2.2192    0.4477   -0.0367 H   0  0  0  0  0  0  0  0  0  0  0  0
   -0.1401    0.3540    0.2622 C   0  0  1  0  0  0  0  0  0  0  0  0
    0.1257    0.6463   -0.7574 H   0  0  0  0  0  0  0  0  0  0  0  0
   -0.3386    1.6445    1.0919 C   0  0  0  0  0  0  0  0  0  0  0  0
   -0.7950    1.4021    2.0581 H   0  0  0  0  0  0  0  0  0  0  0  0
    0.6269    2.1187    1.2976 H   0  0  0  0  0  0  0  0  0  0  0  0
   -1.2091    2.6688    0.3313 C   0  0  0  0  0  0  0  0  0  0  0  0
   -0.7227    2.9318   -0.6129 H   0  0  0  0  0  0  0  0  0  0  0  0
   -2.1890    2.2476    0.0934 H   0  0  0  0  0  0  0  0  0  0  0  0
   -1.4321    3.9359    1.1538 C   0  0  0  0  0  0  0  0  0  0  0  0
   -2.2845    3.8702    2.0746 O   0  5  0  0  0  0  0  0  0  0  0  0
   -0.8029    4.9719    0.8287 O   0  0  0  0  0  0  0  0  0  0  0  0
    1.1081   -0.4587    0.7286 C   0  0  0  0  0  0  0  0  0  0  0  0
    2.1287    0.1265    1.0727 O   0  0  0  0  0  0  0  0  0  0  0  0
    1.2156   -1.8251    0.5540 N   0  0  0  0  0  0  0  0  0  0  0  0
    0.3154   -2.3066    0.5249 H   0  0  0  0  0  0  0  0  0  0  0  0
    2.3717   -2.5931    0.9948 C   0  0  0  0  0  0  0  0  0  0  0  0
    2.5165   -2.4810    2.0741 H   0  0  0  0  0  0  0  0  0  0  0  0
    2.2229   -3.6535    0.7713 H   0  0  0  0  0  0  0  0  0  0  0  0
    3.2763   -2.2563    0.4783 H   0  0  0  0  0  0  0  0  0  0  0  0
  1  2  1  0  0  0  0
  2  3  1  0  0  0  0
  2  4  1  0  0  0  0
  2  5  1  0  0  0  0
  5  6  2  0  0  0  0
  5  7  1  0  0  0  0
  7  8  1  0  0  0  0
  7  9  1  0  0  0  0
  9 10  1  0  0  0  0
  9 11  1  0  0  0  0
  9 20  1  0  0  0  0
 11 12  1  0  0  0  0
 11 13  1  0  0  0  0
 11 14  1  0  0  0  0
 14 15  1  0  0  0  0
 14 16  1  0  0  0  0
 14 17  1  0  0  0  0
 17 18  1  0  0  0  0
 17 19  2  0  0  0  0
 20 21  2  0  0  0  0
 20 22  1  0  0  0  0
 22 23  1  0  0  0  0
 22 24  1  0  0  0  0
 24 25  1  0  0  0  0
 24 26  1  0  0  0  0
 24 27  1  0  0  0  0
M  CHG  1  18  -1
M  END
$$$$

  -OEChem-01062216073D

 27 26  0     1  0  0  0  0  0999 V2000
   -3.6896   -2.5338    1.2893 H   0  0  0  0  0  0  0  0  0  0  0  0
   -3.4485   -1.5601    0.8536 C   0  0  0  0  0  0  0  0  0  0  0  0
   -3.8432   -0.7768    1.5064 H   0  0  0  0  0  0  0  0  0  0  0  0
   -3.9286   -1.4827   -0.1249 H   0  0  0  0  0  0  0  0  0  0  0  0
   -1.9452   -1.4019    0.7102 C   0  0  0  0  0  0  0  0  0  0  0  0
   -1.2256   -2.3413    1.0041 O   0  0  0  0  0  0  0  0  0  0  0  0
   -1.4644   -0.2252    0.1694 N   0  0  0  0  0  0  0  0  0  0  0  0
   -2.2006    0.4588    0.0083 H   0  0  0  0  0  0  0  0  0  0  0  0
   -0.1152    0.3891    0.2523 C   0  0  1  0  0  0  0  0  0  0  0  0
    0.1711    0.6928   -0.7583 H   0  0  0  0  0  0  0  0  0  0  0  0
   -0.3421    1.6726    1.0837 C   0  0  0  0  0  0  0  0  0  0  0  0
   -0.8101    1.4216    2.0420 H   0  0  0  0  0  0  0  0  0  0  0  0
    0.6154    2.1567    1.3036 H   0  0  0  0  0  0  0  0  0  0  0  0
   -1.2130    2.6877    0.3127 C   0  0  0  0  0  0  0  0  0  0  0  0
   -0.7145    2.9629   -0.6218 H   0  0  0  0  0  0  0  0  0  0  0  0
   -2.1828    2.2546    0.0549 H   0  0  0  0  0  0  0  0  0  0  0  0
   -1.4637    3.9476    1.1378 C   0  0  0  0  0  0  0  0  0  0  0  0
   -2.3830    3.8900    1.9923 O   0  5  0  0  0  0  0  0  0  0  0  0
   -0.7805    4.9689    0.8834 O   0  0  0  0  0  0  0  0  0  0  0  0
    1.1117   -0.4423    0.7361 C   0  0  0  0  0  0  0  0  0  0  0  0
    2.0230    0.0786    1.3690 O   0  0  0  0  0  0  0  0  0  0  0  0
    1.3257   -1.7234    0.2626 N   0  0  0  0  0  0  0  0  0  0  0  0
    0.4532   -2.2181    0.0710 H   0  0  0  0  0  0  0  0  0  0  0  0
    2.4583   -2.5325    0.6906 C   0  0  0  0  0  0  0  0  0  0  0  0
    2.4243   -2.6947    1.7726 H   0  0  0  0  0  0  0  0  0  0  0  0
    2.4326   -3.5055    0.1914 H   0  0  0  0  0  0  0  0  0  0  0  0
    3.4019   -2.0397    0.4348 H   0  0  0  0  0  0  0  0  0  0  0  0
  1  2  1  0  0  0  0
  2  3  1  0  0  0  0
  2  4  1  0  0  0  0
  2  5  1  0  0  0  0
  5  6  2  0  0  0  0
  5  7  1  0  0  0  0
  7  8  1  0  0  0  0
  7  9  1  0  0  0  0
  9 10  1  0  0  0  0
  9 11  1  0  0  0  0
  9 20  1  0  0  0  0
 11 12  1  0  0  0  0
 11 13  1  0  0  0  0
 11 14  1  0  0  0  0
 14 15  1  0  0  0  0
 14 16  1  0  0  0  0
 14 17  1  0  0  0  0
 17 18  1  0  0  0  0
 17 19  2  0  0  0  0
 20 21  2  0  0  0  0
 20 22  1  0  0  0  0
 22 23  1  0  0  0  0
 22 24  1  0  0  0  0
 24 25  1  0  0  0  0
 24 26  1  0  0  0  0
 24 27  1  0  0  0  0
M  CHG  1  18  -1
M  END
$$$$

  -OEChem-01062216073D

 27 26  0     1  0  0  0  0  0999 V2000
   -3.5328   -2.5931    1.3349 H   0  0  0  0  0  0  0  0  0  0  0  0
   -3.3432   -1.5966    0.9266 C   0  0  0  0  0  0  0  0  0  0  0  0
   -3.6769   -0.8505    1.6531 H   0  0  0  0  0  0  0  0  0  0  0  0
   -3.9174   -1.4775    0.0044 H   0  0  0  0  0  0  0  0  0  0  0  0
   -1.8623   -1.4142    0.6459 C   0  0  0  0  0  0  0  0  0  0  0  0
   -1.1102   -2.3649    0.7844 O   0  0  0  0  0  0  0  0  0  0  0  0
   -1.4357   -0.2147    0.1110 N   0  0  0  0  0  0  0  0  0  0  0  0
   -2.1893    0.4646    0.0293 H   0  0  0  0  0  0  0  0  0  0  0  0
   -0.1025    0.4205    0.2385 C   0  0  1  0  0  0  0  0  0  0  0  0
    0.2132    0.7399   -0.7586 H   0  0  0  0  0  0  0  0  0  0  0  0
   -0.3499    1.6922    1.0789 C   0  0  0  0  0  0  0  0  0  0  0  0
   -0.8353    1.4297    2.0256 H   0  0  0  0  0  0  0  0  0  0  0  0
    0.6039    2.1739    1.3203 H   0  0  0  0  0  0  0  0  0  0  0  0
   -1.2101    2.7092    0.3002 C   0  0  0  0  0  0  0  0  0  0  0  0
   -0.6950    2.9950   -0.6220 H   0  0  0  0  0  0  0  0  0  0  0  0
   -2.1714    2.2712    0.0200 H   0  0  0  0  0  0  0  0  0  0  0  0
   -1.4844    3.9611    1.1295 C   0  0  0  0  0  0  0  0  0  0  0  0
   -2.4393    3.9025    1.9438 O   0  5  0  0  0  0  0  0  0  0  0  0
   -0.7797    4.9777    0.9176 O   0  0  0  0  0  0  0  0  0  0  0  0
    1.0941   -0.4320    0.7508 C   0  0  0  0  0  0  0  0  0  0  0  0
    1.8355   -0.0392    1.6447 O   0  0  0  0  0  0  0  0  0  0  0  0
    1.4736   -1.5568    0.0415 N   0  0  0  0  0  0  0  0  0  0  0  0
    0.6771   -2.0311   -0.3816 H   0  0  0  0  0  0  0  0  0  0  0  0
    2.5848   -2.3965    0.4669 C   0  0  0  0  0  0  0  0  0  0  0  0
    2.3918   -2.8101    1.4620 H   0  0  0  0  0  0  0  0  0  0  0  0
    2.7184   -3.2243   -0.2355 H   0  0  0  0  0  0  0  0  0  0  0  0
    3.5141   -1.8185    0.4978 H   0  0  0  0  0  0  0  0  0  0  0  0
  1  2  1  0  0  0  0
  2  3  1  0  0  0  0
  2  4  1  0  0  0  0
  2  5  1  0  0  0  0
  5  6  2  0  0  0  0
  5  7  1  0  0  0  0
  7  8  1  0  0  0  0
  7  9  1  0  0  0  0
  9 10  1  0  0  0  0
  9 11  1  0  0  0  0
  9 20  1  0  0  0  0
 11 12  1  0  0  0  0
 11 13  1  0  0  0  0
 11 14  1  0  0  0  0
 14 15  1  0  0  0  0
 14 16  1  0  0  0  0
 14 17  1  0  0  0  0
 17 18  1  0  0  0  0
 17 19  2  0  0  0  0
 20 21  2  0  0  0  0
 20 22  1  0  0  0  0
 22 23  1  0  0  0  0
 22 24  1  0  0  0  0
 24 25  1  0  0  0  0
 24 26  1  0  0  0  0
 24 27  1  0  0  0  0
M  CHG  1  18  -1
M  END
$$$$

  -OEChem-01062216073D

 27 26  0     1  0  0  0  0  0999 V2000
   -3.4117   -2.6383    1.3826 H   0  0  0  0  0  0  0  0  0  0  0  0
   -3.2633   -1.6380    0.9661 C   0  0  0  0  0  0  0  0  0  0  0  0
   -3.5873   -0.8993    1.7044 H   0  0  0  0  0  0  0  0  0  0  0  0
   -3.8757   -1.5346    0.0670 H   0  0  0  0  0  0  0  0  0  0  0  0
   -1.7993   -1.4196    0.6277 C   0  0  0  0  0  0  0  0  0  0  0  0
   -1.0221   -2.3575    0.7065 O   0  0  0  0  0  0  0  0  0  0  0  0
   -1.4187   -0.2087    0.0834 N   0  0  0  0  0  0  0  0  0  0  0  0
   -2.1868    0.4580    0.0429 H   0  0  0  0  0  0  0  0  0  0  0  0
   -0.0990    0.4464    0.2230 C   0  0  1  0  0  0  0  0  0  0  0  0
    0.2224    0.7755   -0.7690 H   0  0  0  0  0  0  0  0  0  0  0  0
   -0.3517    1.7104    1.0697 C   0  0  0  0  0  0  0  0  0  0  0  0
   -0.8366    1.4403    2.0144 H   0  0  0  0  0  0  0  0  0  0  0  0
    0.6028    2.1901    1.3141 H   0  0  0  0  0  0  0  0  0  0  0  0
   -1.2181    2.7253    0.2962 C   0  0  0  0  0  0  0  0  0  0  0  0
   -0.7061    3.0190   -0.6251 H   0  0  0  0  0  0  0  0  0  0  0  0
   -2.1763    2.2813    0.0140 H   0  0  0  0  0  0  0  0  0  0  0  0
   -1.4989    3.9719    1.1310 C   0  0  0  0  0  0  0  0  0  0  0  0
   -2.4935    3.9299    1.8973 O   0  5  0  0  0  0  0  0  0  0  0  0
   -0.7511    4.9677    0.9749 O   0  0  0  0  0  0  0  0  0  0  0  0
    1.0851   -0.4117    0.7475 C   0  0  0  0  0  0  0  0  0  0  0  0
    1.6295   -0.1848    1.8224 O   0  0  0  0  0  0  0  0  0  0  0  0
    1.6662   -1.3331   -0.1052 N   0  0  0  0  0  0  0  0  0  0  0  0
    1.0251   -1.6978   -0.8035 H   0  0  0  0  0  0  0  0  0  0  0  0
    2.7446   -2.2097    0.3298 C   0  0  0  0  0  0  0  0  0  0  0  0
    2.4147   -2.8341    1.1665 H   0  0  0  0  0  0  0  0  0  0  0  0
    3.0518   -2.8622   -0.4926 H   0  0  0  0  0  0  0  0  0  0  0  0
    3.6133   -1.6232    0.6461 H   0  0  0  0  0  0  0  0  0  0  0  0
  1  2  1  0  0  0  0
  2  3  1  0  0  0  0
  2  4  1  0  0  0  0
  2  5  1  0  0  0  0
  5  6  2  0  0  0  0
  5  7  1  0  0  0  0
  7  8  1  0  0  0  0
  7  9  1  0  0  0  0
  9 10  1  0  0  0  0
  9 11  1  0  0  0  0
  9 20  1  0  0  0  0
 11 12  1  0  0  0  0
 11 13  1  0  0  0  0
 11 14  1  0  0  0  0
 14 15  1  0  0  0  0
 14 16  1  0  0  0  0
 14 17  1  0  0  0  0
 17 18  1  0  0  0  0
 17 19  2  0  0  0  0
 20 21  2  0  0  0  0
 20 22  1  0  0  0  0
 22 23  1  0  0  0  0
 22 24  1  0  0  0  0
 24 25  1  0  0  0  0
 24 26  1  0  0  0  0
 24 27  1  0  0  0  0
M  CHG  1  18  -1
M  END
$$$$

  -OEChem-01062216073D

 27 26  0     1  0  0  0  0  0999 V2000
   -3.3508   -2.6504    1.4206 H   0  0  0  0  0  0  0  0  0  0  0  0
   -3.2225   -1.6471    1.0050 C   0  0  0  0  0  0  0  0  0  0  0  0
   -3.5093   -0.9138    1.7637 H   0  0  0  0  0  0  0  0  0  0  0  0
   -3.8772   -1.5361    0.1372 H   0  0  0  0  0  0  0  0  0  0  0  0
   -1.7765   -1.4263    0.5984 C   0  0  0  0  0  0  0  0  0  0  0  0
   -0.9993   -2.3679    0.6139 O   0  0  0  0  0  0  0  0  0  0  0  0
   -1.4193   -0.2106    0.0492 N   0  0  0  0  0  0  0  0  0  0  0  0
   -2.1924    0.4510    0.0400 H   0  0  0  0  0  0  0  0  0  0  0  0
   -0.1061    0.4509    0.2044 C   0  0  1  0  0  0  0  0  0  0  0  0
    0.2204    0.7891   -0.7824 H   0  0  0  0  0  0  0  0  0  0  0  0
   -0.3593    1.7074    1.0596 C   0  0  0  0  0  0  0  0  0  0  0  0
   -0.8489    1.4306    2.0000 H   0  0  0  0  0  0  0  0  0  0  0  0
    0.5968    2.1795    1.3123 H   0  0  0  0  0  0  0  0  0  0  0  0
   -1.2220    2.7288    0.2914 C   0  0  0  0  0  0  0  0  0  0  0  0
   -0.7059    3.0311   -0.6247 H   0  0  0  0  0  0  0  0  0  0  0  0
   -2.1785    2.2862    0.0006 H   0  0  0  0  0  0  0  0  0  0  0  0
   -1.5039    3.9696    1.1344 C   0  0  0  0  0  0  0  0  0  0  0  0
   -2.5622    3.9705    1.8110 O   0  5  0  0  0  0  0  0  0  0  0  0
   -0.6828    4.9172    1.0792 O   0  0  0  0  0  0  0  0  0  0  0  0
    1.0712   -0.4059    0.7424 C   0  0  0  0  0  0  0  0  0  0  0  0
    1.4105   -0.3703    1.9203 O   0  0  0  0  0  0  0  0  0  0  0  0
    1.8696   -1.0903   -0.1574 N   0  0  0  0  0  0  0  0  0  0  0  0
    1.4373   -1.2795   -1.0553 H   0  0  0  0  0  0  0  0  0  0  0  0
    2.9496   -1.9659    0.2751 C   0  0  0  0  0  0  0  0  0  0  0  0
    2.5583   -2.7721    0.9042 H   0  0  0  0  0  0  0  0  0  0  0  0
    3.4431   -2.4106   -0.5939 H   0  0  0  0  0  0  0  0  0  0  0  0
    3.6963   -1.4025    0.8442 H   0  0  0  0  0  0  0  0  0  0  0  0
  1  2  1  0  0  0  0
  2  3  1  0  0  0  0
  2  4  1  0  0  0  0
  2  5  1  0  0  0  0
  5  6  2  0  0  0  0
  5  7  1  0  0  0  0
  7  8  1  0  0  0  0
  7  9  1  0  0  0  0
  9 10  1  0  0  0  0
  9 11  1  0  0  0  0
  9 20  1  0  0  0  0
 11 12  1  0  0  0  0
 11 13  1  0  0  0  0
 11 14  1  0  0  0  0
 14 15  1  0  0  0  0
 14 16  1  0  0  0  0
 14 17  1  0  0  0  0
 17 18  1  0  0  0  0
 17 19  2  0  0  0  0
 20 21  2  0  0  0  0
 20 22  1  0  0  0  0
 22 23  1  0  0  0  0
 22 24  1  0  0  0  0
 24 25  1  0  0  0  0
 24 26  1  0  0  0  0
 24 27  1  0  0  0  0
M  CHG  1  18  -1
M  END
$$$$

  -OEChem-01062216073D

 27 26  0     1  0  0  0  0  0999 V2000
   -3.4083   -2.6166    1.2486 H   0  0  0  0  0  0  0  0  0  0  0  0
   -3.2598   -1.6121    0.8428 C   0  0  0  0  0  0  0  0  0  0  0  0
   -3.5413   -0.8813    1.6057 H   0  0  0  0  0  0  0  0  0  0  0  0
   -3.9046   -1.4825   -0.0299 H   0  0  0  0  0  0  0  0  0  0  0  0
   -1.8066   -1.4133    0.4511 C   0  0  0  0  0  0  0  0  0  0  0  0
   -1.0599   -2.3787    0.4055 O   0  0  0  0  0  0  0  0  0  0  0  0
   -1.4119   -0.1881   -0.0488 N   0  0  0  0  0  0  0  0  0  0  0  0
   -2.1729    0.4873   -0.0506 H   0  0  0  0  0  0  0  0  0  0  0  0
   -0.1000    0.4426    0.2057 C   0  0  1  0  0  0  0  0  0  0  0  0
    0.2857    0.8017   -0.7516 H   0  0  0  0  0  0  0  0  0  0  0  0
   -0.3666    1.6781    1.0847 C   0  0  0  0  0  0  0  0  0  0  0  0
   -0.9167    1.3854    1.9861 H   0  0  0  0  0  0  0  0  0  0  0  0
    0.5857    2.1131    1.4073 H   0  0  0  0  0  0  0  0  0  0  0  0
   -1.1589    2.7463    0.3059 C   0  0  0  0  0  0  0  0  0  0  0  0
   -0.5866    3.0630   -0.5711 H   0  0  0  0  0  0  0  0  0  0  0  0
   -2.1097    2.3401   -0.0492 H   0  0  0  0  0  0  0  0  0  0  0  0
   -1.4506    3.9658    1.1761 C   0  0  0  0  0  0  0  0  0  0  0  0
   -0.5984    4.8871    1.1979 O   0  5  0  0  0  0  0  0  0  0  0  0
   -2.5416    3.9776    1.7979 O   0  0  0  0  0  0  0  0  0  0  0  0
    1.0300   -0.4451    0.7903 C   0  0  0  0  0  0  0  0  0  0  0  0
    1.1334   -0.6324    1.9979 O   0  0  0  0  0  0  0  0  0  0  0  0
    2.0590   -0.8668   -0.0338 N   0  0  0  0  0  0  0  0  0  0  0  0
    1.8812   -0.8189   -1.0305 H   0  0  0  0  0  0  0  0  0  0  0  0
    3.1434   -1.7169    0.4366 C   0  0  0  0  0  0  0  0  0  0  0  0
    2.7479   -2.6622    0.8227 H   0  0  0  0  0  0  0  0  0  0  0  0
    3.8313   -1.9371   -0.3850 H   0  0  0  0  0  0  0  0  0  0  0  0
    3.7054   -1.2163    1.2319 H   0  0  0  0  0  0  0  0  0  0  0  0
  1  2  1  0  0  0  0
  2  3  1  0  0  0  0
  2  4  1  0  0  0  0
  2  5  1  0  0  0  0
  5  6  2  0  0  0  0
  5  7  1  0  0  0  0
  7  8  1  0  0  0  0
  7  9  1  0  0  0  0
  9 10  1  0  0  0  0
  9 11  1  0  0  0  0
  9 20  1  0  0  0  0
 11 12  1  0  0  0  0
 11 13  1  0  0  0  0
 11 14  1  0  0  0  0
 14 15  1  0  0  0  0
 14 16  1  0  0  0  0
 14 17  1  0  0  0  0
 17 18  1  0  0  0  0
 17 19  2  0  0  0  0
 20 21  2  0  0  0  0
 20 22  1  0  0  0  0
 22 23  1  0  0  0  0
 22 24  1  0  0  0  0
 24 25  1  0  0  0  0
 24 26  1  0  0  0  0
 24 27  1  0  0  0  0
M  CHG  1  18  -1
M  END
$$$$

  -OEChem-01062216073D

 27 26  0     1  0  0  0  0  0999 V2000
   -3.4058   -2.6266    1.2473 H   0  0  0  0  0  0  0  0  0  0  0  0
   -3.2441   -1.5996    0.9085 C   0  0  0  0  0  0  0  0  0  0  0  0
   -3.4305   -0.9205    1.7449 H   0  0  0  0  0  0  0  0  0  0  0  0
   -3.9494   -1.3759    0.1046 H   0  0  0  0  0  0  0  0  0  0  0  0
   -1.8189   -1.4272    0.4150 C   0  0  0  0  0  0  0  0  0  0  0  0
   -1.1067   -2.4092    0.2711 O   0  0  0  0  0  0  0  0  0  0  0  0
   -1.4290   -0.2046   -0.0932 N   0  0  0  0  0  0  0  0  0  0  0  0
   -2.1859    0.4743   -0.0610 H   0  0  0  0  0  0  0  0  0  0  0  0
   -0.1157    0.4185    0.1691 C   0  0  1  0  0  0  0  0  0  0  0  0
    0.2712    0.7733   -0.7894 H   0  0  0  0  0  0  0  0  0  0  0  0
   -0.3703    1.6519    1.0523 C   0  0  0  0  0  0  0  0  0  0  0  0
   -0.9237    1.3608    1.9523 H   0  0  0  0  0  0  0  0  0  0  0  0
    0.5865    2.0757    1.3772 H   0  0  0  0  0  0  0  0  0  0  0  0
   -1.1515    2.7307    0.2785 C   0  0  0  0  0  0  0  0  0  0  0  0
   -0.5763    3.0464   -0.5970 H   0  0  0  0  0  0  0  0  0  0  0  0
   -2.1063    2.3348   -0.0783 H   0  0  0  0  0  0  0  0  0  0  0  0
   -1.4293    3.9475    1.1567 C   0  0  0  0  0  0  0  0  0  0  0  0
   -0.5566    4.8487    1.2010 O   0  5  0  0  0  0  0  0  0  0  0  0
   -2.5255    3.9740    1.7685 O   0  0  0  0  0  0  0  0  0  0  0  0
    1.0107   -0.4659    0.7649 C   0  0  0  0  0  0  0  0  0  0  0  0
    0.9776   -0.8287    1.9361 O   0  0  0  0  0  0  0  0  0  0  0  0
    2.1906   -0.6367    0.0610 N   0  0  0  0  0  0  0  0  0  0  0  0
    2.1913   -0.3573   -0.9134 H   0  0  0  0  0  0  0  0  0  0  0  0
    3.3236   -1.3916    0.5770 C   0  0  0  0  0  0  0  0  0  0  0  0
    3.0322   -2.4278    0.7774 H   0  0  0  0  0  0  0  0  0  0  0  0
    4.1376   -1.3944   -0.1538 H   0  0  0  0  0  0  0  0  0  0  0  0
    3.6934   -0.9413    1.5040 H   0  0  0  0  0  0  0  0  0  0  0  0
  1  2  1  0  0  0  0
  2  3  1  0  0  0  0
  2  4  1  0  0  0  0
  2  5  1  0  0  0  0
  5  6  2  0  0  0  0
  5  7  1  0  0  0  0
  7  8  1  0  0  0  0
  7  9  1  0  0  0  0
  9 10  1  0  0  0  0
  9 11  1  0  0  0  0
  9 20  1  0  0  0  0
 11 12  1  0  0  0  0
 11 13  1  0  0  0  0
 11 14  1  0  0  0  0
 14 15  1  0  0  0  0
 14 16  1  0  0  0  0
 14 17  1  0  0  0  0
 17 18  1  0  0  0  0
 17 19  2  0  0  0  0
 20 21  2  0  0  0  0
 20 22  1  0  0  0  0
 22 23  1  0  0  0  0
 22 24  1  0  0  0  0
 24 25  1  0  0  0  0
 24 26  1  0  0  0  0
 24 27  1  0  0  0  0
M  CHG  1  18  -1
M  END
$$$$

  -OEChem-01062216073D

 27 26  0     1  0  0  0  0  0999 V2000
   -3.4028   -2.6035    1.3125 H   0  0  0  0  0  0  0  0  0  0  0  0
   -3.2398   -1.5814    0.9599 C   0  0  0  0  0  0  0  0  0  0  0  0
   -3.3465   -0.8975    1.8061 H   0  0  0  0  0  0  0  0  0  0  0  0
   -3.9950   -1.3395    0.2084 H   0  0  0  0  0  0  0  0  0  0  0  0
   -1.8499   -1.4463    0.3650 C   0  0  0  0  0  0  0  0  0  0  0  0
   -1.1967   -2.4482    0.1158 O   0  0  0  0  0  0  0  0  0  0  0  0
   -1.4508   -0.2267   -0.1413 N   0  0  0  0  0  0  0  0  0  0  0  0
   -2.1954    0.4629   -0.0735 H   0  0  0  0  0  0  0  0  0  0  0  0
   -0.1287    0.3755    0.1254 C   0  0  1  0  0  0  0  0  0  0  0  0
    0.2581    0.7256   -0.8348 H   0  0  0  0  0  0  0  0  0  0  0  0
   -0.3612    1.6048    1.0187 C   0  0  0  0  0  0  0  0  0  0  0  0
   -0.9174    1.3139    1.9169 H   0  0  0  0  0  0  0  0  0  0  0  0
    0.6023    2.0111    1.3459 H   0  0  0  0  0  0  0  0  0  0  0  0
   -1.1258    2.7036    0.2581 C   0  0  0  0  0  0  0  0  0  0  0  0
   -0.5480    3.0191   -0.6159 H   0  0  0  0  0  0  0  0  0  0  0  0
   -2.0886    2.3279   -0.0991 H   0  0  0  0  0  0  0  0  0  0  0  0
   -1.3783    3.9139    1.1521 C   0  0  0  0  0  0  0  0  0  0  0  0
   -0.4888    4.7984    1.2007 O   0  5  0  0  0  0  0  0  0  0  0  0
   -2.4651    3.9479    1.7797 O   0  0  0  0  0  0  0  0  0  0  0  0
    0.9968   -0.5118    0.7188 C   0  0  0  0  0  0  0  0  0  0  0  0
    0.8705   -1.0514    1.8127 O   0  0  0  0  0  0  0  0  0  0  0  0
    2.2708   -0.4369    0.1811 N   0  0  0  0  0  0  0  0  0  0  0  0
    2.3963    0.1436   -0.6406 H   0  0  0  0  0  0  0  0  0  0  0  0
    3.4414   -1.0387    0.8040 C   0  0  0  0  0  0  0  0  0  0  0  0
    3.2953   -2.1162    0.9319 H   0  0  0  0  0  0  0  0  0  0  0  0
    4.3232   -0.8819    0.1761 H   0  0  0  0  0  0  0  0  0  0  0  0
    3.6281   -0.5870    1.7836 H   0  0  0  0  0  0  0  0  0  0  0  0
  1  2  1  0  0  0  0
  2  3  1  0  0  0  0
  2  4  1  0  0  0  0
  2  5  1  0  0  0  0
  5  6  2  0  0  0  0
  5  7  1  0  0  0  0
  7  8  1  0  0  0  0
  7  9  1  0  0  0  0
  9 10  1  0  0  0  0
  9 11  1  0  0  0  0
  9 20  1  0  0  0  0
 11 12  1  0  0  0  0
 11 13  1  0  0  0  0
 11 14  1  0  0  0  0
 14 15  1  0  0  0  0
 14 16  1  0  0  0  0
 14 17  1  0  0  0  0
 17 18  1  0  0  0  0
 17 19  2  0  0  0  0
 20 21  2  0  0  0  0
 20 22  1  0  0  0  0
 22 23  1  0  0  0  0
 22 24  1  0  0  0  0
 24 25  1  0  0  0  0
 24 26  1  0  0  0  0
 24 27  1  0  0  0  0
M  CHG  1  18  -1
M  END
$$$$

  -OEChem-01062216073D

 27 26  0     1  0  0  0  0  0999 V2000
   -3.3703   -2.5863    1.3980 H   0  0  0  0  0  0  0  0  0  0  0  0
   -3.2184   -1.5731    1.0158 C   0  0  0  0  0  0  0  0  0  0  0  0
   -3.2744   -0.8713    1.8523 H   0  0  0  0  0  0  0  0  0  0  0  0
   -4.0101   -1.3396    0.3000 H   0  0  0  0  0  0  0  0  0  0  0  0
   -1.8615   -1.4650    0.3446 C   0  0  0  0  0  0  0  0  0  0  0  0
   -1.2695   -2.4800    0.0100 O   0  0  0  0  0  0  0  0  0  0  0  0
   -1.4542   -0.2505   -0.1663 N   0  0  0  0  0  0  0  0  0  0  0  0
   -2.1903    0.4461   -0.0800 H   0  0  0  0  0  0  0  0  0  0  0  0
   -0.1261    0.3423    0.0961 C   0  0  1  0  0  0  0  0  0  0  0  0
    0.2567    0.6814   -0.8696 H   0  0  0  0  0  0  0  0  0  0  0  0
   -0.3458    1.5771    0.9853 C   0  0  0  0  0  0  0  0  0  0  0  0
   -0.9018    1.2930    1.8859 H   0  0  0  0  0  0  0  0  0  0  0  0
    0.6212    1.9780    1.3092 H   0  0  0  0  0  0  0  0  0  0  0  0
   -1.1019    2.6815    0.2252 C   0  0  0  0  0  0  0  0  0  0  0  0
   -0.5242    2.9907   -0.6508 H   0  0  0  0  0  0  0  0  0  0  0  0
   -2.0697    2.3152   -0.1283 H   0  0  0  0  0  0  0  0  0  0  0  0
   -1.3370    3.8932    1.1218 C   0  0  0  0  0  0  0  0  0  0  0  0
   -0.4190    4.7461    1.1971 O   0  5  0  0  0  0  0  0  0  0  0  0
   -2.4320    3.9549    1.7325 O   0  0  0  0  0  0  0  0  0  0  0  0
    1.0113   -0.5303    0.6905 C   0  0  0  0  0  0  0  0  0  0  0  0
    0.8362   -1.2383    1.6757 O   0  0  0  0  0  0  0  0  0  0  0  0
    2.3202   -0.2203    0.3593 N   0  0  0  0  0  0  0  0  0  0  0  0
    2.4584    0.5521   -0.2839 H   0  0  0  0  0  0  0  0  0  0  0  0
    3.4729   -0.7323    1.0883 C   0  0  0  0  0  0  0  0  0  0  0  0
    3.4648   -1.8271    1.0981 H   0  0  0  0  0  0  0  0  0  0  0  0
    4.3985   -0.3993    0.6096 H   0  0  0  0  0  0  0  0  0  0  0  0
    3.4646   -0.3683    2.1208 H   0  0  0  0  0  0  0  0  0  0  0  0
  1  2  1  0  0  0  0
  2  3  1  0  0  0  0
  2  4  1  0  0  0  0
  2  5  1  0  0  0  0
  5  6  2  0  0  0  0
  5  7  1  0  0  0  0
  7  8  1  0  0  0  0
  7  9  1  0  0  0  0
  9 10  1  0  0  0  0
  9 11  1  0  0  0  0
  9 20  1  0  0  0  0
 11 12  1  0  0  0  0
 11 13  1  0  0  0  0
 11 14  1  0  0  0  0
 14 15  1  0  0  0  0
 14 16  1  0  0  0  0
 14 17  1  0  0  0  0
 17 18  1  0  0  0  0
 17 19  2  0  0  0  0
 20 21  2  0  0  0  0
 20 22  1  0  0  0  0
 22 23  1  0  0  0  0
 22 24  1  0  0  0  0
 24 25  1  0  0  0  0
 24 26  1  0  0  0  0
 24 27  1  0  0  0  0
M  CHG  1  18  -1
M  END
$$$$

  -OEChem-01062216073D

 27 26  0     1  0  0  0  0  0999 V2000
   -3.5176   -2.8855    1.0438 H   0  0  0  0  0  0  0  0  0  0  0  0
   -3.2769   -1.9832    0.4749 C   0  0  0  0  0  0  0  0  0  0  0  0
   -4.1288   -1.3000    0.5178 H   0  0  0  0  0  0  0  0  0  0  0  0
   -3.0940   -2.2638   -0.5651 H   0  0  0  0  0  0  0  0  0  0  0  0
   -2.0445   -1.3106    1.0544 C   0  0  0  0  0  0  0  0  0  0  0  0
   -1.6491   -1.6647    2.1521 O   0  0  0  0  0  0  0  0  0  0  0  0
   -1.5672   -0.1724    0.4324 N   0  0  0  0  0  0  0  0  0  0  0  0
   -2.1426    0.1489   -0.3384 H   0  0  0  0  0  0  0  0  0  0  0  0
   -0.2003    0.3971    0.4783 C   0  0  1  0  0  0  0  0  0  0  0  0
    0.0659    0.6064   -0.5609 H   0  0  0  0  0  0  0  0  0  0  0  0
   -0.2736    1.7497    1.2104 C   0  0  0  0  0  0  0  0  0  0  0  0
   -0.7449    1.6103    2.1897 H   0  0  0  0  0  0  0  0  0  0  0  0
    0.7318    2.1456    1.3851 H   0  0  0  0  0  0  0  0  0  0  0  0
   -1.0690    2.7831    0.3893 C   0  0  0  0  0  0  0  0  0  0  0  0
   -0.5785    2.9438   -0.5748 H   0  0  0  0  0  0  0  0  0  0  0  0
   -2.0796    2.4123    0.1947 H   0  0  0  0  0  0  0  0  0  0  0  0
   -1.1667    4.1232    1.1172 C   0  0  0  0  0  0  0  0  0  0  0  0
   -0.0874    4.7096    1.3834 O   0  5  0  0  0  0  0  0  0  0  0  0
   -2.3106    4.5827    1.3524 O   0  0  0  0  0  0  0  0  0  0  0  0
    1.0211   -0.4224    0.9842 C   0  0  0  0  0  0  0  0  0  0  0  0
    0.9952   -1.6358    1.1434 O   0  0  0  0  0  0  0  0  0  0  0  0
    2.2748    0.0929    0.6923 N   0  0  0  0  0  0  0  0  0  0  0  0
    2.3207    1.0991    0.5547 H   0  0  0  0  0  0  0  0  0  0  0  0
    3.5198   -0.6277    0.9260 C   0  0  0  0  0  0  0  0  0  0  0  0
    3.5811   -1.5072    0.2770 H   0  0  0  0  0  0  0  0  0  0  0  0
    4.3742    0.0206    0.7105 H   0  0  0  0  0  0  0  0  0  0  0  0
    3.5849   -0.9514    1.9699 H   0  0  0  0  0  0  0  0  0  0  0  0
  1  2  1  0  0  0  0
  2  3  1  0  0  0  0
  2  4  1  0  0  0  0
  2  5  1  0  0  0  0
  5  6  2  0  0  0  0
  5  7  1  0  0  0  0
  7  8  1  0  0  0  0
  7  9  1  0  0  0  0
  9 10  1  0  0  0  0
  9 11  1  0  0  0  0
  9 20  1  0  0  0  0
 11 12  1  0  0  0  0
 11 13  1  0  0  0  0
 11 14  1  0  0  0  0
 14 15  1  0  0  0  0
 14 16  1  0  0  0  0
 14 17  1  0  0  0  0
 17 18  1  0  0  0  0
 17 19  2  0  0  0  0
 20 21  2  0  0  0  0
 20 22  1  0  0  0  0
 22 23  1  0  0  0  0
 22 24  1  0  0  0  0
 24 25  1  0  0  0  0
 24 26  1  0  0  0  0
 24 27  1  0  0  0  0
M  CHG  1  18  -1
M  END
$$$$

  -OEChem-01062216073D

 27 26  0     1  0  0  0  0  0999 V2000
   -3.3897   -2.8864    1.1653 H   0  0  0  0  0  0  0  0  0  0  0  0
   -3.2138   -1.9889    0.5657 C   0  0  0  0  0  0  0  0  0  0  0  0
   -4.0589   -1.3076    0.6929 H   0  0  0  0  0  0  0  0  0  0  0  0
   -3.1410   -2.2780   -0.4856 H   0  0  0  0  0  0  0  0  0  0  0  0
   -1.9293   -1.3081    1.0052 C   0  0  0  0  0  0  0  0  0  0  0  0
   -1.3535   -1.7122    2.0037 O   0  0  0  0  0  0  0  0  0  0  0  0
   -1.5341   -0.1528    0.3563 N   0  0  0  0  0  0  0  0  0  0  0  0
   -2.1519    0.1630   -0.3826 H   0  0  0  0  0  0  0  0  0  0  0  0
   -0.1805    0.4412    0.3896 C   0  0  1  0  0  0  0  0  0  0  0  0
   -0.0114    0.9102   -0.5831 H   0  0  0  0  0  0  0  0  0  0  0  0
   -0.1658    1.5620    1.4476 C   0  0  0  0  0  0  0  0  0  0  0  0
   -0.5077    1.1636    2.4093 H   0  0  0  0  0  0  0  0  0  0  0  0
    0.8505    1.9400    1.5927 H   0  0  0  0  0  0  0  0  0  0  0  0
   -1.0613    2.7416    1.0232 C   0  0  0  0  0  0  0  0  0  0  0  0
   -0.6976    3.1590    0.0801 H   0  0  0  0  0  0  0  0  0  0  0  0
   -2.0871    2.3952    0.8656 H   0  0  0  0  0  0  0  0  0  0  0  0
   -1.0699    3.8487    2.0776 C   0  0  0  0  0  0  0  0  0  0  0  0
    0.0398    4.3464    2.3963 O   0  5  0  0  0  0  0  0  0  0  0  0
   -2.1814    4.2345    2.5155 O   0  0  0  0  0  0  0  0  0  0  0  0
    1.0345   -0.5134    0.5541 C   0  0  0  0  0  0  0  0  0  0  0  0
    0.9750   -1.6801    0.1770 O   0  0  0  0  0  0  0  0  0  0  0  0
    2.3044    0.0391    0.5922 N   0  0  0  0  0  0  0  0  0  0  0  0
    2.3600    1.0092    0.8922 H   0  0  0  0  0  0  0  0  0  0  0  0
    3.5276   -0.7514    0.5750 C   0  0  0  0  0  0  0  0  0  0  0  0
    3.6336   -1.2729   -0.3817 H   0  0  0  0  0  0  0  0  0  0  0  0
    4.3963   -0.1005    0.7121 H   0  0  0  0  0  0  0  0  0  0  0  0
    3.5172   -1.4902    1.3829 H   0  0  0  0  0  0  0  0  0  0  0  0
  1  2  1  0  0  0  0
  2  3  1  0  0  0  0
  2  4  1  0  0  0  0
  2  5  1  0  0  0  0
  5  6  2  0  0  0  0
  5  7  1  0  0  0  0
  7  8  1  0  0  0  0
  7  9  1  0  0  0  0
  9 10  1  0  0  0  0
  9 11  1  0  0  0  0
  9 20  1  0  0  0  0
 11 12  1  0  0  0  0
 11 13  1  0  0  0  0
 11 14  1  0  0  0  0
 14 15  1  0  0  0  0
 14 16  1  0  0  0  0
 14 17  1  0  0  0  0
 17 18  1  0  0  0  0
 17 19  2  0  0  0  0
 20 21  2  0  0  0  0
 20 22  1  0  0  0  0
 22 23  1  0  0  0  0
 22 24  1  0  0  0  0
 24 25  1  0  0  0  0
 24 26  1  0  0  0  0
 24 27  1  0  0  0  0
M  CHG  1  18  -1
M  END
$$$$

  -OEChem-01062216073D

 27 26  0     1  0  0  0  0  0999 V2000
   -3.3727   -2.8581    1.1889 H   0  0  0  0  0  0  0  0  0  0  0  0
   -3.2057   -1.9591    0.5891 C   0  0  0  0  0  0  0  0  0  0  0  0
   -4.0306   -1.2629    0.7597 H   0  0  0  0  0  0  0  0  0  0  0  0
   -3.1857   -2.2398   -0.4667 H   0  0  0  0  0  0  0  0  0  0  0  0
   -1.8901   -1.3068    0.9762 C   0  0  0  0  0  0  0  0  0  0  0  0
   -1.2662   -1.7471    1.9298 O   0  0  0  0  0  0  0  0  0  0  0  0
   -1.5085   -0.1453    0.3300 N   0  0  0  0  0  0  0  0  0  0  0  0
   -2.1499    0.1957   -0.3772 H   0  0  0  0  0  0  0  0  0  0  0  0
   -0.1640    0.4679    0.3668 C   0  0  1  0  0  0  0  0  0  0  0  0
    0.0123    0.9447   -0.6009 H   0  0  0  0  0  0  0  0  0  0  0  0
   -0.1796    1.5804    1.4354 C   0  0  0  0  0  0  0  0  0  0  0  0
   -0.5141    1.1663    2.3930 H   0  0  0  0  0  0  0  0  0  0  0  0
    0.8259    1.9838    1.5832 H   0  0  0  0  0  0  0  0  0  0  0  0
   -1.0968    2.7465    1.0196 C   0  0  0  0  0  0  0  0  0  0  0  0
   -0.7365    3.1817    0.0833 H   0  0  0  0  0  0  0  0  0  0  0  0
   -2.1145    2.3821    0.8522 H   0  0  0  0  0  0  0  0  0  0  0  0
   -1.1327    3.8414    2.0868 C   0  0  0  0  0  0  0  0  0  0  0  0
   -0.0330    4.3324    2.4475 O   0  5  0  0  0  0  0  0  0  0  0  0
   -2.2564    4.2189    2.5001 O   0  0  0  0  0  0  0  0  0  0  0  0
    1.0413   -0.4985    0.5349 C   0  0  0  0  0  0  0  0  0  0  0  0
    1.0320   -1.5881   -0.0319 O   0  0  0  0  0  0  0  0  0  0  0  0
    2.2838   -0.0012    0.8921 N   0  0  0  0  0  0  0  0  0  0  0  0
    2.2881    0.9023    1.3584 H   0  0  0  0  0  0  0  0  0  0  0  0
    3.4931   -0.8111    0.9339 C   0  0  0  0  0  0  0  0  0  0  0  0
    3.7415   -1.1813   -0.0659 H   0  0  0  0  0  0  0  0  0  0  0  0
    4.3329   -0.2122    1.2984 H   0  0  0  0  0  0  0  0  0  0  0  0
    3.3580   -1.6650    1.6057 H   0  0  0  0  0  0  0  0  0  0  0  0
  1  2  1  0  0  0  0
  2  3  1  0  0  0  0
  2  4  1  0  0  0  0
  2  5  1  0  0  0  0
  5  6  2  0  0  0  0
  5  7  1  0  0  0  0
  7  8  1  0  0  0  0
  7  9  1  0  0  0  0
  9 10  1  0  0  0  0
  9 11  1  0  0  0  0
  9 20  1  0  0  0  0
 11 12  1  0  0  0  0
 11 13  1  0  0  0  0
 11 14  1  0  0  0  0
 14 15  1  0  0  0  0
 14 16  1  0  0  0  0
 14 17  1  0  0  0  0
 17 18  1  0  0  0  0
 17 19  2  0  0  0  0
 20 21  2  0  0  0  0
 20 22  1  0  0  0  0
 22 23  1  0  0  0  0
 22 24  1  0  0  0  0
 24 25  1  0  0  0  0
 24 26  1  0  0  0  0
 24 27  1  0  0  0  0
M  CHG  1  18  -1
M  END
$$$$

  -OEChem-01062216073D

 27 26  0     1  0  0  0  0  0999 V2000
   -3.3570   -2.8436    1.1954 H   0  0  0  0  0  0  0  0  0  0  0  0
   -3.1989   -1.9360    0.6060 C   0  0  0  0  0  0  0  0  0  0  0  0
   -4.0057   -1.2308    0.8210 H   0  0  0  0  0  0  0  0  0  0  0  0
   -3.2240   -2.1968   -0.4549 H   0  0  0  0  0  0  0  0  0  0  0  0
   -1.8594   -1.3105    0.9531 C   0  0  0  0  0  0  0  0  0  0  0  0
   -1.1967   -1.7906    1.8601 O   0  0  0  0  0  0  0  0  0  0  0  0
   -1.4867   -0.1429    0.3131 N   0  0  0  0  0  0  0  0  0  0  0  0
   -2.1569    0.2347   -0.3477 H   0  0  0  0  0  0  0  0  0  0  0  0
   -0.1512    0.4885    0.3522 C   0  0  1  0  0  0  0  0  0  0  0  0
    0.0268    0.9691   -0.6134 H   0  0  0  0  0  0  0  0  0  0  0  0
   -0.1858    1.5966    1.4247 C   0  0  0  0  0  0  0  0  0  0  0  0
   -0.5106    1.1764    2.3829 H   0  0  0  0  0  0  0  0  0  0  0  0
    0.8138    2.0177    1.5669 H   0  0  0  0  0  0  0  0  0  0  0  0
   -1.1207    2.7491    1.0111 C   0  0  0  0  0  0  0  0  0  0  0  0
   -0.7658    3.1931    0.0768 H   0  0  0  0  0  0  0  0  0  0  0  0
   -2.1322    2.3689    0.8408 H   0  0  0  0  0  0  0  0  0  0  0  0
   -1.1764    3.8395    2.0819 C   0  0  0  0  0  0  0  0  0  0  0  0
   -0.0871    4.3472    2.4504 O   0  5  0  0  0  0  0  0  0  0  0  0
   -2.3078    4.1888    2.4990 O   0  0  0  0  0  0  0  0  0  0  0  0
    1.0495   -0.4824    0.5201 C   0  0  0  0  0  0  0  0  0  0  0  0
    1.1161   -1.4775   -0.1969 O   0  0  0  0  0  0  0  0  0  0  0  0
    2.2088   -0.0876    1.1657 N   0  0  0  0  0  0  0  0  0  0  0  0
    2.1321    0.7276    1.7683 H   0  0  0  0  0  0  0  0  0  0  0  0
    3.3911   -0.9292    1.2762 C   0  0  0  0  0  0  0  0  0  0  0  0
    3.8313   -1.1015    0.2889 H   0  0  0  0  0  0  0  0  0  0  0  0
    4.1394   -0.4431    1.9090 H   0  0  0  0  0  0  0  0  0  0  0  0
    3.1332   -1.8947    1.7235 H   0  0  0  0  0  0  0  0  0  0  0  0
  1  2  1  0  0  0  0
  2  3  1  0  0  0  0
  2  4  1  0  0  0  0
  2  5  1  0  0  0  0
  5  6  2  0  0  0  0
  5  7  1  0  0  0  0
  7  8  1  0  0  0  0
  7  9  1  0  0  0  0
  9 10  1  0  0  0  0
  9 11  1  0  0  0  0
  9 20  1  0  0  0  0
 11 12  1  0  0  0  0
 11 13  1  0  0  0  0
 11 14  1  0  0  0  0
 14 15  1  0  0  0  0
 14 16  1  0  0  0  0
 14 17  1  0  0  0  0
 17 18  1  0  0  0  0
 17 19  2  0  0  0  0
 20 21  2  0  0  0  0
 20 22  1  0  0  0  0
 22 23  1  0  0  0  0
 22 24  1  0  0  0  0
 24 25  1  0  0  0  0
 24 26  1  0  0  0  0
 24 27  1  0  0  0  0
M  CHG  1  18  -1
M  END
$$$$

  -OEChem-01062216073D

 27 26  0     1  0  0  0  0  0999 V2000
   -3.3727   -2.8049    1.2057 H   0  0  0  0  0  0  0  0  0  0  0  0
   -3.2103   -1.8954    0.6207 C   0  0  0  0  0  0  0  0  0  0  0  0
   -3.9802   -1.1655    0.8839 H   0  0  0  0  0  0  0  0  0  0  0  0
   -3.2965   -2.1400   -0.4408 H   0  0  0  0  0  0  0  0  0  0  0  0
   -1.8339   -1.3223    0.9097 C   0  0  0  0  0  0  0  0  0  0  0  0
   -1.1361   -1.8537    1.7597 O   0  0  0  0  0  0  0  0  0  0  0  0
   -1.4603   -0.1507    0.2782 N   0  0  0  0  0  0  0  0  0  0  0  0
   -2.1619    0.2788   -0.3152 H   0  0  0  0  0  0  0  0  0  0  0  0
   -0.1326    0.4956    0.3268 C   0  0  1  0  0  0  0  0  0  0  0  0
    0.0481    0.9841   -0.6346 H   0  0  0  0  0  0  0  0  0  0  0  0
   -0.1883    1.5929    1.4086 C   0  0  0  0  0  0  0  0  0  0  0  0
   -0.5112    1.1599    2.3617 H   0  0  0  0  0  0  0  0  0  0  0  0
    0.8075    2.0233    1.5551 H   0  0  0  0  0  0  0  0  0  0  0  0
   -1.1364    2.7379    1.0043 C   0  0  0  0  0  0  0  0  0  0  0  0
   -0.7836    3.1978    0.0768 H   0  0  0  0  0  0  0  0  0  0  0  0
   -2.1424    2.3474    0.8251 H   0  0  0  0  0  0  0  0  0  0  0  0
   -1.2095    3.8143    2.0884 C   0  0  0  0  0  0  0  0  0  0  0  0
   -0.1290    4.3261    2.4756 O   0  5  0  0  0  0  0  0  0  0  0  0
   -2.3478    4.1410    2.5054 O   0  0  0  0  0  0  0  0  0  0  0  0
    1.0727   -0.4671    0.5018 C   0  0  0  0  0  0  0  0  0  0  0  0
    1.2481   -1.3532   -0.3302 O   0  0  0  0  0  0  0  0  0  0  0  0
    2.0945   -0.2035    1.3976 N   0  0  0  0  0  0  0  0  0  0  0  0
    1.8991    0.5012    2.1040 H   0  0  0  0  0  0  0  0  0  0  0  0
    3.2383   -1.0833    1.5860 C   0  0  0  0  0  0  0  0  0  0  0  0
    3.8150   -1.1671    0.6593 H   0  0  0  0  0  0  0  0  0  0  0  0
    3.8937   -0.6842    2.3656 H   0  0  0  0  0  0  0  0  0  0  0  0
    2.9055   -2.0814    1.8886 H   0  0  0  0  0  0  0  0  0  0  0  0
  1  2  1  0  0  0  0
  2  3  1  0  0  0  0
  2  4  1  0  0  0  0
  2  5  1  0  0  0  0
  5  6  2  0  0  0  0
  5  7  1  0  0  0  0
  7  8  1  0  0  0  0
  7  9  1  0  0  0  0
  9 10  1  0  0  0  0
  9 11  1  0  0  0  0
  9 20  1  0  0  0  0
 11 12  1  0  0  0  0
 11 13  1  0  0  0  0
 11 14  1  0  0  0  0
 14 15  1  0  0  0  0
 14 16  1  0  0  0  0
 14 17  1  0  0  0  0
 17 18  1  0  0  0  0
 17 19  2  0  0  0  0
 20 21  2  0  0  0  0
 20 22  1  0  0  0  0
 22 23  1  0  0  0  0
 22 24  1  0  0  0  0
 24 25  1  0  0  0  0
 24 26  1  0  0  0  0
 24 27  1  0  0  0  0
M  CHG  1  18  -1
M  END
$$$$

  -OEChem-01062216073D

 27 26  0     1  0  0  0  0  0999 V2000
   -3.3805   -2.7784    1.2012 H   0  0  0  0  0  0  0  0  0  0  0  0
   -3.2188   -1.8586    0.6322 C   0  0  0  0  0  0  0  0  0  0  0  0
   -3.9566   -1.1160    0.9467 H   0  0  0  0  0  0  0  0  0  0  0  0
   -3.3575   -2.0733   -0.4302 H   0  0  0  0  0  0  0  0  0  0  0  0
   -1.8169   -1.3281    0.8752 C   0  0  0  0  0  0  0  0  0  0  0  0
   -1.0974   -1.8999    1.6795 O   0  0  0  0  0  0  0  0  0  0  0  0
   -1.4383   -0.1552    0.2492 N   0  0  0  0  0  0  0  0  0  0  0  0
   -2.1589    0.3129   -0.2905 H   0  0  0  0  0  0  0  0  0  0  0  0
   -0.1151    0.4988    0.3100 C   0  0  1  0  0  0  0  0  0  0  0  0
    0.0712    0.9929   -0.6477 H   0  0  0  0  0  0  0  0  0  0  0  0
   -0.1880    1.5877    1.3983 C   0  0  0  0  0  0  0  0  0  0  0  0
   -0.5170    1.1474    2.3460 H   0  0  0  0  0  0  0  0  0  0  0  0
    0.8065    2.0191    1.5552 H   0  0  0  0  0  0  0  0  0  0  0  0
   -1.1414    2.7272    0.9934 C   0  0  0  0  0  0  0  0  0  0  0  0
   -0.7836    3.1969    0.0727 H   0  0  0  0  0  0  0  0  0  0  0  0
   -2.1430    2.3314    0.8020 H   0  0  0  0  0  0  0  0  0  0  0  0
   -1.2301    3.7930    2.0858 C   0  0  0  0  0  0  0  0  0  0  0  0
   -0.1669    4.3676    2.4283 O   0  5  0  0  0  0  0  0  0  0  0  0
   -2.3644    4.0379    2.5650 O   0  0  0  0  0  0  0  0  0  0  0  0
    1.0935   -0.4550    0.4975 C   0  0  0  0  0  0  0  0  0  0  0  0
    1.3986   -1.2101   -0.4213 O   0  0  0  0  0  0  0  0  0  0  0  0
    1.9389   -0.3611    1.5891 N   0  0  0  0  0  0  0  0  0  0  0  0
    1.5971    0.1971    2.3667 H   0  0  0  0  0  0  0  0  0  0  0  0
    3.0380   -1.2847    1.8243 C   0  0  0  0  0  0  0  0  0  0  0  0
    3.7657   -1.2302    1.0084 H   0  0  0  0  0  0  0  0  0  0  0  0
    3.5474   -1.0311    2.7587 H   0  0  0  0  0  0  0  0  0  0  0  0
    2.6642   -2.3110    1.8990 H   0  0  0  0  0  0  0  0  0  0  0  0
  1  2  1  0  0  0  0
  2  3  1  0  0  0  0
  2  4  1  0  0  0  0
  2  5  1  0  0  0  0
  5  6  2  0  0  0  0
  5  7  1  0  0  0  0
  7  8  1  0  0  0  0
  7  9  1  0  0  0  0
  9 10  1  0  0  0  0
  9 11  1  0  0  0  0
  9 20  1  0  0  0  0
 11 12  1  0  0  0  0
 11 13  1  0  0  0  0
 11 14  1  0  0  0  0
 14 15  1  0  0  0  0
 14 16  1  0  0  0  0
 14 17  1  0  0  0  0
 17 18  1  0  0  0  0
 17 19  2  0  0  0  0
 20 21  2  0  0  0  0
 20 22  1  0  0  0  0
 22 23  1  0  0  0  0
 22 24  1  0  0  0  0
 24 25  1  0  0  0  0
 24 26  1  0  0  0  0
 24 27  1  0  0  0  0
M  CHG  1  18  -1
M  END
$$$$

  -OEChem-01062216073D

 27 26  0     1  0  0  0  0  0999 V2000
   -3.3934   -2.7666    1.1682 H   0  0  0  0  0  0  0  0  0  0  0  0
   -3.2322   -1.8303    0.6266 C   0  0  0  0  0  0  0  0  0  0  0  0
   -3.9495   -1.0878    0.9858 H   0  0  0  0  0  0  0  0  0  0  0  0
   -3.4026   -2.0064   -0.4382 H   0  0  0  0  0  0  0  0  0  0  0  0
   -1.8155   -1.3302    0.8486 C   0  0  0  0  0  0  0  0  0  0  0  0
   -1.0873   -1.9358    1.6192 O   0  0  0  0  0  0  0  0  0  0  0  0
   -1.4247   -0.1585    0.2282 N   0  0  0  0  0  0  0  0  0  0  0  0
   -2.1542    0.3425   -0.2689 H   0  0  0  0  0  0  0  0  0  0  0  0
   -0.1022    0.4964    0.3041 C   0  0  1  0  0  0  0  0  0  0  0  0
    0.0923    0.9937   -0.6507 H   0  0  0  0  0  0  0  0  0  0  0  0
   -0.1868    1.5804    1.3955 C   0  0  0  0  0  0  0  0  0  0  0  0
   -0.5289    1.1372    2.3372 H   0  0  0  0  0  0  0  0  0  0  0  0
    0.8078    2.0072    1.5671 H   0  0  0  0  0  0  0  0  0  0  0  0
   -1.1369    2.7197    0.9850 C   0  0  0  0  0  0  0  0  0  0  0  0
   -0.7718    3.1935    0.0692 H   0  0  0  0  0  0  0  0  0  0  0  0
   -2.1376    2.3272    0.7825 H   0  0  0  0  0  0  0  0  0  0  0  0
   -1.2319    3.7758    2.0847 C   0  0  0  0  0  0  0  0  0  0  0  0
   -0.2160    4.4800    2.3053 O   0  5  0  0  0  0  0  0  0  0  0  0
   -2.3211    3.8728    2.7018 O   0  0  0  0  0  0  0  0  0  0  0  0
    1.1108   -0.4462    0.5078 C   0  0  0  0  0  0  0  0  0  0  0  0
    1.5701   -1.0398   -0.4635 O   0  0  0  0  0  0  0  0  0  0  0  0
    1.7539   -0.5524    1.7280 N   0  0  0  0  0  0  0  0  0  0  0  0
    1.2353   -0.1884    2.5226 H   0  0  0  0  0  0  0  0  0  0  0  0
    2.8147   -1.5154    1.9793 C   0  0  0  0  0  0  0  0  0  0  0  0
    3.6548   -1.3484    1.2974 H   0  0  0  0  0  0  0  0  0  0  0  0
    3.1784   -1.4123    3.0058 H   0  0  0  0  0  0  0  0  0  0  0  0
    2.4430   -2.5360    1.8424 H   0  0  0  0  0  0  0  0  0  0  0  0
  1  2  1  0  0  0  0
  2  3  1  0  0  0  0
  2  4  1  0  0  0  0
  2  5  1  0  0  0  0
  5  6  2  0  0  0  0
  5  7  1  0  0  0  0
  7  8  1  0  0  0  0
  7  9  1  0  0  0  0
  9 10  1  0  0  0  0
  9 11  1  0  0  0  0
  9 20  1  0  0  0  0
 11 12  1  0  0  0  0
 11 13  1  0  0  0  0
 11 14  1  0  0  0  0
 14 15  1  0  0  0  0
 14 16  1  0  0  0  0
 14 17  1  0  0  0  0
 17 18  1  0  0  0  0
 17 19  2  0  0  0  0
 20 21  2  0  0  0  0
 20 22  1  0  0  0  0
 22 23  1  0  0  0  0
 22 24  1  0  0  0  0
 24 25  1  0  0  0  0
 24 26  1  0  0  0  0
 24 27  1  0  0  0  0
M  CHG  1  18  -1
M  END
$$$$

  -OEChem-01062216073D

 27 26  0     1  0  0  0  0  0999 V2000
   -3.4457   -2.7371    1.2332 H   0  0  0  0  0  0  0  0  0  0  0  0
   -3.2651   -1.8199    0.6657 C   0  0  0  0  0  0  0  0  0  0  0  0
   -3.9636   -1.0518    1.0080 H   0  0  0  0  0  0  0  0  0  0  0  0
   -3.4454   -2.0200   -0.3933 H   0  0  0  0  0  0  0  0  0  0  0  0
   -1.8362   -1.3467    0.8682 C   0  0  0  0  0  0  0  0  0  0  0  0
   -1.1067   -1.9704    1.6222 O   0  0  0  0  0  0  0  0  0  0  0  0
   -1.4361   -0.1799    0.2455 N   0  0  0  0  0  0  0  0  0  0  0  0
   -2.1665    0.3268   -0.2452 H   0  0  0  0  0  0  0  0  0  0  0  0
   -0.1121    0.4750    0.3063 C   0  0  1  0  0  0  0  0  0  0  0  0
    0.0656    0.9775   -0.6492 H   0  0  0  0  0  0  0  0  0  0  0  0
   -0.1820    1.5516    1.4054 C   0  0  0  0  0  0  0  0  0  0  0  0
   -0.5101    1.1006    2.3485 H   0  0  0  0  0  0  0  0  0  0  0  0
    0.8160    1.9737    1.5678 H   0  0  0  0  0  0  0  0  0  0  0  0
   -1.1411    2.6960    1.0145 C   0  0  0  0  0  0  0  0  0  0  0  0
   -0.7854    3.1593    0.0898 H   0  0  0  0  0  0  0  0  0  0  0  0
   -2.1399    2.2919    0.8294 H   0  0  0  0  0  0  0  0  0  0  0  0
   -1.2705    3.7878    2.0825 C   0  0  0  0  0  0  0  0  0  0  0  0
   -0.6199    3.6834    3.1528 O   0  5  0  0  0  0  0  0  0  0  0  0
   -2.0516    4.7327    1.8117 O   0  0  0  0  0  0  0  0  0  0  0  0
    1.1177   -0.4459    0.5030 C   0  0  0  0  0  0  0  0  0  0  0  0
    1.7258   -0.8428   -0.4866 O   0  0  0  0  0  0  0  0  0  0  0  0
    1.5879   -0.7716    1.7616 N   0  0  0  0  0  0  0  0  0  0  0  0
    0.9144   -0.6305    2.5112 H   0  0  0  0  0  0  0  0  0  0  0  0
    2.6625   -1.7275    1.9777 C   0  0  0  0  0  0  0  0  0  0  0  0
    3.5700   -1.4095    1.4542 H   0  0  0  0  0  0  0  0  0  0  0  0
    2.8895   -1.8005    3.0454 H   0  0  0  0  0  0  0  0  0  0  0  0
    2.3706   -2.7178    1.6138 H   0  0  0  0  0  0  0  0  0  0  0  0
  1  2  1  0  0  0  0
  2  3  1  0  0  0  0
  2  4  1  0  0  0  0
  2  5  1  0  0  0  0
  5  6  2  0  0  0  0
  5  7  1  0  0  0  0
  7  8  1  0  0  0  0
  7  9  1  0  0  0  0
  9 10  1  0  0  0  0
  9 11  1  0  0  0  0
  9 20  1  0  0  0  0
 11 12  1  0  0  0  0
 11 13  1  0  0  0  0
 11 14  1  0  0  0  0
 14 15  1  0  0  0  0
 14 16  1  0  0  0  0
 14 17  1  0  0  0  0
 17 18  1  0  0  0  0
 17 19  2  0  0  0  0
 20 21  2  0  0  0  0
 20 22  1  0  0  0  0
 22 23  1  0  0  0  0
 22 24  1  0  0  0  0
 24 25  1  0  0  0  0
 24 26  1  0  0  0  0
 24 27  1  0  0  0  0
M  CHG  1  18  -1
M  END
$$$$

  -OEChem-01062216073D

 27 26  0     1  0  0  0  0  0999 V2000
   -3.5688   -2.6782    1.0926 H   0  0  0  0  0  0  0  0  0  0  0  0
   -3.3550   -1.7229    0.6047 C   0  0  0  0  0  0  0  0  0  0  0  0
   -4.0110   -0.9570    1.0268 H   0  0  0  0  0  0  0  0  0  0  0  0
   -3.5614   -1.8197   -0.4640 H   0  0  0  0  0  0  0  0  0  0  0  0
   -1.9033   -1.3336    0.8205 C   0  0  0  0  0  0  0  0  0  0  0  0
   -1.2177   -2.0076    1.5720 O   0  0  0  0  0  0  0  0  0  0  0  0
   -1.4348   -0.1859    0.2104 N   0  0  0  0  0  0  0  0  0  0  0  0
   -2.1466    0.3717   -0.2522 H   0  0  0  0  0  0  0  0  0  0  0  0
   -0.0968    0.4392    0.3100 C   0  0  1  0  0  0  0  0  0  0  0  0
    0.1152    0.9377   -0.6409 H   0  0  0  0  0  0  0  0  0  0  0  0
   -0.1910    1.5178    1.4042 C   0  0  0  0  0  0  0  0  0  0  0  0
   -0.5605    1.0767    2.3366 H   0  0  0  0  0  0  0  0  0  0  0  0
    0.8065    1.9257    1.6028 H   0  0  0  0  0  0  0  0  0  0  0  0
   -1.1145    2.6722    0.9734 C   0  0  0  0  0  0  0  0  0  0  0  0
   -0.7220    3.1411    0.0662 H   0  0  0  0  0  0  0  0  0  0  0  0
   -2.1167    2.2977    0.7473 H   0  0  0  0  0  0  0  0  0  0  0  0
   -1.2230    3.7255    2.0735 C   0  0  0  0  0  0  0  0  0  0  0  0
   -0.3231    4.5979    2.1409 O   0  5  0  0  0  0  0  0  0  0  0  0
   -2.2118    3.6509    2.8445 O   0  0  0  0  0  0  0  0  0  0  0  0
    1.1293   -0.4761    0.5569 C   0  0  0  0  0  0  0  0  0  0  0  0
    1.9280   -0.6557   -0.3571 O   0  0  0  0  0  0  0  0  0  0  0  0
    1.3883   -1.0346    1.7940 N   0  0  0  0  0  0  0  0  0  0  0  0
    0.5504   -1.1466    2.3657 H   0  0  0  0  0  0  0  0  0  0  0  0
    2.4850   -1.9635    2.0196 C   0  0  0  0  0  0  0  0  0  0  0  0
    3.4421   -1.4948    1.7691 H   0  0  0  0  0  0  0  0  0  0  0  0
    2.5126   -2.2602    3.0721 H   0  0  0  0  0  0  0  0  0  0  0  0
    2.3579   -2.8612    1.4062 H   0  0  0  0  0  0  0  0  0  0  0  0
  1  2  1  0  0  0  0
  2  3  1  0  0  0  0
  2  4  1  0  0  0  0
  2  5  1  0  0  0  0
  5  6  2  0  0  0  0
  5  7  1  0  0  0  0
  7  8  1  0  0  0  0
  7  9  1  0  0  0  0
  9 10  1  0  0  0  0
  9 11  1  0  0  0  0
  9 20  1  0  0  0  0
 11 12  1  0  0  0  0
 11 13  1  0  0  0  0
 11 14  1  0  0  0  0
 14 15  1  0  0  0  0
 14 16  1  0  0  0  0
 14 17  1  0  0  0  0
 17 18  1  0  0  0  0
 17 19  2  0  0  0  0
 20 21  2  0  0  0  0
 20 22  1  0  0  0  0
 22 23  1  0  0  0  0
 22 24  1  0  0  0  0
 24 25  1  0  0  0  0
 24 26  1  0  0  0  0
 24 27  1  0  0  0  0
M  CHG  1  18  -1
M  END
$$$$

  -OEChem-01062216073D

 27 26  0     1  0  0  0  0  0999 V2000
   -3.7135   -2.5914    1.0505 H   0  0  0  0  0  0  0  0  0  0  0  0
   -3.4497   -1.6342    0.5919 C   0  0  0  0  0  0  0  0  0  0  0  0
   -4.0514   -0.8459    1.0521 H   0  0  0  0  0  0  0  0  0  0  0  0
   -3.6792   -1.6811   -0.4754 H   0  0  0  0  0  0  0  0  0  0  0  0
   -1.9737   -1.3398    0.7940 C   0  0  0  0  0  0  0  0  0  0  0  0
   -1.3210   -2.0872    1.5028 O   0  0  0  0  0  0  0  0  0  0  0  0
   -1.4486   -0.2091    0.1978 N   0  0  0  0  0  0  0  0  0  0  0  0
   -2.1466    0.3893   -0.2346 H   0  0  0  0  0  0  0  0  0  0  0  0
   -0.0991    0.3956    0.3114 C   0  0  1  0  0  0  0  0  0  0  0  0
    0.1215    0.8939   -0.6380 H   0  0  0  0  0  0  0  0  0  0  0  0
   -0.2041    1.4728    1.4059 C   0  0  0  0  0  0  0  0  0  0  0  0
   -0.5916    1.0304    2.3306 H   0  0  0  0  0  0  0  0  0  0  0  0
    0.7926    1.8729    1.6238 H   0  0  0  0  0  0  0  0  0  0  0  0
   -1.1098    2.6376    0.9632 C   0  0  0  0  0  0  0  0  0  0  0  0
   -0.6969    3.1037    0.0636 H   0  0  0  0  0  0  0  0  0  0  0  0
   -2.1129    2.2767    0.7197 H   0  0  0  0  0  0  0  0  0  0  0  0
   -1.2286    3.6887    2.0644 C   0  0  0  0  0  0  0  0  0  0  0  0
   -0.4657    4.6840    2.0124 O   0  5  0  0  0  0  0  0  0  0  0  0
   -2.0916    3.4894    2.9549 O   0  0  0  0  0  0  0  0  0  0  0  0
    1.1430   -0.4942    0.5818 C   0  0  0  0  0  0  0  0  0  0  0  0
    2.0657   -0.4741   -0.2264 O   0  0  0  0  0  0  0  0  0  0  0  0
    1.2730   -1.2809    1.7088 N   0  0  0  0  0  0  0  0  0  0  0  0
    0.3817   -1.5066    2.1559 H   0  0  0  0  0  0  0  0  0  0  0  0
    2.3854   -2.1953    1.9144 C   0  0  0  0  0  0  0  0  0  0  0  0
    3.3365   -1.6537    1.8928 H   0  0  0  0  0  0  0  0  0  0  0  0
    2.2908   -2.6849    2.8882 H   0  0  0  0  0  0  0  0  0  0  0  0
    2.3967   -2.9648    1.1360 H   0  0  0  0  0  0  0  0  0  0  0  0
  1  2  1  0  0  0  0
  2  3  1  0  0  0  0
  2  4  1  0  0  0  0
  2  5  1  0  0  0  0
  5  6  2  0  0  0  0
  5  7  1  0  0  0  0
  7  8  1  0  0  0  0
  7  9  1  0  0  0  0
  9 10  1  0  0  0  0
  9 11  1  0  0  0  0
  9 20  1  0  0  0  0
 11 12  1  0  0  0  0
 11 13  1  0  0  0  0
 11 14  1  0  0  0  0
 14 15  1  0  0  0  0
 14 16  1  0  0  0  0
 14 17  1  0  0  0  0
 17 18  1  0  0  0  0
 17 19  2  0  0  0  0
 20 21  2  0  0  0  0
 20 22  1  0  0  0  0
 22 23  1  0  0  0  0
 22 24  1  0  0  0  0
 24 25  1  0  0  0  0
 24 26  1  0  0  0  0
 24 27  1  0  0  0  0
M  CHG  1  18  -1
M  END
$$$$

  -OEChem-01062216073D

 27 26  0     1  0  0  0  0  0999 V2000
   -3.8641   -2.4711    1.0650 H   0  0  0  0  0  0  0  0  0  0  0  0
   -3.5431   -1.5385    0.5924 C   0  0  0  0  0  0  0  0  0  0  0  0
   -4.0855   -0.7074    1.0512 H   0  0  0  0  0  0  0  0  0  0  0  0
   -3.7888   -1.5806   -0.4714 H   0  0  0  0  0  0  0  0  0  0  0  0
   -2.0487   -1.3396    0.7735 C   0  0  0  0  0  0  0  0  0  0  0  0
   -1.4310   -2.1532    1.4386 O   0  0  0  0  0  0  0  0  0  0  0  0
   -1.4734   -0.2255    0.1924 N   0  0  0  0  0  0  0  0  0  0  0  0
   -2.1562    0.4106   -0.2096 H   0  0  0  0  0  0  0  0  0  0  0  0
   -0.1110    0.3528    0.3126 C   0  0  1  0  0  0  0  0  0  0  0  0
    0.1144    0.8513   -0.6354 H   0  0  0  0  0  0  0  0  0  0  0  0
   -0.2192    1.4286    1.4086 C   0  0  0  0  0  0  0  0  0  0  0  0
   -0.6225    0.9882    2.3273 H   0  0  0  0  0  0  0  0  0  0  0  0
    0.7781    1.8188    1.6407 H   0  0  0  0  0  0  0  0  0  0  0  0
   -1.1068    2.6043    0.9549 C   0  0  0  0  0  0  0  0  0  0  0  0
   -0.6772    3.0657    0.0605 H   0  0  0  0  0  0  0  0  0  0  0  0
   -2.1105    2.2554    0.6982 H   0  0  0  0  0  0  0  0  0  0  0  0
   -1.2328    3.6570    2.0538 C   0  0  0  0  0  0  0  0  0  0  0  0
   -0.4952    4.6701    1.9870 O   0  5  0  0  0  0  0  0  0  0  0  0
   -2.0824    3.4436    2.9540 O   0  0  0  0  0  0  0  0  0  0  0  0
    1.1427   -0.5224    0.5903 C   0  0  0  0  0  0  0  0  0  0  0  0
    2.1485   -0.3188   -0.0814 O   0  0  0  0  0  0  0  0  0  0  0  0
    1.1985   -1.5243    1.5373 N   0  0  0  0  0  0  0  0  0  0  0  0
    0.2923   -1.8148    1.9109 H   0  0  0  0  0  0  0  0  0  0  0  0
    2.3361   -2.4147    1.7094 C   0  0  0  0  0  0  0  0  0  0  0  0
    3.2458   -1.8402    1.9121 H   0  0  0  0  0  0  0  0  0  0  0  0
    2.1591   -3.0874    2.5538 H   0  0  0  0  0  0  0  0  0  0  0  0
    2.4892   -3.0176    0.8087 H   0  0  0  0  0  0  0  0  0  0  0  0
  1  2  1  0  0  0  0
  2  3  1  0  0  0  0
  2  4  1  0  0  0  0
  2  5  1  0  0  0  0
  5  6  2  0  0  0  0
  5  7  1  0  0  0  0
  7  8  1  0  0  0  0
  7  9  1  0  0  0  0
  9 10  1  0  0  0  0
  9 11  1  0  0  0  0
  9 20  1  0  0  0  0
 11 12  1  0  0  0  0
 11 13  1  0  0  0  0
 11 14  1  0  0  0  0
 14 15  1  0  0  0  0
 14 16  1  0  0  0  0
 14 17  1  0  0  0  0
 17 18  1  0  0  0  0
 17 19  2  0  0  0  0
 20 21  2  0  0  0  0
 20 22  1  0  0  0  0
 22 23  1  0  0  0  0
 22 24  1  0  0  0  0
 24 25  1  0  0  0  0
 24 26  1  0  0  0  0
 24 27  1  0  0  0  0
M  CHG  1  18  -1
M  END
$$$$

  -OEChem-01062216073D

 27 26  0     1  0  0  0  0  0999 V2000
   -3.5321   -2.7137    0.8178 H   0  0  0  0  0  0  0  0  0  0  0  0
   -3.2903   -1.6864    0.5304 C   0  0  0  0  0  0  0  0  0  0  0  0
   -3.6341   -1.0116    1.3189 H   0  0  0  0  0  0  0  0  0  0  0  0
   -3.8154   -1.4469   -0.3976 H   0  0  0  0  0  0  0  0  0  0  0  0
   -1.7922   -1.5298    0.3351 C   0  0  0  0  0  0  0  0  0  0  0  0
   -1.0956   -2.5237    0.4168 O   0  0  0  0  0  0  0  0  0  0  0  0
   -1.3279   -0.2919   -0.0638 N   0  0  0  0  0  0  0  0  0  0  0  0
   -2.0849    0.3818   -0.1395 H   0  0  0  0  0  0  0  0  0  0  0  0
   -0.0074    0.3685    0.0984 C   0  0  1  0  0  0  0  0  0  0  0  0
    0.1149    1.0289   -0.7659 H   0  0  0  0  0  0  0  0  0  0  0  0
   -0.1458    1.2479    1.3566 C   0  0  0  0  0  0  0  0  0  0  0  0
   -0.4716    0.6392    2.2062 H   0  0  0  0  0  0  0  0  0  0  0  0
    0.8299    1.6755    1.6136 H   0  0  0  0  0  0  0  0  0  0  0  0
   -1.1400    2.4096    1.1374 C   0  0  0  0  0  0  0  0  0  0  0  0
   -0.7861    3.0340    0.3118 H   0  0  0  0  0  0  0  0  0  0  0  0
   -2.1208    2.0149    0.8605 H   0  0  0  0  0  0  0  0  0  0  0  0
   -1.3338    3.3024    2.3683 C   0  0  0  0  0  0  0  0  0  0  0  0
   -2.1733    4.2279    2.2489 O   0  5  0  0  0  0  0  0  0  0  0  0
   -0.6932    3.0505    3.4195 O   0  0  0  0  0  0  0  0  0  0  0  0
    1.3548   -0.3835    0.1803 C   0  0  0  0  0  0  0  0  0  0  0  0
    2.2736    0.0117   -0.5247 O   0  0  0  0  0  0  0  0  0  0  0  0
    1.6444   -1.6332    0.6685 N   0  0  0  0  0  0  0  0  0  0  0  0
    2.5617   -1.9338    0.3581 H   0  0  0  0  0  0  0  0  0  0  0  0
    1.2804   -1.9993    2.0309 C   0  0  0  0  0  0  0  0  0  0  0  0
    2.0709   -1.6959    2.7241 H   0  0  0  0  0  0  0  0  0  0  0  0
    0.3495   -1.5193    2.3446 H   0  0  0  0  0  0  0  0  0  0  0  0
    1.1468   -3.0830    2.1021 H   0  0  0  0  0  0  0  0  0  0  0  0
  1  2  1  0  0  0  0
  2  3  1  0  0  0  0
  2  4  1  0  0  0  0
  2  5  1  0  0  0  0
  5  6  2  0  0  0  0
  5  7  1  0  0  0  0
  7  8  1  0  0  0  0
  7  9  1  0  0  0  0
  9 10  1  0  0  0  0
  9 11  1  0  0  0  0
  9 20  1  0  0  0  0
 11 12  1  0  0  0  0
 11 13  1  0  0  0  0
 11 14  1  0  0  0  0
 14 15  1  0  0  0  0
 14 16  1  0  0  0  0
 14 17  1  0  0  0  0
 17 18  1  0  0  0  0
 17 19  2  0  0  0  0
 20 21  2  0  0  0  0
 20 22  1  0  0  0  0
 22 23  1  0  0  0  0
 22 24  1  0  0  0  0
 24 25  1  0  0  0  0
 24 26  1  0  0  0  0
 24 27  1  0  0  0  0
M  CHG  1  18  -1
M  END
$$$$

  -OEChem-01062216073D

 27 26  0     1  0  0  0  0  0999 V2000
   -3.9198   -2.4800    1.2427 H   0  0  0  0  0  0  0  0  0  0  0  0
   -3.6149   -1.5656    0.7259 C   0  0  0  0  0  0  0  0  0  0  0  0
   -4.1347   -0.7169    1.1788 H   0  0  0  0  0  0  0  0  0  0  0  0
   -3.9047   -1.6419   -0.3249 H   0  0  0  0  0  0  0  0  0  0  0  0
   -2.1132   -1.3694    0.8374 C   0  0  0  0  0  0  0  0  0  0  0  0
   -1.4696   -2.1826    1.4777 O   0  0  0  0  0  0  0  0  0  0  0  0
   -1.5673   -0.2523    0.2335 N   0  0  0  0  0  0  0  0  0  0  0  0
   -2.2731    0.3855   -0.1243 H   0  0  0  0  0  0  0  0  0  0  0  0
   -0.1973    0.3248    0.2508 C   0  0  1  0  0  0  0  0  0  0  0  0
   -0.0490    0.8352   -0.7057 H   0  0  0  0  0  0  0  0  0  0  0  0
   -0.2440    1.3890    1.3659 C   0  0  0  0  0  0  0  0  0  0  0  0
   -0.5790    0.9342    2.3049 H   0  0  0  0  0  0  0  0  0  0  0  0
    0.7612    1.7911    1.5364 H   0  0  0  0  0  0  0  0  0  0  0  0
   -1.1728    2.5601    0.9854 C   0  0  0  0  0  0  0  0  0  0  0  0
   -0.8080    3.0384    0.0716 H   0  0  0  0  0  0  0  0  0  0  0  0
   -2.1864    2.2004    0.7886 H   0  0  0  0  0  0  0  0  0  0  0  0
   -1.2402    3.6019    2.1000 C   0  0  0  0  0  0  0  0  0  0  0  0
   -2.1909    3.5029    2.9154 O   0  5  0  0  0  0  0  0  0  0  0  0
   -0.3601    4.4959    2.1275 O   0  0  0  0  0  0  0  0  0  0  0  0
    1.0945   -0.5293    0.4132 C   0  0  0  0  0  0  0  0  0  0  0  0
    2.1508   -0.0435    0.0242 O   0  0  0  0  0  0  0  0  0  0  0  0
    1.1421   -1.8383    0.8464 N   0  0  0  0  0  0  0  0  0  0  0  0
    0.2733   -2.2114    1.2321 H   0  0  0  0  0  0  0  0  0  0  0  0
    2.3693   -2.6015    1.0184 C   0  0  0  0  0  0  0  0  0  0  0  0
    3.0346   -2.1018    1.7298 H   0  0  0  0  0  0  0  0  0  0  0  0
    2.1379   -3.5994    1.4022 H   0  0  0  0  0  0  0  0  0  0  0  0
    2.8892   -2.7110    0.0614 H   0  0  0  0  0  0  0  0  0  0  0  0
  1  2  1  0  0  0  0
  2  3  1  0  0  0  0
  2  4  1  0  0  0  0
  2  5  1  0  0  0  0
  5  6  2  0  0  0  0
  5  7  1  0  0  0  0
  7  8  1  0  0  0  0
  7  9  1  0  0  0  0
  9 10  1  0  0  0  0
  9 11  1  0  0  0  0
  9 20  1  0  0  0  0
 11 12  1  0  0  0  0
 11 13  1  0  0  0  0
 11 14  1  0  0  0  0
 14 15  1  0  0  0  0
 14 16  1  0  0  0  0
 14 17  1  0  0  0  0
 17 18  1  0  0  0  0
 17 19  2  0  0  0  0
 20 21  2  0  0  0  0
 20 22  1  0  0  0  0
 22 23  1  0  0  0  0
 22 24  1  0  0  0  0
 24 25  1  0  0  0  0
 24 26  1  0  0  0  0
 24 27  1  0  0  0  0
M  CHG  1  18  -1
M  END
$$$$

  -OEChem-01062216073D

 27 26  0     1  0  0  0  0  0999 V2000
   -3.8955   -2.4610    1.3148 H   0  0  0  0  0  0  0  0  0  0  0  0
   -3.6051   -1.5428    0.7964 C   0  0  0  0  0  0  0  0  0  0  0  0
   -4.0923   -0.6951    1.2858 H   0  0  0  0  0  0  0  0  0  0  0  0
   -3.9461   -1.6004   -0.2402 H   0  0  0  0  0  0  0  0  0  0  0  0
   -2.0976   -1.3647    0.8387 C   0  0  0  0  0  0  0  0  0  0  0  0
   -1.4307   -2.2049    1.4176 O   0  0  0  0  0  0  0  0  0  0  0  0
   -1.5662   -0.2427    0.2309 N   0  0  0  0  0  0  0  0  0  0  0  0
   -2.2795    0.4157   -0.0709 H   0  0  0  0  0  0  0  0  0  0  0  0
   -0.1933    0.3276    0.2299 C   0  0  1  0  0  0  0  0  0  0  0  0
   -0.0537    0.8372   -0.7281 H   0  0  0  0  0  0  0  0  0  0  0  0
   -0.2263    1.3949    1.3446 C   0  0  0  0  0  0  0  0  0  0  0  0
   -0.5527    0.9419    2.2875 H   0  0  0  0  0  0  0  0  0  0  0  0
    0.7794    1.7980    1.5066 H   0  0  0  0  0  0  0  0  0  0  0  0
   -1.1566    2.5677    0.9694 C   0  0  0  0  0  0  0  0  0  0  0  0
   -0.8003    3.0388    0.0484 H   0  0  0  0  0  0  0  0  0  0  0  0
   -2.1741    2.2113    0.7879 H   0  0  0  0  0  0  0  0  0  0  0  0
   -1.2120    3.6136    2.0810 C   0  0  0  0  0  0  0  0  0  0  0  0
   -1.9753    3.3750    3.0500 O   0  5  0  0  0  0  0  0  0  0  0  0
   -0.5320    4.6594    1.9425 O   0  0  0  0  0  0  0  0  0  0  0  0
    1.0922   -0.5427    0.3635 C   0  0  0  0  0  0  0  0  0  0  0  0
    2.1773   -0.0031    0.1786 O   0  0  0  0  0  0  0  0  0  0  0  0
    1.1046   -1.9169    0.4964 N   0  0  0  0  0  0  0  0  0  0  0  0
    0.2231   -2.3256    0.8096 H   0  0  0  0  0  0  0  0  0  0  0  0
    2.3207   -2.6991    0.6656 C   0  0  0  0  0  0  0  0  0  0  0  0
    2.8689   -2.3675    1.5532 H   0  0  0  0  0  0  0  0  0  0  0  0
    2.0705   -3.7572    0.7866 H   0  0  0  0  0  0  0  0  0  0  0  0
    2.9684   -2.5960   -0.2108 H   0  0  0  0  0  0  0  0  0  0  0  0
  1  2  1  0  0  0  0
  2  3  1  0  0  0  0
  2  4  1  0  0  0  0
  2  5  1  0  0  0  0
  5  6  2  0  0  0  0
  5  7  1  0  0  0  0
  7  8  1  0  0  0  0
  7  9  1  0  0  0  0
  9 10  1  0  0  0  0
  9 11  1  0  0  0  0
  9 20  1  0  0  0  0
 11 12  1  0  0  0  0
 11 13  1  0  0  0  0
 11 14  1  0  0  0  0
 14 15  1  0  0  0  0
 14 16  1  0  0  0  0
 14 17  1  0  0  0  0
 17 18  1  0  0  0  0
 17 19  2  0  0  0  0
 20 21  2  0  0  0  0
 20 22  1  0  0  0  0
 22 23  1  0  0  0  0
 22 24  1  0  0  0  0
 24 25  1  0  0  0  0
 24 26  1  0  0  0  0
 24 27  1  0  0  0  0
M  CHG  1  18  -1
M  END
$$$$

  -OEChem-01062216073D

 27 26  0     1  0  0  0  0  0999 V2000
   -3.8016   -2.5050    1.3218 H   0  0  0  0  0  0  0  0  0  0  0  0
   -3.5424   -1.5476    0.8606 C   0  0  0  0  0  0  0  0  0  0  0  0
   -3.9851   -0.7417    1.4525 H   0  0  0  0  0  0  0  0  0  0  0  0
   -3.9590   -1.5189   -0.1492 H   0  0  0  0  0  0  0  0  0  0  0  0
   -2.0346   -1.3765    0.8075 C   0  0  0  0  0  0  0  0  0  0  0  0
   -1.3322   -2.2510    1.2851 O   0  0  0  0  0  0  0  0  0  0  0  0
   -1.5336   -0.2340    0.2123 N   0  0  0  0  0  0  0  0  0  0  0  0
   -2.2595    0.4395   -0.0187 H   0  0  0  0  0  0  0  0  0  0  0  0
   -0.1670    0.3495    0.2272 C   0  0  1  0  0  0  0  0  0  0  0  0
   -0.0215    0.8655   -0.7259 H   0  0  0  0  0  0  0  0  0  0  0  0
   -0.2261    1.4139    1.3455 C   0  0  0  0  0  0  0  0  0  0  0  0
   -0.5606    0.9548    2.2826 H   0  0  0  0  0  0  0  0  0  0  0  0
    0.7709    1.8311    1.5236 H   0  0  0  0  0  0  0  0  0  0  0  0
   -1.1663    2.5754    0.9577 C   0  0  0  0  0  0  0  0  0  0  0  0
   -0.8025    3.0500    0.0413 H   0  0  0  0  0  0  0  0  0  0  0  0
   -2.1767    2.2072    0.7624 H   0  0  0  0  0  0  0  0  0  0  0  0
   -1.2535    3.6218    2.0665 C   0  0  0  0  0  0  0  0  0  0  0  0
   -1.9814    3.3452    3.0524 O   0  5  0  0  0  0  0  0  0  0  0  0
   -0.6452    4.7076    1.9043 O   0  0  0  0  0  0  0  0  0  0  0  0
    1.1125   -0.5310    0.3529 C   0  0  0  0  0  0  0  0  0  0  0  0
    2.2081    0.0156    0.4113 O   0  0  0  0  0  0  0  0  0  0  0  0
    1.1143   -1.8990    0.1604 N   0  0  0  0  0  0  0  0  0  0  0  0
    0.2159   -2.3425    0.3569 H   0  0  0  0  0  0  0  0  0  0  0  0
    2.3110   -2.7182    0.2906 C   0  0  0  0  0  0  0  0  0  0  0  0
    2.7249   -2.6328    1.3005 H   0  0  0  0  0  0  0  0  0  0  0  0
    2.0671   -3.7677    0.1014 H   0  0  0  0  0  0  0  0  0  0  0  0
    3.0718   -2.4064   -0.4321 H   0  0  0  0  0  0  0  0  0  0  0  0
  1  2  1  0  0  0  0
  2  3  1  0  0  0  0
  2  4  1  0  0  0  0
  2  5  1  0  0  0  0
  5  6  2  0  0  0  0
  5  7  1  0  0  0  0
  7  8  1  0  0  0  0
  7  9  1  0  0  0  0
  9 10  1  0  0  0  0
  9 11  1  0  0  0  0
  9 20  1  0  0  0  0
 11 12  1  0  0  0  0
 11 13  1  0  0  0  0
 11 14  1  0  0  0  0
 14 15  1  0  0  0  0
 14 16  1  0  0  0  0
 14 17  1  0  0  0  0
 17 18  1  0  0  0  0
 17 19  2  0  0  0  0
 20 21  2  0  0  0  0
 20 22  1  0  0  0  0
 22 23  1  0  0  0  0
 22 24  1  0  0  0  0
 24 25  1  0  0  0  0
 24 26  1  0  0  0  0
 24 27  1  0  0  0  0
M  CHG  1  18  -1
M  END
$$$$

  -OEChem-01062216073D

 27 26  0     1  0  0  0  0  0999 V2000
   -3.6823   -2.5269    1.3836 H   0  0  0  0  0  0  0  0  0  0  0  0
   -3.4555   -1.5649    0.9154 C   0  0  0  0  0  0  0  0  0  0  0  0
   -3.8614   -0.7660    1.5419 H   0  0  0  0  0  0  0  0  0  0  0  0
   -3.9362   -1.5274   -0.0652 H   0  0  0  0  0  0  0  0  0  0  0  0
   -1.9549   -1.3888    0.7666 C   0  0  0  0  0  0  0  0  0  0  0  0
   -1.2182   -2.2939    1.1201 O   0  0  0  0  0  0  0  0  0  0  0  0
   -1.4920   -0.2252    0.1827 N   0  0  0  0  0  0  0  0  0  0  0  0
   -2.2317    0.4553    0.0275 H   0  0  0  0  0  0  0  0  0  0  0  0
   -0.1363    0.3790    0.2245 C   0  0  1  0  0  0  0  0  0  0  0  0
    0.0232    0.9035   -0.7216 H   0  0  0  0  0  0  0  0  0  0  0  0
   -0.2269    1.4360    1.3482 C   0  0  0  0  0  0  0  0  0  0  0  0
   -0.5664    0.9674    2.2785 H   0  0  0  0  0  0  0  0  0  0  0  0
    0.7600    1.8697    1.5417 H   0  0  0  0  0  0  0  0  0  0  0  0
   -1.1781    2.5849    0.9507 C   0  0  0  0  0  0  0  0  0  0  0  0
   -0.8072    3.0699    0.0428 H   0  0  0  0  0  0  0  0  0  0  0  0
   -2.1798    2.2028    0.7377 H   0  0  0  0  0  0  0  0  0  0  0  0
   -1.2984    3.6250    2.0621 C   0  0  0  0  0  0  0  0  0  0  0  0
   -2.0586    3.3438    3.0221 O   0  5  0  0  0  0  0  0  0  0  0  0
   -0.6839    4.7107    1.9250 O   0  0  0  0  0  0  0  0  0  0  0  0
    1.1298   -0.5185    0.3579 C   0  0  0  0  0  0  0  0  0  0  0  0
    2.2053   -0.0260    0.6793 O   0  0  0  0  0  0  0  0  0  0  0  0
    1.1553   -1.8041   -0.1496 N   0  0  0  0  0  0  0  0  0  0  0  0
    0.2457   -2.2643   -0.0912 H   0  0  0  0  0  0  0  0  0  0  0  0
    2.3332   -2.6559   -0.0608 C   0  0  0  0  0  0  0  0  0  0  0  0
    2.6276   -2.7943    0.9846 H   0  0  0  0  0  0  0  0  0  0  0  0
    2.1183   -3.6367   -0.4950 H   0  0  0  0  0  0  0  0  0  0  0  0
    3.1703   -2.2122   -0.6096 H   0  0  0  0  0  0  0  0  0  0  0  0
  1  2  1  0  0  0  0
  2  3  1  0  0  0  0
  2  4  1  0  0  0  0
  2  5  1  0  0  0  0
  5  6  2  0  0  0  0
  5  7  1  0  0  0  0
  7  8  1  0  0  0  0
  7  9  1  0  0  0  0
  9 10  1  0  0  0  0
  9 11  1  0  0  0  0
  9 20  1  0  0  0  0
 11 12  1  0  0  0  0
 11 13  1  0  0  0  0
 11 14  1  0  0  0  0
 14 15  1  0  0  0  0
 14 16  1  0  0  0  0
 14 17  1  0  0  0  0
 17 18  1  0  0  0  0
 17 19  2  0  0  0  0
 20 21  2  0  0  0  0
 20 22  1  0  0  0  0
 22 23  1  0  0  0  0
 22 24  1  0  0  0  0
 24 25  1  0  0  0  0
 24 26  1  0  0  0  0
 24 27  1  0  0  0  0
M  CHG  1  18  -1
M  END
$$$$

  -OEChem-01062216073D

 27 26  0     1  0  0  0  0  0999 V2000
   -3.5481   -2.5530    1.4258 H   0  0  0  0  0  0  0  0  0  0  0  0
   -3.3558   -1.5687    0.9896 C   0  0  0  0  0  0  0  0  0  0  0  0
   -3.6825   -0.8020    1.6979 H   0  0  0  0  0  0  0  0  0  0  0  0
   -3.9338   -1.4710    0.0675 H   0  0  0  0  0  0  0  0  0  0  0  0
   -1.8759   -1.3998    0.6964 C   0  0  0  0  0  0  0  0  0  0  0  0
   -1.1217   -2.3399    0.8838 O   0  0  0  0  0  0  0  0  0  0  0  0
   -1.4510   -0.2142    0.1291 N   0  0  0  0  0  0  0  0  0  0  0  0
   -2.1999    0.4710    0.0600 H   0  0  0  0  0  0  0  0  0  0  0  0
   -0.1067    0.4056    0.2180 C   0  0  1  0  0  0  0  0  0  0  0  0
    0.0800    0.9428   -0.7158 H   0  0  0  0  0  0  0  0  0  0  0  0
   -0.2361    1.4495    1.3493 C   0  0  0  0  0  0  0  0  0  0  0  0
   -0.5952    0.9692    2.2663 H   0  0  0  0  0  0  0  0  0  0  0  0
    0.7418    1.8901    1.5708 H   0  0  0  0  0  0  0  0  0  0  0  0
   -1.1881    2.5920    0.9351 C   0  0  0  0  0  0  0  0  0  0  0  0
   -0.7973    3.0878    0.0412 H   0  0  0  0  0  0  0  0  0  0  0  0
   -2.1795    2.2017    0.6914 H   0  0  0  0  0  0  0  0  0  0  0  0
   -1.3500    3.6215    2.0506 C   0  0  0  0  0  0  0  0  0  0  0  0
   -2.1395    3.3272    2.9825 O   0  5  0  0  0  0  0  0  0  0  0  0
   -0.7388    4.7122    1.9426 O   0  0  0  0  0  0  0  0  0  0  0  0
    1.1399   -0.5126    0.3708 C   0  0  0  0  0  0  0  0  0  0  0  0
    2.1380   -0.1410    0.9777 O   0  0  0  0  0  0  0  0  0  0  0  0
    1.2532   -1.6410   -0.4203 N   0  0  0  0  0  0  0  0  0  0  0  0
    0.3493   -2.0802   -0.5904 H   0  0  0  0  0  0  0  0  0  0  0  0
    2.4071   -2.5258   -0.3415 C   0  0  0  0  0  0  0  0  0  0  0  0
    2.5084   -2.9322    0.6700 H   0  0  0  0  0  0  0  0  0  0  0  0
    2.2882   -3.3580   -1.0414 H   0  0  0  0  0  0  0  0  0  0  0  0
    3.3240   -1.9867   -0.6007 H   0  0  0  0  0  0  0  0  0  0  0  0
  1  2  1  0  0  0  0
  2  3  1  0  0  0  0
  2  4  1  0  0  0  0
  2  5  1  0  0  0  0
  5  6  2  0  0  0  0
  5  7  1  0  0  0  0
  7  8  1  0  0  0  0
  7  9  1  0  0  0  0
  9 10  1  0  0  0  0
  9 11  1  0  0  0  0
  9 20  1  0  0  0  0
 11 12  1  0  0  0  0
 11 13  1  0  0  0  0
 11 14  1  0  0  0  0
 14 15  1  0  0  0  0
 14 16  1  0  0  0  0
 14 17  1  0  0  0  0
 17 18  1  0  0  0  0
 17 19  2  0  0  0  0
 20 21  2  0  0  0  0
 20 22  1  0  0  0  0
 22 23  1  0  0  0  0
 22 24  1  0  0  0  0
 24 25  1  0  0  0  0
 24 26  1  0  0  0  0
 24 27  1  0  0  0  0
M  CHG  1  18  -1
M  END
$$$$

  -OEChem-01062216073D

 27 26  0     1  0  0  0  0  0999 V2000
   -3.4286   -2.6176    1.4314 H   0  0  0  0  0  0  0  0  0  0  0  0
   -3.2702   -1.6108    1.0347 C   0  0  0  0  0  0  0  0  0  0  0  0
   -3.5629   -0.8835    1.7970 H   0  0  0  0  0  0  0  0  0  0  0  0
   -3.9003   -1.4747    0.1524 H   0  0  0  0  0  0  0  0  0  0  0  0
   -1.8101   -1.4113    0.6696 C   0  0  0  0  0  0  0  0  0  0  0  0
   -1.0354   -2.3474    0.7776 O   0  0  0  0  0  0  0  0  0  0  0  0
   -1.4285   -0.2095    0.1048 N   0  0  0  0  0  0  0  0  0  0  0  0
   -2.1904    0.4645    0.0836 H   0  0  0  0  0  0  0  0  0  0  0  0
   -0.0973    0.4300    0.2160 C   0  0  1  0  0  0  0  0  0  0  0  0
    0.0981    0.9747   -0.7117 H   0  0  0  0  0  0  0  0  0  0  0  0
   -0.2403    1.4707    1.3470 C   0  0  0  0  0  0  0  0  0  0  0  0
   -0.6013    0.9876    2.2619 H   0  0  0  0  0  0  0  0  0  0  0  0
    0.7351    1.9152    1.5723 H   0  0  0  0  0  0  0  0  0  0  0  0
   -1.1980    2.6051    0.9257 C   0  0  0  0  0  0  0  0  0  0  0  0
   -0.8046    3.1056    0.0359 H   0  0  0  0  0  0  0  0  0  0  0  0
   -2.1835    2.2059    0.6723 H   0  0  0  0  0  0  0  0  0  0  0  0
   -1.3759    3.6341    2.0390 C   0  0  0  0  0  0  0  0  0  0  0  0
   -2.2587    3.3912    2.8991 O   0  5  0  0  0  0  0  0  0  0  0  0
   -0.6729    4.6731    2.0019 O   0  0  0  0  0  0  0  0  0  0  0  0
    1.1378   -0.4987    0.3765 C   0  0  0  0  0  0  0  0  0  0  0  0
    2.0020   -0.2982    1.2225 O   0  0  0  0  0  0  0  0  0  0  0  0
    1.4007   -1.4205   -0.6209 N   0  0  0  0  0  0  0  0  0  0  0  0
    0.5603   -1.7570   -1.0823 H   0  0  0  0  0  0  0  0  0  0  0  0
    2.5289   -2.3378   -0.5442 C   0  0  0  0  0  0  0  0  0  0  0  0
    2.4423   -2.9762    0.3411 H   0  0  0  0  0  0  0  0  0  0  0  0
    2.5551   -2.9748   -1.4332 H   0  0  0  0  0  0  0  0  0  0  0  0
    3.4717   -1.7839   -0.4905 H   0  0  0  0  0  0  0  0  0  0  0  0
  1  2  1  0  0  0  0
  2  3  1  0  0  0  0
  2  4  1  0  0  0  0
  2  5  1  0  0  0  0
  5  6  2  0  0  0  0
  5  7  1  0  0  0  0
  7  8  1  0  0  0  0
  7  9  1  0  0  0  0
  9 10  1  0  0  0  0
  9 11  1  0  0  0  0
  9 20  1  0  0  0  0
 11 12  1  0  0  0  0
 11 13  1  0  0  0  0
 11 14  1  0  0  0  0
 14 15  1  0  0  0  0
 14 16  1  0  0  0  0
 14 17  1  0  0  0  0
 17 18  1  0  0  0  0
 17 19  2  0  0  0  0
 20 21  2  0  0  0  0
 20 22  1  0  0  0  0
 22 23  1  0  0  0  0
 22 24  1  0  0  0  0
 24 25  1  0  0  0  0
 24 26  1  0  0  0  0
 24 27  1  0  0  0  0
M  CHG  1  18  -1
M  END
$$$$

  -OEChem-01062216073D

 27 26  0     1  0  0  0  0  0999 V2000
   -3.3663   -2.6280    1.4822 H   0  0  0  0  0  0  0  0  0  0  0  0
   -3.2341   -1.6324    1.0493 C   0  0  0  0  0  0  0  0  0  0  0  0
   -3.5250   -0.8855    1.7932 H   0  0  0  0  0  0  0  0  0  0  0  0
   -3.8833   -1.5369    0.1755 H   0  0  0  0  0  0  0  0  0  0  0  0
   -1.7854   -1.4206    0.6477 C   0  0  0  0  0  0  0  0  0  0  0  0
   -1.0068   -2.3579    0.7071 O   0  0  0  0  0  0  0  0  0  0  0  0
   -1.4257   -0.2108    0.0854 N   0  0  0  0  0  0  0  0  0  0  0  0
   -2.1939    0.4561    0.0894 H   0  0  0  0  0  0  0  0  0  0  0  0
   -0.1017    0.4376    0.2113 C   0  0  1  0  0  0  0  0  0  0  0  0
    0.0965    0.9903   -0.7108 H   0  0  0  0  0  0  0  0  0  0  0  0
   -0.2433    1.4732    1.3454 C   0  0  0  0  0  0  0  0  0  0  0  0
   -0.6064    0.9867    2.2575 H   0  0  0  0  0  0  0  0  0  0  0  0
    0.7349    1.9113    1.5726 H   0  0  0  0  0  0  0  0  0  0  0  0
   -1.2001    2.6094    0.9294 C   0  0  0  0  0  0  0  0  0  0  0  0
   -0.8092    3.1139    0.0408 H   0  0  0  0  0  0  0  0  0  0  0  0
   -2.1858    2.2106    0.6757 H   0  0  0  0  0  0  0  0  0  0  0  0
   -1.3751    3.6336    2.0475 C   0  0  0  0  0  0  0  0  0  0  0  0
   -2.2951    3.4205    2.8758 O   0  5  0  0  0  0  0  0  0  0  0  0
   -0.6258    4.6404    2.0463 O   0  0  0  0  0  0  0  0  0  0  0  0
    1.1308   -0.4917    0.3773 C   0  0  0  0  0  0  0  0  0  0  0  0
    1.8295   -0.4809    1.3848 O   0  0  0  0  0  0  0  0  0  0  0  0
    1.5906   -1.1770   -0.7333 N   0  0  0  0  0  0  0  0  0  0  0  0
    0.8880   -1.3437   -1.4457 H   0  0  0  0  0  0  0  0  0  0  0  0
    2.7156   -2.0986   -0.6619 C   0  0  0  0  0  0  0  0  0  0  0  0
    2.5121   -2.8942    0.0624 H   0  0  0  0  0  0  0  0  0  0  0  0
    2.8899   -2.5546   -1.6407 H   0  0  0  0  0  0  0  0  0  0  0  0
    3.6261   -1.5700   -0.3612 H   0  0  0  0  0  0  0  0  0  0  0  0
  1  2  1  0  0  0  0
  2  3  1  0  0  0  0
  2  4  1  0  0  0  0
  2  5  1  0  0  0  0
  5  6  2  0  0  0  0
  5  7  1  0  0  0  0
  7  8  1  0  0  0  0
  7  9  1  0  0  0  0
  9 10  1  0  0  0  0
  9 11  1  0  0  0  0
  9 20  1  0  0  0  0
 11 12  1  0  0  0  0
 11 13  1  0  0  0  0
 11 14  1  0  0  0  0
 14 15  1  0  0  0  0
 14 16  1  0  0  0  0
 14 17  1  0  0  0  0
 17 18  1  0  0  0  0
 17 19  2  0  0  0  0
 20 21  2  0  0  0  0
 20 22  1  0  0  0  0
 22 23  1  0  0  0  0
 22 24  1  0  0  0  0
 24 25  1  0  0  0  0
 24 26  1  0  0  0  0
 24 27  1  0  0  0  0
M  CHG  1  18  -1
M  END
$$$$

  -OEChem-01062216073D

 27 26  0     1  0  0  0  0  0999 V2000
   -3.4730   -2.5442    1.3255 H   0  0  0  0  0  0  0  0  0  0  0  0
   -3.3014   -1.5520    0.8991 C   0  0  0  0  0  0  0  0  0  0  0  0
   -3.5813   -0.7990    1.6410 H   0  0  0  0  0  0  0  0  0  0  0  0
   -3.9313   -1.4322    0.0145 H   0  0  0  0  0  0  0  0  0  0  0  0
   -1.8396   -1.3860    0.5238 C   0  0  0  0  0  0  0  0  0  0  0  0
   -1.1061   -2.3608    0.5364 O   0  0  0  0  0  0  0  0  0  0  0  0
   -1.4221   -0.1733    0.0102 N   0  0  0  0  0  0  0  0  0  0  0  0
   -2.1674    0.5187    0.0200 H   0  0  0  0  0  0  0  0  0  0  0  0
   -0.0872    0.4252    0.2238 C   0  0  1  0  0  0  0  0  0  0  0  0
    0.1717    0.9970   -0.6710 H   0  0  0  0  0  0  0  0  0  0  0  0
   -0.2435    1.4347    1.3777 C   0  0  0  0  0  0  0  0  0  0  0  0
   -0.6705    0.9396    2.2571 H   0  0  0  0  0  0  0  0  0  0  0  0
    0.7398    1.8242    1.6641 H   0  0  0  0  0  0  0  0  0  0  0  0
   -1.1356    2.6172    0.9479 C   0  0  0  0  0  0  0  0  0  0  0  0
   -0.6816    3.1284    0.0936 H   0  0  0  0  0  0  0  0  0  0  0  0
   -2.1218    2.2640    0.6355 H   0  0  0  0  0  0  0  0  0  0  0  0
   -1.3260    3.6192    2.0832 C   0  0  0  0  0  0  0  0  0  0  0  0
   -0.5283    4.5856    2.1534 O   0  5  0  0  0  0  0  0  0  0  0  0
   -2.2992    3.4300    2.8542 O   0  0  0  0  0  0  0  0  0  0  0  0
    1.1078   -0.5434    0.4296 C   0  0  0  0  0  0  0  0  0  0  0  0
    1.5812   -0.7659    1.5385 O   0  0  0  0  0  0  0  0  0  0  0  0
    1.8135   -0.9720   -0.6815 N   0  0  0  0  0  0  0  0  0  0  0  0
    1.3234   -0.9044   -1.5663 H   0  0  0  0  0  0  0  0  0  0  0  0
    2.9425   -1.8867   -0.5865 C   0  0  0  0  0  0  0  0  0  0  0  0
    2.6353   -2.8248   -0.1125 H   0  0  0  0  0  0  0  0  0  0  0  0
    3.3292   -2.1114   -1.5847 H   0  0  0  0  0  0  0  0  0  0  0  0
    3.7495   -1.4393    0.0028 H   0  0  0  0  0  0  0  0  0  0  0  0
  1  2  1  0  0  0  0
  2  3  1  0  0  0  0
  2  4  1  0  0  0  0
  2  5  1  0  0  0  0
  5  6  2  0  0  0  0
  5  7  1  0  0  0  0
  7  8  1  0  0  0  0
  7  9  1  0  0  0  0
  9 10  1  0  0  0  0
  9 11  1  0  0  0  0
  9 20  1  0  0  0  0
 11 12  1  0  0  0  0
 11 13  1  0  0  0  0
 11 14  1  0  0  0  0
 14 15  1  0  0  0  0
 14 16  1  0  0  0  0
 14 17  1  0  0  0  0
 17 18  1  0  0  0  0
 17 19  2  0  0  0  0
 20 21  2  0  0  0  0
 20 22  1  0  0  0  0
 22 23  1  0  0  0  0
 22 24  1  0  0  0  0
 24 25  1  0  0  0  0
 24 26  1  0  0  0  0
 24 27  1  0  0  0  0
M  CHG  1  18  -1
M  END
$$$$

  -OEChem-01062216073D

 27 26  0     1  0  0  0  0  0999 V2000
   -3.4491   -2.5525    1.3576 H   0  0  0  0  0  0  0  0  0  0  0  0
   -3.2779   -1.5413    0.9783 C   0  0  0  0  0  0  0  0  0  0  0  0
   -3.4596   -0.8283    1.7871 H   0  0  0  0  0  0  0  0  0  0  0  0
   -3.9802   -1.3441    0.1650 H   0  0  0  0  0  0  0  0  0  0  0  0
   -1.8504   -1.4003    0.4809 C   0  0  0  0  0  0  0  0  0  0  0  0
   -1.1537   -2.3960    0.3698 O   0  0  0  0  0  0  0  0  0  0  0  0
   -1.4430   -0.1869   -0.0372 N   0  0  0  0  0  0  0  0  0  0  0  0
   -2.1842    0.5073    0.0167 H   0  0  0  0  0  0  0  0  0  0  0  0
   -0.1088    0.4067    0.1880 C   0  0  1  0  0  0  0  0  0  0  0  0
    0.1505    0.9798   -0.7054 H   0  0  0  0  0  0  0  0  0  0  0  0
   -0.2586    1.4136    1.3436 C   0  0  0  0  0  0  0  0  0  0  0  0
   -0.6915    0.9196    2.2207 H   0  0  0  0  0  0  0  0  0  0  0  0
    0.7279    1.7927    1.6326 H   0  0  0  0  0  0  0  0  0  0  0  0
   -1.1402    2.6040    0.9163 C   0  0  0  0  0  0  0  0  0  0  0  0
   -0.6800    3.1150    0.0651 H   0  0  0  0  0  0  0  0  0  0  0  0
   -2.1283    2.2594    0.5998 H   0  0  0  0  0  0  0  0  0  0  0  0
   -1.3224    3.6028    2.0557 C   0  0  0  0  0  0  0  0  0  0  0  0
   -0.4945    4.5414    2.1498 O   0  5  0  0  0  0  0  0  0  0  0  0
   -2.3131    3.4364    2.8092 O   0  0  0  0  0  0  0  0  0  0  0  0
    1.0886   -0.5559    0.4058 C   0  0  0  0  0  0  0  0  0  0  0  0
    1.3938   -0.9581    1.5230 O   0  0  0  0  0  0  0  0  0  0  0  0
    1.9974   -0.7420   -0.6221 N   0  0  0  0  0  0  0  0  0  0  0  0
    1.6918   -0.4743   -1.5507 H   0  0  0  0  0  0  0  0  0  0  0  0
    3.1796   -1.5820   -0.4914 C   0  0  0  0  0  0  0  0  0  0  0  0
    2.8921   -2.6117   -0.2560 H   0  0  0  0  0  0  0  0  0  0  0  0
    3.7450   -1.5837   -1.4278 H   0  0  0  0  0  0  0  0  0  0  0  0
    3.8313   -1.2055    0.3037 H   0  0  0  0  0  0  0  0  0  0  0  0
  1  2  1  0  0  0  0
  2  3  1  0  0  0  0
  2  4  1  0  0  0  0
  2  5  1  0  0  0  0
  5  6  2  0  0  0  0
  5  7  1  0  0  0  0
  7  8  1  0  0  0  0
  7  9  1  0  0  0  0
  9 10  1  0  0  0  0
  9 11  1  0  0  0  0
  9 20  1  0  0  0  0
 11 12  1  0  0  0  0
 11 13  1  0  0  0  0
 11 14  1  0  0  0  0
 14 15  1  0  0  0  0
 14 16  1  0  0  0  0
 14 17  1  0  0  0  0
 17 18  1  0  0  0  0
 17 19  2  0  0  0  0
 20 21  2  0  0  0  0
 20 22  1  0  0  0  0
 22 23  1  0  0  0  0
 22 24  1  0  0  0  0
 24 25  1  0  0  0  0
 24 26  1  0  0  0  0
 24 27  1  0  0  0  0
M  CHG  1  18  -1
M  END
$$$$

  -OEChem-01062216073D

 27 26  0     1  0  0  0  0  0999 V2000
   -3.4083   -2.5447    1.4361 H   0  0  0  0  0  0  0  0  0  0  0  0
   -3.2462   -1.5318    1.0572 C   0  0  0  0  0  0  0  0  0  0  0  0
   -3.3329   -0.8282    1.8898 H   0  0  0  0  0  0  0  0  0  0  0  0
   -4.0150   -1.3028    0.3152 H   0  0  0  0  0  0  0  0  0  0  0  0
   -1.8675   -1.4191    0.4319 C   0  0  0  0  0  0  0  0  0  0  0  0
   -1.2329   -2.4329    0.1881 O   0  0  0  0  0  0  0  0  0  0  0  0
   -1.4672   -0.2069   -0.0927 N   0  0  0  0  0  0  0  0  0  0  0  0
   -2.2022    0.4897    0.0000 H   0  0  0  0  0  0  0  0  0  0  0  0
   -0.1320    0.3803    0.1409 C   0  0  1  0  0  0  0  0  0  0  0  0
    0.1270    0.9498   -0.7547 H   0  0  0  0  0  0  0  0  0  0  0  0
   -0.2691    1.3846    1.2988 C   0  0  0  0  0  0  0  0  0  0  0  0
   -0.7048    0.8917    2.1752 H   0  0  0  0  0  0  0  0  0  0  0  0
    0.7221    1.7522    1.5871 H   0  0  0  0  0  0  0  0  0  0  0  0
   -1.1391    2.5853    0.8798 C   0  0  0  0  0  0  0  0  0  0  0  0
   -0.6777    3.0965    0.0295 H   0  0  0  0  0  0  0  0  0  0  0  0
   -2.1316    2.2507    0.5656 H   0  0  0  0  0  0  0  0  0  0  0  0
   -1.3041    3.5782    2.0270 C   0  0  0  0  0  0  0  0  0  0  0  0
   -0.4215    4.4595    2.1681 O   0  5  0  0  0  0  0  0  0  0  0  0
   -2.3285    3.4615    2.7436 O   0  0  0  0  0  0  0  0  0  0  0  0
    1.0674   -0.5767    0.3703 C   0  0  0  0  0  0  0  0  0  0  0  0
    1.2262   -1.1564    1.4387 O   0  0  0  0  0  0  0  0  0  0  0  0
    2.1421   -0.5326   -0.5022 N   0  0  0  0  0  0  0  0  0  0  0  0
    2.0212   -0.0138   -1.3644 H   0  0  0  0  0  0  0  0  0  0  0  0
    3.3796   -1.2699   -0.2893 C   0  0  0  0  0  0  0  0  0  0  0  0
    3.1805   -2.3456   -0.2443 H   0  0  0  0  0  0  0  0  0  0  0  0
    4.0767   -1.0799   -1.1106 H   0  0  0  0  0  0  0  0  0  0  0  0
    3.8548   -0.9579    0.6464 H   0  0  0  0  0  0  0  0  0  0  0  0
  1  2  1  0  0  0  0
  2  3  1  0  0  0  0
  2  4  1  0  0  0  0
  2  5  1  0  0  0  0
  5  6  2  0  0  0  0
  5  7  1  0  0  0  0
  7  8  1  0  0  0  0
  7  9  1  0  0  0  0
  9 10  1  0  0  0  0
  9 11  1  0  0  0  0
  9 20  1  0  0  0  0
 11 12  1  0  0  0  0
 11 13  1  0  0  0  0
 11 14  1  0  0  0  0
 14 15  1  0  0  0  0
 14 16  1  0  0  0  0
 14 17  1  0  0  0  0
 17 18  1  0  0  0  0
 17 19  2  0  0  0  0
 20 21  2  0  0  0  0
 20 22  1  0  0  0  0
 22 23  1  0  0  0  0
 22 24  1  0  0  0  0
 24 25  1  0  0  0  0
 24 26  1  0  0  0  0
 24 27  1  0  0  0  0
M  CHG  1  18  -1
M  END
$$$$

  -OEChem-01062216073D

 27 26  0     1  0  0  0  0  0999 V2000
   -3.3264   -2.5136    1.5431 H   0  0  0  0  0  0  0  0  0  0  0  0
   -3.1781   -1.5039    1.1506 C   0  0  0  0  0  0  0  0  0  0  0  0
   -3.1452   -0.8036    1.9898 H   0  0  0  0  0  0  0  0  0  0  0  0
   -4.0198   -1.2453    0.5037 H   0  0  0  0  0  0  0  0  0  0  0  0
   -1.8788   -1.4310    0.3692 C   0  0  0  0  0  0  0  0  0  0  0  0
   -1.3473   -2.4595   -0.0187 O   0  0  0  0  0  0  0  0  0  0  0  0
   -1.4809   -0.2223   -0.1625 N   0  0  0  0  0  0  0  0  0  0  0  0
   -2.2056    0.4785   -0.0295 H   0  0  0  0  0  0  0  0  0  0  0  0
   -0.1431    0.3546    0.0800 C   0  0  1  0  0  0  0  0  0  0  0  0
    0.1201    0.9210   -0.8166 H   0  0  0  0  0  0  0  0  0  0  0  0
   -0.2777    1.3516    1.2431 C   0  0  0  0  0  0  0  0  0  0  0  0
   -0.7200    0.8549    2.1140 H   0  0  0  0  0  0  0  0  0  0  0  0
    0.7143    1.7109    1.5389 H   0  0  0  0  0  0  0  0  0  0  0  0
   -1.1373    2.5615    0.8321 C   0  0  0  0  0  0  0  0  0  0  0  0
   -0.6697    3.0779   -0.0115 H   0  0  0  0  0  0  0  0  0  0  0  0
   -2.1320    2.2387    0.5128 H   0  0  0  0  0  0  0  0  0  0  0  0
   -1.2943    3.5419    1.9905 C   0  0  0  0  0  0  0  0  0  0  0  0
   -0.3964    4.4046    2.1491 O   0  5  0  0  0  0  0  0  0  0  0  0
   -2.3194    3.4265    2.7060 O   0  0  0  0  0  0  0  0  0  0  0  0
    1.0594   -0.5950    0.3232 C   0  0  0  0  0  0  0  0  0  0  0  0
    1.0962   -1.3519    1.2862 O   0  0  0  0  0  0  0  0  0  0  0  0
    2.2535   -0.3414   -0.3317 N   0  0  0  0  0  0  0  0  0  0  0  0
    2.2630    0.4170   -1.0045 H   0  0  0  0  0  0  0  0  0  0  0  0
    3.5102   -0.9953    0.0064 C   0  0  0  0  0  0  0  0  0  0  0  0
    3.4100   -2.0821   -0.0790 H   0  0  0  0  0  0  0  0  0  0  0  0
    4.3000   -0.6670   -0.6757 H   0  0  0  0  0  0  0  0  0  0  0  0
    3.8089   -0.7454    1.0296 H   0  0  0  0  0  0  0  0  0  0  0  0
  1  2  1  0  0  0  0
  2  3  1  0  0  0  0
  2  4  1  0  0  0  0
  2  5  1  0  0  0  0
  5  6  2  0  0  0  0
  5  7  1  0  0  0  0
  7  8  1  0  0  0  0
  7  9  1  0  0  0  0
  9 10  1  0  0  0  0
  9 11  1  0  0  0  0
  9 20  1  0  0  0  0
 11 12  1  0  0  0  0
 11 13  1  0  0  0  0
 11 14  1  0  0  0  0
 14 15  1  0  0  0  0
 14 16  1  0  0  0  0
 14 17  1  0  0  0  0
 17 18  1  0  0  0  0
 17 19  2  0  0  0  0
 20 21  2  0  0  0  0
 20 22  1  0  0  0  0
 22 23  1  0  0  0  0
 22 24  1  0  0  0  0
 24 25  1  0  0  0  0
 24 26  1  0  0  0  0
 24 27  1  0  0  0  0
M  CHG  1  18  -1
M  END
$$$$

  -OEChem-01062216073D

 27 26  0     1  0  0  0  0  0999 V2000
   -3.4548   -2.9201    1.1143 H   0  0  0  0  0  0  0  0  0  0  0  0
   -3.2503   -2.0174    0.5318 C   0  0  0  0  0  0  0  0  0  0  0  0
   -4.1026   -1.3390    0.6198 H   0  0  0  0  0  0  0  0  0  0  0  0
   -3.1216   -2.2984   -0.5160 H   0  0  0  0  0  0  0  0  0  0  0  0
   -1.9926   -1.3376    1.0439 C   0  0  0  0  0  0  0  0  0  0  0  0
   -1.5123   -1.7119    2.1006 O   0  0  0  0  0  0  0  0  0  0  0  0
   -1.5614   -0.1869    0.4108 N   0  0  0  0  0  0  0  0  0  0  0  0
   -2.1592    0.1252   -0.3458 H   0  0  0  0  0  0  0  0  0  0  0  0
   -0.1978    0.3881    0.4375 C   0  0  1  0  0  0  0  0  0  0  0  0
   -0.0609    0.8453   -0.5458 H   0  0  0  0  0  0  0  0  0  0  0  0
   -0.1394    1.5289    1.4665 C   0  0  0  0  0  0  0  0  0  0  0  0
   -0.4827    1.1635    2.4408 H   0  0  0  0  0  0  0  0  0  0  0  0
    0.8931    1.8732    1.5892 H   0  0  0  0  0  0  0  0  0  0  0  0
   -1.0073    2.7201    1.0163 C   0  0  0  0  0  0  0  0  0  0  0  0
   -0.6414    3.1009    0.0587 H   0  0  0  0  0  0  0  0  0  0  0  0
   -2.0423    2.3952    0.8756 H   0  0  0  0  0  0  0  0  0  0  0  0
   -0.9818    3.8587    2.0354 C   0  0  0  0  0  0  0  0  0  0  0  0
    0.1357    4.3779    2.2836 O   0  5  0  0  0  0  0  0  0  0  0  0
   -2.0773    4.2554    2.5028 O   0  0  0  0  0  0  0  0  0  0  0  0
    1.0541   -0.5234    0.5807 C   0  0  0  0  0  0  0  0  0  0  0  0
    1.0025   -1.7357    0.7416 O   0  0  0  0  0  0  0  0  0  0  0  0
    2.2196   -0.0612   -0.0109 N   0  0  0  0  0  0  0  0  0  0  0  0
    2.2940    0.9471   -0.1121 H   0  0  0  0  0  0  0  0  0  0  0  0
    3.4405   -0.8514   -0.1057 C   0  0  0  0  0  0  0  0  0  0  0  0
    3.2816   -1.7293   -0.7402 H   0  0  0  0  0  0  0  0  0  0  0  0
    4.2426   -0.2504   -0.5439 H   0  0  0  0  0  0  0  0  0  0  0  0
    3.7592   -1.1847    0.8873 H   0  0  0  0  0  0  0  0  0  0  0  0
  1  2  1  0  0  0  0
  2  3  1  0  0  0  0
  2  4  1  0  0  0  0
  2  5  1  0  0  0  0
  5  6  2  0  0  0  0
  5  7  1  0  0  0  0
  7  8  1  0  0  0  0
  7  9  1  0  0  0  0
  9 10  1  0  0  0  0
  9 11  1  0  0  0  0
  9 20  1  0  0  0  0
 11 12  1  0  0  0  0
 11 13  1  0  0  0  0
 11 14  1  0  0  0  0
 14 15  1  0  0  0  0
 14 16  1  0  0  0  0
 14 17  1  0  0  0  0
 17 18  1  0  0  0  0
 17 19  2  0  0  0  0
 20 21  2  0  0  0  0
 20 22  1  0  0  0  0
 22 23  1  0  0  0  0
 22 24  1  0  0  0  0
 24 25  1  0  0  0  0
 24 26  1  0  0  0  0
 24 27  1  0  0  0  0
M  CHG  1  18  -1
M  END
$$$$

  -OEChem-01062216073D

 27 26  0     1  0  0  0  0  0999 V2000
   -3.4088   -2.9149    1.1359 H   0  0  0  0  0  0  0  0  0  0  0  0
   -3.2227   -2.0150    0.5427 C   0  0  0  0  0  0  0  0  0  0  0  0
   -4.0811   -1.3452    0.6369 H   0  0  0  0  0  0  0  0  0  0  0  0
   -3.1054   -2.3038   -0.5046 H   0  0  0  0  0  0  0  0  0  0  0  0
   -1.9653   -1.3167    1.0301 C   0  0  0  0  0  0  0  0  0  0  0  0
   -1.4436   -1.6911    2.0684 O   0  0  0  0  0  0  0  0  0  0  0  0
   -1.5546   -0.1645    0.3860 N   0  0  0  0  0  0  0  0  0  0  0  0
   -2.1519    0.1338   -0.3765 H   0  0  0  0  0  0  0  0  0  0  0  0
   -0.1938    0.4147    0.4189 C   0  0  1  0  0  0  0  0  0  0  0  0
   -0.0357    0.8756   -0.5595 H   0  0  0  0  0  0  0  0  0  0  0  0
   -0.1521    1.5462    1.4621 C   0  0  0  0  0  0  0  0  0  0  0  0
   -0.4997    1.1666    2.4295 H   0  0  0  0  0  0  0  0  0  0  0  0
    0.8743    1.9011    1.5984 H   0  0  0  0  0  0  0  0  0  0  0  0
   -1.0271    2.7355    1.0225 C   0  0  0  0  0  0  0  0  0  0  0  0
   -0.6593    3.1315    0.0718 H   0  0  0  0  0  0  0  0  0  0  0  0
   -2.0589    2.4044    0.8727 H   0  0  0  0  0  0  0  0  0  0  0  0
   -1.0144    3.8597    2.0579 C   0  0  0  0  0  0  0  0  0  0  0  0
    0.1012    4.3686    2.3352 O   0  5  0  0  0  0  0  0  0  0  0  0
   -2.1156    4.2517    2.5157 O   0  0  0  0  0  0  0  0  0  0  0  0
    1.0360   -0.5219    0.5759 C   0  0  0  0  0  0  0  0  0  0  0  0
    0.9563   -1.7368    0.4300 O   0  0  0  0  0  0  0  0  0  0  0  0
    2.2787    0.0214    0.2912 N   0  0  0  0  0  0  0  0  0  0  0  0
    2.3612    1.0275    0.4126 H   0  0  0  0  0  0  0  0  0  0  0  0
    3.5024   -0.7659    0.2163 C   0  0  0  0  0  0  0  0  0  0  0  0
    3.4598   -1.4616   -0.6279 H   0  0  0  0  0  0  0  0  0  0  0  0
    4.3642   -0.1068    0.0770 H   0  0  0  0  0  0  0  0  0  0  0  0
    3.6480   -1.3361    1.1396 H   0  0  0  0  0  0  0  0  0  0  0  0
  1  2  1  0  0  0  0
  2  3  1  0  0  0  0
  2  4  1  0  0  0  0
  2  5  1  0  0  0  0
  5  6  2  0  0  0  0
  5  7  1  0  0  0  0
  7  8  1  0  0  0  0
  7  9  1  0  0  0  0
  9 10  1  0  0  0  0
  9 11  1  0  0  0  0
  9 20  1  0  0  0  0
 11 12  1  0  0  0  0
 11 13  1  0  0  0  0
 11 14  1  0  0  0  0
 14 15  1  0  0  0  0
 14 16  1  0  0  0  0
 14 17  1  0  0  0  0
 17 18  1  0  0  0  0
 17 19  2  0  0  0  0
 20 21  2  0  0  0  0
 20 22  1  0  0  0  0
 22 23  1  0  0  0  0
 22 24  1  0  0  0  0
 24 25  1  0  0  0  0
 24 26  1  0  0  0  0
 24 27  1  0  0  0  0
M  CHG  1  18  -1
M  END
$$$$

  -OEChem-01062216073D

 27 26  0     1  0  0  0  0  0999 V2000
   -3.3436   -2.8880    1.1985 H   0  0  0  0  0  0  0  0  0  0  0  0
   -3.2071   -1.9695    0.6209 C   0  0  0  0  0  0  0  0  0  0  0  0
   -4.0118   -1.2735    0.8703 H   0  0  0  0  0  0  0  0  0  0  0  0
   -3.2590   -2.2124   -0.4432 H   0  0  0  0  0  0  0  0  0  0  0  0
   -1.8622   -1.3425    0.9430 C   0  0  0  0  0  0  0  0  0  0  0  0
   -1.1627   -1.8446    1.8096 O   0  0  0  0  0  0  0  0  0  0  0  0
   -1.5063   -0.1663    0.3085 N   0  0  0  0  0  0  0  0  0  0  0  0
   -2.1707    0.1985   -0.3640 H   0  0  0  0  0  0  0  0  0  0  0  0
   -0.1645    0.4482    0.3531 C   0  0  1  0  0  0  0  0  0  0  0  0
   -0.0993    1.1424   -0.4886 H   0  0  0  0  0  0  0  0  0  0  0  0
   -0.0157    1.2858    1.6390 C   0  0  0  0  0  0  0  0  0  0  0  0
   -0.2391    0.6667    2.5146 H   0  0  0  0  0  0  0  0  0  0  0  0
    1.0132    1.6422    1.7447 H   0  0  0  0  0  0  0  0  0  0  0  0
   -0.9500    2.5099    1.6135 C   0  0  0  0  0  0  0  0  0  0  0  0
   -0.7002    3.1465    0.7600 H   0  0  0  0  0  0  0  0  0  0  0  0
   -1.9882    2.1841    1.4989 H   0  0  0  0  0  0  0  0  0  0  0  0
   -0.8285    3.3378    2.8932 C   0  0  0  0  0  0  0  0  0  0  0  0
    0.3128    3.7764    3.1866 O   0  5  0  0  0  0  0  0  0  0  0  0
   -1.8782    3.5828    3.5369 O   0  0  0  0  0  0  0  0  0  0  0  0
    1.0363   -0.5117    0.1399 C   0  0  0  0  0  0  0  0  0  0  0  0
    0.8947   -1.5747   -0.4583 O   0  0  0  0  0  0  0  0  0  0  0  0
    2.3193    0.0088    0.1770 N   0  0  0  0  0  0  0  0  0  0  0  0
    2.4320    0.8797    0.6898 H   0  0  0  0  0  0  0  0  0  0  0  0
    3.5099   -0.7672   -0.1411 C   0  0  0  0  0  0  0  0  0  0  0  0
    3.5017   -1.0673   -1.1938 H   0  0  0  0  0  0  0  0  0  0  0  0
    4.4070   -0.1679    0.0402 H   0  0  0  0  0  0  0  0  0  0  0  0
    3.5604   -1.6651    0.4834 H   0  0  0  0  0  0  0  0  0  0  0  0
  1  2  1  0  0  0  0
  2  3  1  0  0  0  0
  2  4  1  0  0  0  0
  2  5  1  0  0  0  0
  5  6  2  0  0  0  0
  5  7  1  0  0  0  0
  7  8  1  0  0  0  0
  7  9  1  0  0  0  0
  9 10  1  0  0  0  0
  9 11  1  0  0  0  0
  9 20  1  0  0  0  0
 11 12  1  0  0  0  0
 11 13  1  0  0  0  0
 11 14  1  0  0  0  0
 14 15  1  0  0  0  0
 14 16  1  0  0  0  0
 14 17  1  0  0  0  0
 17 18  1  0  0  0  0
 17 19  2  0  0  0  0
 20 21  2  0  0  0  0
 20 22  1  0  0  0  0
 22 23  1  0  0  0  0
 22 24  1  0  0  0  0
 24 25  1  0  0  0  0
 24 26  1  0  0  0  0
 24 27  1  0  0  0  0
M  CHG  1  18  -1
M  END
$$$$

  -OEChem-01062216073D

 27 26  0     1  0  0  0  0  0999 V2000
   -3.3161   -2.8623    1.2204 H   0  0  0  0  0  0  0  0  0  0  0  0
   -3.1903   -1.9396    0.6470 C   0  0  0  0  0  0  0  0  0  0  0  0
   -3.9708   -1.2332    0.9404 H   0  0  0  0  0  0  0  0  0  0  0  0
   -3.2948   -2.1687   -0.4161 H   0  0  0  0  0  0  0  0  0  0  0  0
   -1.8223   -1.3382    0.9145 C   0  0  0  0  0  0  0  0  0  0  0  0
   -1.0838   -1.8738    1.7275 O   0  0  0  0  0  0  0  0  0  0  0  0
   -1.4787   -0.1558    0.2852 N   0  0  0  0  0  0  0  0  0  0  0  0
   -2.1750    0.2495   -0.3298 H   0  0  0  0  0  0  0  0  0  0  0  0
   -0.1466    0.4780    0.3355 C   0  0  1  0  0  0  0  0  0  0  0  0
   -0.0774    1.1780   -0.5012 H   0  0  0  0  0  0  0  0  0  0  0  0
   -0.0272    1.3043    1.6332 C   0  0  0  0  0  0  0  0  0  0  0  0
   -0.2427    0.6707    2.5006 H   0  0  0  0  0  0  0  0  0  0  0  0
    0.9909    1.6866    1.7491 H   0  0  0  0  0  0  0  0  0  0  0  0
   -0.9860    2.5098    1.6143 C   0  0  0  0  0  0  0  0  0  0  0  0
   -0.7412    3.1616    0.7710 H   0  0  0  0  0  0  0  0  0  0  0  0
   -2.0163    2.1654    1.4855 H   0  0  0  0  0  0  0  0  0  0  0  0
   -0.8937    3.3244    2.9051 C   0  0  0  0  0  0  0  0  0  0  0  0
    0.2386    3.7627    3.2313 O   0  5  0  0  0  0  0  0  0  0  0  0
   -1.9581    3.5524    3.5304 O   0  0  0  0  0  0  0  0  0  0  0  0
    1.0488   -0.4889    0.1211 C   0  0  0  0  0  0  0  0  0  0  0  0
    0.9385   -1.4407   -0.6476 O   0  0  0  0  0  0  0  0  0  0  0  0
    2.3336   -0.0927    0.4513 N   0  0  0  0  0  0  0  0  0  0  0  0
    2.4088    0.6776    1.1108 H   0  0  0  0  0  0  0  0  0  0  0  0
    3.5120   -0.9090    0.1982 C   0  0  0  0  0  0  0  0  0  0  0  0
    3.6602   -1.0440   -0.8779 H   0  0  0  0  0  0  0  0  0  0  0  0
    4.4007   -0.4227    0.6111 H   0  0  0  0  0  0  0  0  0  0  0  0
    3.4044   -1.8920    0.6683 H   0  0  0  0  0  0  0  0  0  0  0  0
  1  2  1  0  0  0  0
  2  3  1  0  0  0  0
  2  4  1  0  0  0  0
  2  5  1  0  0  0  0
  5  6  2  0  0  0  0
  5  7  1  0  0  0  0
  7  8  1  0  0  0  0
  7  9  1  0  0  0  0
  9 10  1  0  0  0  0
  9 11  1  0  0  0  0
  9 20  1  0  0  0  0
 11 12  1  0  0  0  0
 11 13  1  0  0  0  0
 11 14  1  0  0  0  0
 14 15  1  0  0  0  0
 14 16  1  0  0  0  0
 14 17  1  0  0  0  0
 17 18  1  0  0  0  0
 17 19  2  0  0  0  0
 20 21  2  0  0  0  0
 20 22  1  0  0  0  0
 22 23  1  0  0  0  0
 22 24  1  0  0  0  0
 24 25  1  0  0  0  0
 24 26  1  0  0  0  0
 24 27  1  0  0  0  0
M  CHG  1  18  -1
M  END
$$$$

  -OEChem-01062216073D

 27 26  0     1  0  0  0  0  0999 V2000
   -3.3042   -2.8437    1.2272 H   0  0  0  0  0  0  0  0  0  0  0  0
   -3.1844   -1.9129    0.6657 C   0  0  0  0  0  0  0  0  0  0  0  0
   -3.9381   -1.1974    1.0046 H   0  0  0  0  0  0  0  0  0  0  0  0
   -3.3379   -2.1196   -0.3963 H   0  0  0  0  0  0  0  0  0  0  0  0
   -1.7947   -1.3421    0.8856 C   0  0  0  0  0  0  0  0  0  0  0  0
   -1.0290   -1.9094    1.6505 O   0  0  0  0  0  0  0  0  0  0  0  0
   -1.4569   -0.1553    0.2628 N   0  0  0  0  0  0  0  0  0  0  0  0
   -2.1803    0.2892   -0.2913 H   0  0  0  0  0  0  0  0  0  0  0  0
   -0.1333    0.4946    0.3223 C   0  0  1  0  0  0  0  0  0  0  0  0
   -0.0624    1.1981   -0.5115 H   0  0  0  0  0  0  0  0  0  0  0  0
   -0.0343    1.3153    1.6254 C   0  0  0  0  0  0  0  0  0  0  0  0
   -0.2426    0.6741    2.4888 H   0  0  0  0  0  0  0  0  0  0  0  0
    0.9773    1.7149    1.7433 H   0  0  0  0  0  0  0  0  0  0  0  0
   -1.0086    2.5080    1.6093 C   0  0  0  0  0  0  0  0  0  0  0  0
   -0.7667    3.1688    0.7722 H   0  0  0  0  0  0  0  0  0  0  0  0
   -2.0336    2.1511    1.4725 H   0  0  0  0  0  0  0  0  0  0  0  0
   -0.9346    3.3146    2.9066 C   0  0  0  0  0  0  0  0  0  0  0  0
    0.1921    3.7496    3.2549 O   0  5  0  0  0  0  0  0  0  0  0  0
   -2.0079    3.5318    3.5207 O   0  0  0  0  0  0  0  0  0  0  0  0
    1.0627   -0.4722    0.1125 C   0  0  0  0  0  0  0  0  0  0  0  0
    1.0182   -1.2988   -0.7950 O   0  0  0  0  0  0  0  0  0  0  0  0
    2.2892   -0.2362    0.7089 N   0  0  0  0  0  0  0  0  0  0  0  0
    2.2867    0.4103    1.4937 H   0  0  0  0  0  0  0  0  0  0  0  0
    3.4501   -1.0921    0.5148 C   0  0  0  0  0  0  0  0  0  0  0  0
    3.7774   -1.0622   -0.5294 H   0  0  0  0  0  0  0  0  0  0  0  0
    4.2763   -0.7519    1.1460 H   0  0  0  0  0  0  0  0  0  0  0  0
    3.2111   -2.1263    0.7831 H   0  0  0  0  0  0  0  0  0  0  0  0
  1  2  1  0  0  0  0
  2  3  1  0  0  0  0
  2  4  1  0  0  0  0
  2  5  1  0  0  0  0
  5  6  2  0  0  0  0
  5  7  1  0  0  0  0
  7  8  1  0  0  0  0
  7  9  1  0  0  0  0
  9 10  1  0  0  0  0
  9 11  1  0  0  0  0
  9 20  1  0  0  0  0
 11 12  1  0  0  0  0
 11 13  1  0  0  0  0
 11 14  1  0  0  0  0
 14 15  1  0  0  0  0
 14 16  1  0  0  0  0
 14 17  1  0  0  0  0
 17 18  1  0  0  0  0
 17 19  2  0  0  0  0
 20 21  2  0  0  0  0
 20 22  1  0  0  0  0
 22 23  1  0  0  0  0
 22 24  1  0  0  0  0
 24 25  1  0  0  0  0
 24 26  1  0  0  0  0
 24 27  1  0  0  0  0
M  CHG  1  18  -1
M  END
$$$$

  -OEChem-01062216073D

 27 26  0     1  0  0  0  0  0999 V2000
   -3.2963   -2.8166    1.2370 H   0  0  0  0  0  0  0  0  0  0  0  0
   -3.1815   -1.8784    0.6869 C   0  0  0  0  0  0  0  0  0  0  0  0
   -3.9012   -1.1528    1.0748 H   0  0  0  0  0  0  0  0  0  0  0  0
   -3.3911   -2.0617   -0.3697 H   0  0  0  0  0  0  0  0  0  0  0  0
   -1.7699   -1.3431    0.8496 C   0  0  0  0  0  0  0  0  0  0  0  0
   -0.9817   -1.9448    1.5637 O   0  0  0  0  0  0  0  0  0  0  0  0
   -1.4333   -0.1527    0.2328 N   0  0  0  0  0  0  0  0  0  0  0  0
   -2.1797    0.3343   -0.2513 H   0  0  0  0  0  0  0  0  0  0  0  0
   -0.1154    0.5073    0.3049 C   0  0  1  0  0  0  0  0  0  0  0  0
   -0.0397    1.2167   -0.5236 H   0  0  0  0  0  0  0  0  0  0  0  0
   -0.0384    1.3161    1.6160 C   0  0  0  0  0  0  0  0  0  0  0  0
   -0.2479    0.6655    2.4720 H   0  0  0  0  0  0  0  0  0  0  0  0
    0.9699    1.7230    1.7433 H   0  0  0  0  0  0  0  0  0  0  0  0
   -1.0250    2.4986    1.6024 C   0  0  0  0  0  0  0  0  0  0  0  0
   -0.7805    3.1707    0.7749 H   0  0  0  0  0  0  0  0  0  0  0  0
   -2.0448    2.1337    1.4498 H   0  0  0  0  0  0  0  0  0  0  0  0
   -0.9729    3.2926    2.9087 C   0  0  0  0  0  0  0  0  0  0  0  0
    0.1480    3.7111    3.2931 O   0  5  0  0  0  0  0  0  0  0  0  0
   -2.0593    3.5075    3.5001 O   0  0  0  0  0  0  0  0  0  0  0  0
    1.0852   -0.4540    0.1034 C   0  0  0  0  0  0  0  0  0  0  0  0
    1.1373   -1.1388   -0.9147 O   0  0  0  0  0  0  0  0  0  0  0  0
    2.1991   -0.4086    0.9230 N   0  0  0  0  0  0  0  0  0  0  0  0
    2.0833    0.0941    1.7994 H   0  0  0  0  0  0  0  0  0  0  0  0
    3.3264   -1.3181    0.7853 C   0  0  0  0  0  0  0  0  0  0  0  0
    3.7996   -1.1969   -0.1945 H   0  0  0  0  0  0  0  0  0  0  0  0
    4.0729   -1.1091    1.5572 H   0  0  0  0  0  0  0  0  0  0  0  0
    2.9943   -2.3557    0.8938 H   0  0  0  0  0  0  0  0  0  0  0  0
  1  2  1  0  0  0  0
  2  3  1  0  0  0  0
  2  4  1  0  0  0  0
  2  5  1  0  0  0  0
  5  6  2  0  0  0  0
  5  7  1  0  0  0  0
  7  8  1  0  0  0  0
  7  9  1  0  0  0  0
  9 10  1  0  0  0  0
  9 11  1  0  0  0  0
  9 20  1  0  0  0  0
 11 12  1  0  0  0  0
 11 13  1  0  0  0  0
 11 14  1  0  0  0  0
 14 15  1  0  0  0  0
 14 16  1  0  0  0  0
 14 17  1  0  0  0  0
 17 18  1  0  0  0  0
 17 19  2  0  0  0  0
 20 21  2  0  0  0  0
 20 22  1  0  0  0  0
 22 23  1  0  0  0  0
 22 24  1  0  0  0  0
 24 25  1  0  0  0  0
 24 26  1  0  0  0  0
 24 27  1  0  0  0  0
M  CHG  1  18  -1
M  END
$$$$

  -OEChem-01062216073D

 27 26  0     1  0  0  0  0  0999 V2000
   -3.3029   -2.8017    1.2178 H   0  0  0  0  0  0  0  0  0  0  0  0
   -3.1879   -1.8490    0.6935 C   0  0  0  0  0  0  0  0  0  0  0  0
   -3.8820   -1.1235    1.1255 H   0  0  0  0  0  0  0  0  0  0  0  0
   -3.4343   -1.9956   -0.3608 H   0  0  0  0  0  0  0  0  0  0  0  0
   -1.7623   -1.3431    0.8280 C   0  0  0  0  0  0  0  0  0  0  0  0
   -0.9673   -1.9696    1.5125 O   0  0  0  0  0  0  0  0  0  0  0  0
   -1.4178   -0.1541    0.2131 N   0  0  0  0  0  0  0  0  0  0  0  0
   -2.1740    0.3606   -0.2253 H   0  0  0  0  0  0  0  0  0  0  0  0
   -0.1020    0.5087    0.2964 C   0  0  1  0  0  0  0  0  0  0  0  0
   -0.0197    1.2196   -0.5305 H   0  0  0  0  0  0  0  0  0  0  0  0
   -0.0385    1.3130    1.6102 C   0  0  0  0  0  0  0  0  0  0  0  0
   -0.2554    0.6601    2.4628 H   0  0  0  0  0  0  0  0  0  0  0  0
    0.9705    1.7171    1.7453 H   0  0  0  0  0  0  0  0  0  0  0  0
   -1.0282    2.4925    1.5923 C   0  0  0  0  0  0  0  0  0  0  0  0
   -0.7794    3.1687    0.7696 H   0  0  0  0  0  0  0  0  0  0  0  0
   -2.0462    2.1266    1.4304 H   0  0  0  0  0  0  0  0  0  0  0  0
   -0.9858    3.2785    2.9030 C   0  0  0  0  0  0  0  0  0  0  0  0
    0.1154    3.7738    3.2497 O   0  5  0  0  0  0  0  0  0  0  0  0
   -2.0599    3.4004    3.5419 O   0  0  0  0  0  0  0  0  0  0  0  0
    1.1030   -0.4479    0.1104 C   0  0  0  0  0  0  0  0  0  0  0  0
    1.2798   -0.9769   -0.9833 O   0  0  0  0  0  0  0  0  0  0  0  0
    2.0595   -0.6150    1.0959 N   0  0  0  0  0  0  0  0  0  0  0  0
    1.8002   -0.2770    2.0192 H   0  0  0  0  0  0  0  0  0  0  0  0
    3.1542   -1.5667    0.9869 C   0  0  0  0  0  0  0  0  0  0  0  0
    3.7779   -1.3360    0.1174 H   0  0  0  0  0  0  0  0  0  0  0  0
    3.7811   -1.5205    1.8822 H   0  0  0  0  0  0  0  0  0  0  0  0
    2.7653   -2.5850    0.8855 H   0  0  0  0  0  0  0  0  0  0  0  0
  1  2  1  0  0  0  0
  2  3  1  0  0  0  0
  2  4  1  0  0  0  0
  2  5  1  0  0  0  0
  5  6  2  0  0  0  0
  5  7  1  0  0  0  0
  7  8  1  0  0  0  0
  7  9  1  0  0  0  0
  9 10  1  0  0  0  0
  9 11  1  0  0  0  0
  9 20  1  0  0  0  0
 11 12  1  0  0  0  0
 11 13  1  0  0  0  0
 11 14  1  0  0  0  0
 14 15  1  0  0  0  0
 14 16  1  0  0  0  0
 14 17  1  0  0  0  0
 17 18  1  0  0  0  0
 17 19  2  0  0  0  0
 20 21  2  0  0  0  0
 20 22  1  0  0  0  0
 22 23  1  0  0  0  0
 22 24  1  0  0  0  0
 24 25  1  0  0  0  0
 24 26  1  0  0  0  0
 24 27  1  0  0  0  0
M  CHG  1  18  -1
M  END
$$$$

  -OEChem-01062216073D

 27 26  0     1  0  0  0  0  0999 V2000
   -3.3083   -2.7845    1.2047 H   0  0  0  0  0  0  0  0  0  0  0  0
   -3.1884   -1.8263    0.6914 C   0  0  0  0  0  0  0  0  0  0  0  0
   -3.8708   -1.0993    1.1393 H   0  0  0  0  0  0  0  0  0  0  0  0
   -3.4460   -1.9565   -0.3625 H   0  0  0  0  0  0  0  0  0  0  0  0
   -1.7568   -1.3372    0.8186 C   0  0  0  0  0  0  0  0  0  0  0  0
   -0.9648   -1.9756    1.4956 O   0  0  0  0  0  0  0  0  0  0  0  0
   -1.4025   -0.1513    0.2038 N   0  0  0  0  0  0  0  0  0  0  0  0
   -2.1598    0.3765   -0.2173 H   0  0  0  0  0  0  0  0  0  0  0  0
   -0.0874    0.5122    0.2959 C   0  0  1  0  0  0  0  0  0  0  0  0
   -0.0001    1.2249   -0.5294 H   0  0  0  0  0  0  0  0  0  0  0  0
   -0.0357    1.3119    1.6125 C   0  0  0  0  0  0  0  0  0  0  0  0
   -0.2615    0.6576    2.4616 H   0  0  0  0  0  0  0  0  0  0  0  0
    0.9737    1.7121    1.7583 H   0  0  0  0  0  0  0  0  0  0  0  0
   -1.0280    2.4887    1.5884 C   0  0  0  0  0  0  0  0  0  0  0  0
   -0.7751    3.1682    0.7696 H   0  0  0  0  0  0  0  0  0  0  0  0
   -2.0444    2.1221    1.4180 H   0  0  0  0  0  0  0  0  0  0  0  0
   -0.9954    3.2675    2.9026 C   0  0  0  0  0  0  0  0  0  0  0  0
    0.0620    3.8809    3.1900 O   0  5  0  0  0  0  0  0  0  0  0  0
   -2.0331    3.2553    3.6095 O   0  0  0  0  0  0  0  0  0  0  0  0
    1.1229   -0.4386    0.1256 C   0  0  0  0  0  0  0  0  0  0  0  0
    1.4443   -0.7955   -1.0040 O   0  0  0  0  0  0  0  0  0  0  0  0
    1.8933   -0.8336    1.2036 N   0  0  0  0  0  0  0  0  0  0  0  0
    1.4523   -0.6984    2.1101 H   0  0  0  0  0  0  0  0  0  0  0  0
    2.9408   -1.8371    1.0948 C   0  0  0  0  0  0  0  0  0  0  0  0
    3.6924   -1.5298    0.3606 H   0  0  0  0  0  0  0  0  0  0  0  0
    3.4368   -1.9670    2.0611 H   0  0  0  0  0  0  0  0  0  0  0  0
    2.5168   -2.7987    0.7877 H   0  0  0  0  0  0  0  0  0  0  0  0
  1  2  1  0  0  0  0
  2  3  1  0  0  0  0
  2  4  1  0  0  0  0
  2  5  1  0  0  0  0
  5  6  2  0  0  0  0
  5  7  1  0  0  0  0
  7  8  1  0  0  0  0
  7  9  1  0  0  0  0
  9 10  1  0  0  0  0
  9 11  1  0  0  0  0
  9 20  1  0  0  0  0
 11 12  1  0  0  0  0
 11 13  1  0  0  0  0
 11 14  1  0  0  0  0
 14 15  1  0  0  0  0
 14 16  1  0  0  0  0
 14 17  1  0  0  0  0
 17 18  1  0  0  0  0
 17 19  2  0  0  0  0
 20 21  2  0  0  0  0
 20 22  1  0  0  0  0
 22 23  1  0  0  0  0
 22 24  1  0  0  0  0
 24 25  1  0  0  0  0
 24 26  1  0  0  0  0
 24 27  1  0  0  0  0
M  CHG  1  18  -1
M  END
$$$$

  -OEChem-01062216073D

 27 26  0     1  0  0  0  0  0999 V2000
   -3.3854   -2.7446    1.1959 H   0  0  0  0  0  0  0  0  0  0  0  0
   -3.2414   -1.7803    0.7003 C   0  0  0  0  0  0  0  0  0  0  0  0
   -3.8934   -1.0405    1.1723 H   0  0  0  0  0  0  0  0  0  0  0  0
   -3.5176   -1.8807   -0.3522 H   0  0  0  0  0  0  0  0  0  0  0  0
   -1.7936   -1.3390    0.8182 C   0  0  0  0  0  0  0  0  0  0  0  0
   -1.0210   -2.0015    1.4941 O   0  0  0  0  0  0  0  0  0  0  0  0
   -1.4060   -0.1649    0.2010 N   0  0  0  0  0  0  0  0  0  0  0  0
   -2.1561    0.3875   -0.2021 H   0  0  0  0  0  0  0  0  0  0  0  0
   -0.0821    0.4834    0.2982 C   0  0  1  0  0  0  0  0  0  0  0  0
    0.0144    1.1948   -0.5276 H   0  0  0  0  0  0  0  0  0  0  0  0
   -0.0346    1.2839    1.6137 C   0  0  0  0  0  0  0  0  0  0  0  0
   -0.2745    0.6343    2.4625 H   0  0  0  0  0  0  0  0  0  0  0  0
    0.9779    1.6727    1.7689 H   0  0  0  0  0  0  0  0  0  0  0  0
   -1.0163    2.4695    1.5748 C   0  0  0  0  0  0  0  0  0  0  0  0
   -0.7482    3.1436    0.7562 H   0  0  0  0  0  0  0  0  0  0  0  0
   -2.0347    2.1132    1.3946 H   0  0  0  0  0  0  0  0  0  0  0  0
   -0.9924    3.2531    2.8858 C   0  0  0  0  0  0  0  0  0  0  0  0
    0.0236    3.9489    3.1311 O   0  5  0  0  0  0  0  0  0  0  0  0
   -1.9985    3.1621    3.6322 O   0  0  0  0  0  0  0  0  0  0  0  0
    1.1353   -0.4619    0.1505 C   0  0  0  0  0  0  0  0  0  0  0  0
    1.6344   -0.6206   -0.9594 O   0  0  0  0  0  0  0  0  0  0  0  0
    1.7060   -1.0841    1.2444 N   0  0  0  0  0  0  0  0  0  0  0  0
    1.0726   -1.1693    2.0387 H   0  0  0  0  0  0  0  0  0  0  0  0
    2.7690   -2.0688    1.1181 C   0  0  0  0  0  0  0  0  0  0  0  0
    3.6414   -1.6296    0.6235 H   0  0  0  0  0  0  0  0  0  0  0  0
    3.0747   -2.4178    2.1087 H   0  0  0  0  0  0  0  0  0  0  0  0
    2.4256   -2.9294    0.5351 H   0  0  0  0  0  0  0  0  0  0  0  0
  1  2  1  0  0  0  0
  2  3  1  0  0  0  0
  2  4  1  0  0  0  0
  2  5  1  0  0  0  0
  5  6  2  0  0  0  0
  5  7  1  0  0  0  0
  7  8  1  0  0  0  0
  7  9  1  0  0  0  0
  9 10  1  0  0  0  0
  9 11  1  0  0  0  0
  9 20  1  0  0  0  0
 11 12  1  0  0  0  0
 11 13  1  0  0  0  0
 11 14  1  0  0  0  0
 14 15  1  0  0  0  0
 14 16  1  0  0  0  0
 14 17  1  0  0  0  0
 17 18  1  0  0  0  0
 17 19  2  0  0  0  0
 20 21  2  0  0  0  0
 20 22  1  0  0  0  0
 22 23  1  0  0  0  0
 22 24  1  0  0  0  0
 24 25  1  0  0  0  0
 24 26  1  0  0  0  0
 24 27  1  0  0  0  0
M  CHG  1  18  -1
M  END
$$$$

  -OEChem-01062216073D

 27 26  0     1  0  0  0  0  0999 V2000
   -3.5097   -2.6696    1.2142 H   0  0  0  0  0  0  0  0  0  0  0  0
   -3.3166   -1.7304    0.6882 C   0  0  0  0  0  0  0  0  0  0  0  0
   -3.9517   -0.9505    1.1167 H   0  0  0  0  0  0  0  0  0  0  0  0
   -3.5709   -1.8586   -0.3667 H   0  0  0  0  0  0  0  0  0  0  0  0
   -1.8559   -1.3396    0.8265 C   0  0  0  0  0  0  0  0  0  0  0  0
   -1.1184   -2.0320    1.5107 O   0  0  0  0  0  0  0  0  0  0  0  0
   -1.4229   -0.1821    0.2078 N   0  0  0  0  0  0  0  0  0  0  0  0
   -2.1579    0.3850   -0.2031 H   0  0  0  0  0  0  0  0  0  0  0  0
   -0.0882    0.4503    0.2993 C   0  0  1  0  0  0  0  0  0  0  0  0
    0.0090    1.1606   -0.5276 H   0  0  0  0  0  0  0  0  0  0  0  0
   -0.0367    1.2495    1.6146 C   0  0  0  0  0  0  0  0  0  0  0  0
   -0.2832    0.6011    2.4624 H   0  0  0  0  0  0  0  0  0  0  0  0
    0.9791    1.6284    1.7726 H   0  0  0  0  0  0  0  0  0  0  0  0
   -1.0070    2.4446    1.5743 C   0  0  0  0  0  0  0  0  0  0  0  0
   -0.7311    3.1161    0.7561 H   0  0  0  0  0  0  0  0  0  0  0  0
   -2.0287    2.0991    1.3920 H   0  0  0  0  0  0  0  0  0  0  0  0
   -0.9785    3.2266    2.8861 C   0  0  0  0  0  0  0  0  0  0  0  0
    0.0155    3.9613    3.1060 O   0  5  0  0  0  0  0  0  0  0  0  0
   -1.9604    3.0957    3.6583 O   0  0  0  0  0  0  0  0  0  0  0  0
    1.1440   -0.4797    0.1708 C   0  0  0  0  0  0  0  0  0  0  0  0
    1.7957   -0.4605   -0.8687 O   0  0  0  0  0  0  0  0  0  0  0  0
    1.5417   -1.3160    1.1952 N   0  0  0  0  0  0  0  0  0  0  0  0
    0.7936   -1.5265    1.8597 H   0  0  0  0  0  0  0  0  0  0  0  0
    2.6142   -2.2878    1.0504 C   0  0  0  0  0  0  0  0  0  0  0  0
    3.5424   -1.7929    0.7470 H   0  0  0  0  0  0  0  0  0  0  0  0
    2.7910   -2.7937    2.0041 H   0  0  0  0  0  0  0  0  0  0  0  0
    2.3501   -3.0390    0.2994 H   0  0  0  0  0  0  0  0  0  0  0  0
  1  2  1  0  0  0  0
  2  3  1  0  0  0  0
  2  4  1  0  0  0  0
  2  5  1  0  0  0  0
  5  6  2  0  0  0  0
  5  7  1  0  0  0  0
  7  8  1  0  0  0  0
  7  9  1  0  0  0  0
  9 10  1  0  0  0  0
  9 11  1  0  0  0  0
  9 20  1  0  0  0  0
 11 12  1  0  0  0  0
 11 13  1  0  0  0  0
 11 14  1  0  0  0  0
 14 15  1  0  0  0  0
 14 16  1  0  0  0  0
 14 17  1  0  0  0  0
 17 18  1  0  0  0  0
 17 19  2  0  0  0  0
 20 21  2  0  0  0  0
 20 22  1  0  0  0  0
 22 23  1  0  0  0  0
 22 24  1  0  0  0  0
 24 25  1  0  0  0  0
 24 26  1  0  0  0  0
 24 27  1  0  0  0  0
M  CHG  1  18  -1
M  END
$$$$

  -OEChem-01062216073D

 27 26  0     1  0  0  0  0  0999 V2000
   -3.6400   -2.6068    1.1913 H   0  0  0  0  0  0  0  0  0  0  0  0
   -3.4078   -1.6600    0.6954 C   0  0  0  0  0  0  0  0  0  0  0  0
   -3.9992   -0.8662    1.1593 H   0  0  0  0  0  0  0  0  0  0  0  0
   -3.6812   -1.7391   -0.3596 H   0  0  0  0  0  0  0  0  0  0  0  0
   -1.9284   -1.3440    0.8277 C   0  0  0  0  0  0  0  0  0  0  0  0
   -1.2274   -2.0842    1.4985 O   0  0  0  0  0  0  0  0  0  0  0  0
   -1.4453   -0.2050    0.2111 N   0  0  0  0  0  0  0  0  0  0  0  0
   -2.1663    0.3906   -0.1846 H   0  0  0  0  0  0  0  0  0  0  0  0
   -0.0978    0.4069    0.2991 C   0  0  1  0  0  0  0  0  0  0  0  0
    0.0019    1.1132   -0.5308 H   0  0  0  0  0  0  0  0  0  0  0  0
   -0.0480    1.2109    1.6112 C   0  0  0  0  0  0  0  0  0  0  0  0
   -0.3076    0.5677    2.4590 H   0  0  0  0  0  0  0  0  0  0  0  0
    0.9707    1.5796    1.7763 H   0  0  0  0  0  0  0  0  0  0  0  0
   -1.0035    2.4180    1.5584 C   0  0  0  0  0  0  0  0  0  0  0  0
   -0.7128    3.0826    0.7396 H   0  0  0  0  0  0  0  0  0  0  0  0
   -2.0283    2.0858    1.3695 H   0  0  0  0  0  0  0  0  0  0  0  0
   -0.9763    3.2043    2.8675 C   0  0  0  0  0  0  0  0  0  0  0  0
   -0.0108    3.9825    3.0626 O   0  5  0  0  0  0  0  0  0  0  0  0
   -1.9327    3.0314    3.6633 O   0  0  0  0  0  0  0  0  0  0  0  0
    1.1519   -0.5052    0.1898 C   0  0  0  0  0  0  0  0  0  0  0  0
    1.9343   -0.3197   -0.7367 O   0  0  0  0  0  0  0  0  0  0  0  0
    1.4118   -1.5375    1.0681 N   0  0  0  0  0  0  0  0  0  0  0  0
    0.6144   -1.8095    1.6489 H   0  0  0  0  0  0  0  0  0  0  0  0
    2.4964   -2.4905    0.8919 C   0  0  0  0  0  0  0  0  0  0  0  0
    3.4602   -1.9726    0.8577 H   0  0  0  0  0  0  0  0  0  0  0  0
    2.5140   -3.1952    1.7285 H   0  0  0  0  0  0  0  0  0  0  0  0
    2.3626   -3.0541   -0.0368 H   0  0  0  0  0  0  0  0  0  0  0  0
  1  2  1  0  0  0  0
  2  3  1  0  0  0  0
  2  4  1  0  0  0  0
  2  5  1  0  0  0  0
  5  6  2  0  0  0  0
  5  7  1  0  0  0  0
  7  8  1  0  0  0  0
  7  9  1  0  0  0  0
  9 10  1  0  0  0  0
  9 11  1  0  0  0  0
  9 20  1  0  0  0  0
 11 12  1  0  0  0  0
 11 13  1  0  0  0  0
 11 14  1  0  0  0  0
 14 15  1  0  0  0  0
 14 16  1  0  0  0  0
 14 17  1  0  0  0  0
 17 18  1  0  0  0  0
 17 19  2  0  0  0  0
 20 21  2  0  0  0  0
 20 22  1  0  0  0  0
 22 23  1  0  0  0  0
 22 24  1  0  0  0  0
 24 25  1  0  0  0  0
 24 26  1  0  0  0  0
 24 27  1  0  0  0  0
M  CHG  1  18  -1
M  END
$$$$

  -OEChem-01062216073D

 27 26  0     1  0  0  0  0  0999 V2000
   -3.7611   -2.5385    1.2035 H   0  0  0  0  0  0  0  0  0  0  0  0
   -3.4970   -1.5968    0.7139 C   0  0  0  0  0  0  0  0  0  0  0  0
   -4.0517   -0.7849    1.1920 H   0  0  0  0  0  0  0  0  0  0  0  0
   -3.7845   -1.6548   -0.3388 H   0  0  0  0  0  0  0  0  0  0  0  0
   -2.0051   -1.3401    0.8322 C   0  0  0  0  0  0  0  0  0  0  0  0
   -1.3304   -2.1130    1.4921 O   0  0  0  0  0  0  0  0  0  0  0  0
   -1.4877   -0.2171    0.2136 N   0  0  0  0  0  0  0  0  0  0  0  0
   -2.1973    0.4015   -0.1673 H   0  0  0  0  0  0  0  0  0  0  0  0
   -0.1253    0.3679    0.2824 C   0  0  1  0  0  0  0  0  0  0  0  0
   -0.0278    1.0744   -0.5480 H   0  0  0  0  0  0  0  0  0  0  0  0
   -0.0567    1.1690    1.5956 C   0  0  0  0  0  0  0  0  0  0  0  0
   -0.3204    0.5273    2.4433 H   0  0  0  0  0  0  0  0  0  0  0  0
    0.9680    1.5227    1.7564 H   0  0  0  0  0  0  0  0  0  0  0  0
   -0.9943    2.3914    1.5499 C   0  0  0  0  0  0  0  0  0  0  0  0
   -0.6974    3.0529    0.7306 H   0  0  0  0  0  0  0  0  0  0  0  0
   -2.0248    2.0753    1.3653 H   0  0  0  0  0  0  0  0  0  0  0  0
   -0.9510    3.1774    2.8590 C   0  0  0  0  0  0  0  0  0  0  0  0
    0.0383    3.9226    3.0632 O   0  5  0  0  0  0  0  0  0  0  0  0
   -1.9227    3.0415    3.6435 O   0  0  0  0  0  0  0  0  0  0  0  0
    1.1279   -0.5420    0.1651 C   0  0  0  0  0  0  0  0  0  0  0  0
    2.0175   -0.2072   -0.6100 O   0  0  0  0  0  0  0  0  0  0  0  0
    1.2797   -1.7414    0.8294 N   0  0  0  0  0  0  0  0  0  0  0  0
    0.4738   -2.0516    1.3777 H   0  0  0  0  0  0  0  0  0  0  0  0
    2.4127   -2.6383    0.6638 C   0  0  0  0  0  0  0  0  0  0  0  0
    3.3404   -2.1412    0.9646 H   0  0  0  0  0  0  0  0  0  0  0  0
    2.2789   -3.5275    1.2865 H   0  0  0  0  0  0  0  0  0  0  0  0
    2.5014   -2.9557   -0.3800 H   0  0  0  0  0  0  0  0  0  0  0  0
  1  2  1  0  0  0  0
  2  3  1  0  0  0  0
  2  4  1  0  0  0  0
  2  5  1  0  0  0  0
  5  6  2  0  0  0  0
  5  7  1  0  0  0  0
  7  8  1  0  0  0  0
  7  9  1  0  0  0  0
  9 10  1  0  0  0  0
  9 11  1  0  0  0  0
  9 20  1  0  0  0  0
 11 12  1  0  0  0  0
 11 13  1  0  0  0  0
 11 14  1  0  0  0  0
 14 15  1  0  0  0  0
 14 16  1  0  0  0  0
 14 17  1  0  0  0  0
 17 18  1  0  0  0  0
 17 19  2  0  0  0  0
 20 21  2  0  0  0  0
 20 22  1  0  0  0  0
 22 23  1  0  0  0  0
 22 24  1  0  0  0  0
 24 25  1  0  0  0  0
 24 26  1  0  0  0  0
 24 27  1  0  0  0  0
M  CHG  1  18  -1
M  END
$$$$

  -OEChem-01062216073D

 27 26  0     1  0  0  0  0  0999 V2000
   -3.8393   -2.5011    1.1835 H   0  0  0  0  0  0  0  0  0  0  0  0
   -3.5623   -1.5472    0.7259 C   0  0  0  0  0  0  0  0  0  0  0  0
   -4.0812   -0.7414    1.2518 H   0  0  0  0  0  0  0  0  0  0  0  0
   -3.8797   -1.5536   -0.3196 H   0  0  0  0  0  0  0  0  0  0  0  0
   -2.0613   -1.3345    0.8139 C   0  0  0  0  0  0  0  0  0  0  0  0
   -1.3940   -2.1393    1.4424 O   0  0  0  0  0  0  0  0  0  0  0  0
   -1.5281   -0.2146    0.2024 N   0  0  0  0  0  0  0  0  0  0  0  0
   -2.2324    0.4292   -0.1453 H   0  0  0  0  0  0  0  0  0  0  0  0
   -0.1536    0.3450    0.2551 C   0  0  1  0  0  0  0  0  0  0  0  0
   -0.0593    1.0565   -0.5709 H   0  0  0  0  0  0  0  0  0  0  0  0
   -0.0585    1.1342    1.5747 C   0  0  0  0  0  0  0  0  0  0  0  0
   -0.3227    0.4896    2.4203 H   0  0  0  0  0  0  0  0  0  0  0  0
    0.9727    1.4725    1.7281 H   0  0  0  0  0  0  0  0  0  0  0  0
   -0.9774    2.3713    1.5470 C   0  0  0  0  0  0  0  0  0  0  0  0
   -0.6804    3.0322    0.7271 H   0  0  0  0  0  0  0  0  0  0  0  0
   -2.0156    2.0746    1.3741 H   0  0  0  0  0  0  0  0  0  0  0  0
   -0.9085    3.1457    2.8614 C   0  0  0  0  0  0  0  0  0  0  0  0
   -0.0349    4.0402    2.9715 O   0  5  0  0  0  0  0  0  0  0  0  0
   -1.7491    2.8489    3.7464 O   0  0  0  0  0  0  0  0  0  0  0  0
    1.0926   -0.5716    0.1069 C   0  0  0  0  0  0  0  0  0  0  0  0
    2.0756   -0.1189   -0.4692 O   0  0  0  0  0  0  0  0  0  0  0  0
    1.1455   -1.8934    0.4978 N   0  0  0  0  0  0  0  0  0  0  0  0
    0.3382   -2.2332    1.0250 H   0  0  0  0  0  0  0  0  0  0  0  0
    2.3306   -2.7317    0.4042 C   0  0  0  0  0  0  0  0  0  0  0  0
    3.1367   -2.3230    1.0218 H   0  0  0  0  0  0  0  0  0  0  0  0
    2.1012   -3.7423    0.7547 H   0  0  0  0  0  0  0  0  0  0  0  0
    2.6746   -2.7957   -0.6331 H   0  0  0  0  0  0  0  0  0  0  0  0
  1  2  1  0  0  0  0
  2  3  1  0  0  0  0
  2  4  1  0  0  0  0
  2  5  1  0  0  0  0
  5  6  2  0  0  0  0
  5  7  1  0  0  0  0
  7  8  1  0  0  0  0
  7  9  1  0  0  0  0
  9 10  1  0  0  0  0
  9 11  1  0  0  0  0
  9 20  1  0  0  0  0
 11 12  1  0  0  0  0
 11 13  1  0  0  0  0
 11 14  1  0  0  0  0
 14 15  1  0  0  0  0
 14 16  1  0  0  0  0
 14 17  1  0  0  0  0
 17 18  1  0  0  0  0
 17 19  2  0  0  0  0
 20 21  2  0  0  0  0
 20 22  1  0  0  0  0
 22 23  1  0  0  0  0
 22 24  1  0  0  0  0
 24 25  1  0  0  0  0
 24 26  1  0  0  0  0
 24 27  1  0  0  0  0
M  CHG  1  18  -1
M  END
$$$$

  -OEChem-01062216073D

 27 26  0     1  0  0  0  0  0999 V2000
   -3.8882   -2.4103    1.1554 H   0  0  0  0  0  0  0  0  0  0  0  0
   -3.5845   -1.4773    0.6719 C   0  0  0  0  0  0  0  0  0  0  0  0
   -4.0885   -0.6444    1.1694 H   0  0  0  0  0  0  0  0  0  0  0  0
   -3.8935   -1.5073   -0.3758 H   0  0  0  0  0  0  0  0  0  0  0  0
   -2.0796   -1.2985    0.7666 C   0  0  0  0  0  0  0  0  0  0  0  0
   -1.4281   -2.1339    1.3712 O   0  0  0  0  0  0  0  0  0  0  0  0
   -1.5187   -0.1790    0.1804 N   0  0  0  0  0  0  0  0  0  0  0  0
   -2.2051    0.4907   -0.1548 H   0  0  0  0  0  0  0  0  0  0  0  0
   -0.1307    0.3443    0.2555 C   0  0  1  0  0  0  0  0  0  0  0  0
   -0.0082    1.0687   -0.5553 H   0  0  0  0  0  0  0  0  0  0  0  0
   -0.0300    1.1047    1.5932 C   0  0  0  0  0  0  0  0  0  0  0  0
   -0.3162    0.4488    2.4227 H   0  0  0  0  0  0  0  0  0  0  0  0
    1.0074    1.4141    1.7632 H   0  0  0  0  0  0  0  0  0  0  0  0
   -0.9216    2.3676    1.5812 C   0  0  0  0  0  0  0  0  0  0  0  0
   -0.5995    3.0263    0.7696 H   0  0  0  0  0  0  0  0  0  0  0  0
   -1.9595    2.0836    1.3882 H   0  0  0  0  0  0  0  0  0  0  0  0
   -0.9007    3.1724    2.8851 C   0  0  0  0  0  0  0  0  0  0  0  0
   -1.7328    4.1104    2.9605 O   0  5  0  0  0  0  0  0  0  0  0  0
   -0.0975    2.8567    3.7976 O   0  0  0  0  0  0  0  0  0  0  0  0
    1.0913   -0.6041    0.0973 C   0  0  0  0  0  0  0  0  0  0  0  0
    2.1555   -0.1176   -0.2692 O   0  0  0  0  0  0  0  0  0  0  0  0
    1.0248   -1.9808    0.1785 N   0  0  0  0  0  0  0  0  0  0  0  0
    0.1857   -2.3409    0.6371 H   0  0  0  0  0  0  0  0  0  0  0  0
    2.1892   -2.8499    0.0933 C   0  0  0  0  0  0  0  0  0  0  0  0
    2.8877   -2.6329    0.9077 H   0  0  0  0  0  0  0  0  0  0  0  0
    1.8803   -3.8965    0.1689 H   0  0  0  0  0  0  0  0  0  0  0  0
    2.7038   -2.7109   -0.8629 H   0  0  0  0  0  0  0  0  0  0  0  0
  1  2  1  0  0  0  0
  2  3  1  0  0  0  0
  2  4  1  0  0  0  0
  2  5  1  0  0  0  0
  5  6  2  0  0  0  0
  5  7  1  0  0  0  0
  7  8  1  0  0  0  0
  7  9  1  0  0  0  0
  9 10  1  0  0  0  0
  9 11  1  0  0  0  0
  9 20  1  0  0  0  0
 11 12  1  0  0  0  0
 11 13  1  0  0  0  0
 11 14  1  0  0  0  0
 14 15  1  0  0  0  0
 14 16  1  0  0  0  0
 14 17  1  0  0  0  0
 17 18  1  0  0  0  0
 17 19  2  0  0  0  0
 20 21  2  0  0  0  0
 20 22  1  0  0  0  0
 22 23  1  0  0  0  0
 22 24  1  0  0  0  0
 24 25  1  0  0  0  0
 24 26  1  0  0  0  0
 24 27  1  0  0  0  0
M  CHG  1  18  -1
M  END
$$$$

  -OEChem-01062216073D

 27 26  0     1  0  0  0  0  0999 V2000
   -3.6702   -2.5647    1.4927 H   0  0  0  0  0  0  0  0  0  0  0  0
   -3.4735   -1.6317    0.9568 C   0  0  0  0  0  0  0  0  0  0  0  0
   -3.9426   -0.8091    1.5034 H   0  0  0  0  0  0  0  0  0  0  0  0
   -3.9172   -1.6967   -0.0398 H   0  0  0  0  0  0  0  0  0  0  0  0
   -1.9786   -1.3903    0.8465 C   0  0  0  0  0  0  0  0  0  0  0  0
   -1.2128   -2.2182    1.3119 O   0  0  0  0  0  0  0  0  0  0  0  0
   -1.5477   -0.2391    0.2136 N   0  0  0  0  0  0  0  0  0  0  0  0
   -2.3020    0.4092    0.0056 H   0  0  0  0  0  0  0  0  0  0  0  0
   -0.1948    0.3733    0.2005 C   0  0  1  0  0  0  0  0  0  0  0  0
   -0.1638    1.0950   -0.6210 H   0  0  0  0  0  0  0  0  0  0  0  0
   -0.0829    1.1525    1.5276 C   0  0  0  0  0  0  0  0  0  0  0  0
   -0.2822    0.4880    2.3755 H   0  0  0  0  0  0  0  0  0  0  0  0
    0.9359    1.5380    1.6464 H   0  0  0  0  0  0  0  0  0  0  0  0
   -1.0600    2.3466    1.5486 C   0  0  0  0  0  0  0  0  0  0  0  0
   -0.8254    3.0293    0.7269 H   0  0  0  0  0  0  0  0  0  0  0  0
   -2.0874    2.0002    1.4065 H   0  0  0  0  0  0  0  0  0  0  0  0
   -0.9882    3.1211    2.8639 C   0  0  0  0  0  0  0  0  0  0  0  0
   -1.9783    3.0307    3.6324 O   0  5  0  0  0  0  0  0  0  0  0  0
    0.0380    3.8064    3.0930 O   0  0  0  0  0  0  0  0  0  0  0  0
    1.0696   -0.5032   -0.0281 C   0  0  0  0  0  0  0  0  0  0  0  0
    2.1401    0.0547   -0.2407 O   0  0  0  0  0  0  0  0  0  0  0  0
    1.0235   -1.8695   -0.2271 N   0  0  0  0  0  0  0  0  0  0  0  0
    0.1977   -2.3160    0.1754 H   0  0  0  0  0  0  0  0  0  0  0  0
    2.2150   -2.6866   -0.4058 C   0  0  0  0  0  0  0  0  0  0  0  0
    2.8783   -2.5905    0.4598 H   0  0  0  0  0  0  0  0  0  0  0  0
    1.9341   -3.7383   -0.5139 H   0  0  0  0  0  0  0  0  0  0  0  0
    2.7584   -2.3810   -1.3056 H   0  0  0  0  0  0  0  0  0  0  0  0
  1  2  1  0  0  0  0
  2  3  1  0  0  0  0
  2  4  1  0  0  0  0
  2  5  1  0  0  0  0
  5  6  2  0  0  0  0
  5  7  1  0  0  0  0
  7  8  1  0  0  0  0
  7  9  1  0  0  0  0
  9 10  1  0  0  0  0
  9 11  1  0  0  0  0
  9 20  1  0  0  0  0
 11 12  1  0  0  0  0
 11 13  1  0  0  0  0
 11 14  1  0  0  0  0
 14 15  1  0  0  0  0
 14 16  1  0  0  0  0
 14 17  1  0  0  0  0
 17 18  1  0  0  0  0
 17 19  2  0  0  0  0
 20 21  2  0  0  0  0
 20 22  1  0  0  0  0
 22 23  1  0  0  0  0
 22 24  1  0  0  0  0
 24 25  1  0  0  0  0
 24 26  1  0  0  0  0
 24 27  1  0  0  0  0
M  CHG  1  18  -1
M  END
$$$$

  -OEChem-01062216073D

 27 26  0     1  0  0  0  0  0999 V2000
   -3.5907   -2.5703    1.4804 H   0  0  0  0  0  0  0  0  0  0  0  0
   -3.4128   -1.6016    1.0047 C   0  0  0  0  0  0  0  0  0  0  0  0
   -3.8054   -0.8150    1.6550 H   0  0  0  0  0  0  0  0  0  0  0  0
   -3.9442   -1.5741    0.0504 H   0  0  0  0  0  0  0  0  0  0  0  0
   -1.9262   -1.3890    0.7806 C   0  0  0  0  0  0  0  0  0  0  0  0
   -1.1471   -2.2694    1.1065 O   0  0  0  0  0  0  0  0  0  0  0  0
   -1.5127   -0.2226    0.1644 N   0  0  0  0  0  0  0  0  0  0  0  0
   -2.2672    0.4476    0.0434 H   0  0  0  0  0  0  0  0  0  0  0  0
   -0.1616    0.3921    0.1898 C   0  0  1  0  0  0  0  0  0  0  0  0
   -0.1078    1.1215   -0.6233 H   0  0  0  0  0  0  0  0  0  0  0  0
   -0.0892    1.1584    1.5283 C   0  0  0  0  0  0  0  0  0  0  0  0
   -0.3079    0.4838    2.3633 H   0  0  0  0  0  0  0  0  0  0  0  0
    0.9223    1.5506    1.6808 H   0  0  0  0  0  0  0  0  0  0  0  0
   -1.0714    2.3481    1.5327 C   0  0  0  0  0  0  0  0  0  0  0  0
   -0.8190    3.0362    0.7203 H   0  0  0  0  0  0  0  0  0  0  0  0
   -2.0951    2.0020    1.3678 H   0  0  0  0  0  0  0  0  0  0  0  0
   -1.0332    3.1036    2.8591 C   0  0  0  0  0  0  0  0  0  0  0  0
   -1.7299    2.6410    3.7967 O   0  5  0  0  0  0  0  0  0  0  0  0
   -0.3537    4.1569    2.9205 O   0  0  0  0  0  0  0  0  0  0  0  0
    1.0945   -0.4989   -0.0272 C   0  0  0  0  0  0  0  0  0  0  0  0
    2.2094    0.0086    0.0189 O   0  0  0  0  0  0  0  0  0  0  0  0
    1.0026   -1.7795   -0.5391 N   0  0  0  0  0  0  0  0  0  0  0  0
    0.1294   -2.2427   -0.2829 H   0  0  0  0  0  0  0  0  0  0  0  0
    2.1695   -2.6263   -0.7422 C   0  0  0  0  0  0  0  0  0  0  0  0
    2.7066   -2.7704    0.2009 H   0  0  0  0  0  0  0  0  0  0  0  0
    1.8592   -3.6051   -1.1194 H   0  0  0  0  0  0  0  0  0  0  0  0
    2.8492   -2.1754   -1.4722 H   0  0  0  0  0  0  0  0  0  0  0  0
  1  2  1  0  0  0  0
  2  3  1  0  0  0  0
  2  4  1  0  0  0  0
  2  5  1  0  0  0  0
  5  6  2  0  0  0  0
  5  7  1  0  0  0  0
  7  8  1  0  0  0  0
  7  9  1  0  0  0  0
  9 10  1  0  0  0  0
  9 11  1  0  0  0  0
  9 20  1  0  0  0  0
 11 12  1  0  0  0  0
 11 13  1  0  0  0  0
 11 14  1  0  0  0  0
 14 15  1  0  0  0  0
 14 16  1  0  0  0  0
 14 17  1  0  0  0  0
 17 18  1  0  0  0  0
 17 19  2  0  0  0  0
 20 21  2  0  0  0  0
 20 22  1  0  0  0  0
 22 23  1  0  0  0  0
 22 24  1  0  0  0  0
 24 25  1  0  0  0  0
 24 26  1  0  0  0  0
 24 27  1  0  0  0  0
M  CHG  1  18  -1
M  END
$$$$

  -OEChem-01062216073D

 27 26  0     1  0  0  0  0  0999 V2000
   -3.4710   -2.5751    1.5393 H   0  0  0  0  0  0  0  0  0  0  0  0
   -3.3233   -1.6003    1.0659 C   0  0  0  0  0  0  0  0  0  0  0  0
   -3.6526   -0.8212    1.7593 H   0  0  0  0  0  0  0  0  0  0  0  0
   -3.9310   -1.5512    0.1591 H   0  0  0  0  0  0  0  0  0  0  0  0
   -1.8582   -1.3971    0.7241 C   0  0  0  0  0  0  0  0  0  0  0  0
   -1.0709   -2.3111    0.9056 O   0  0  0  0  0  0  0  0  0  0  0  0
   -1.4751   -0.2127    0.1242 N   0  0  0  0  0  0  0  0  0  0  0  0
   -2.2327    0.4640    0.0848 H   0  0  0  0  0  0  0  0  0  0  0  0
   -0.1312    0.4114    0.1898 C   0  0  1  0  0  0  0  0  0  0  0  0
   -0.0576    1.1472   -0.6156 H   0  0  0  0  0  0  0  0  0  0  0  0
   -0.0972    1.1691    1.5350 C   0  0  0  0  0  0  0  0  0  0  0  0
   -0.3316    0.4878    2.3604 H   0  0  0  0  0  0  0  0  0  0  0  0
    0.9062    1.5693    1.7160 H   0  0  0  0  0  0  0  0  0  0  0  0
   -1.0883    2.3515    1.5201 C   0  0  0  0  0  0  0  0  0  0  0  0
   -0.8193    3.0450    0.7175 H   0  0  0  0  0  0  0  0  0  0  0  0
   -2.1051    1.9994    1.3277 H   0  0  0  0  0  0  0  0  0  0  0  0
   -1.0916    3.1009    2.8503 C   0  0  0  0  0  0  0  0  0  0  0  0
   -1.7639    2.5959    3.7838 O   0  5  0  0  0  0  0  0  0  0  0  0
   -0.4776    4.1935    2.9152 O   0  0  0  0  0  0  0  0  0  0  0  0
    1.1134   -0.4957   -0.0180 C   0  0  0  0  0  0  0  0  0  0  0  0
    2.2325   -0.1002    0.2882 O   0  0  0  0  0  0  0  0  0  0  0  0
    1.0274   -1.6163   -0.8233 N   0  0  0  0  0  0  0  0  0  0  0  0
    0.1147   -2.0654   -0.7548 H   0  0  0  0  0  0  0  0  0  0  0  0
    2.1714   -2.4834   -1.0667 C   0  0  0  0  0  0  0  0  0  0  0  0
    2.5571   -2.8813   -0.1224 H   0  0  0  0  0  0  0  0  0  0  0  0
    1.8758   -3.3222   -1.7036 H   0  0  0  0  0  0  0  0  0  0  0  0
    2.9711   -1.9326   -1.5723 H   0  0  0  0  0  0  0  0  0  0  0  0
  1  2  1  0  0  0  0
  2  3  1  0  0  0  0
  2  4  1  0  0  0  0
  2  5  1  0  0  0  0
  5  6  2  0  0  0  0
  5  7  1  0  0  0  0
  7  8  1  0  0  0  0
  7  9  1  0  0  0  0
  9 10  1  0  0  0  0
  9 11  1  0  0  0  0
  9 20  1  0  0  0  0
 11 12  1  0  0  0  0
 11 13  1  0  0  0  0
 11 14  1  0  0  0  0
 14 15  1  0  0  0  0
 14 16  1  0  0  0  0
 14 17  1  0  0  0  0
 17 18  1  0  0  0  0
 17 19  2  0  0  0  0
 20 21  2  0  0  0  0
 20 22  1  0  0  0  0
 22 23  1  0  0  0  0
 22 24  1  0  0  0  0
 24 25  1  0  0  0  0
 24 26  1  0  0  0  0
 24 27  1  0  0  0  0
M  CHG  1  18  -1
M  END
$$$$

  -OEChem-01062216073D

 27 26  0     1  0  0  0  0  0999 V2000
   -3.3676   -2.6388    1.5099 H   0  0  0  0  0  0  0  0  0  0  0  0
   -3.2406   -1.6372    1.0894 C   0  0  0  0  0  0  0  0  0  0  0  0
   -3.5436   -0.9014    1.8396 H   0  0  0  0  0  0  0  0  0  0  0  0
   -3.8841   -1.5377    0.2119 H   0  0  0  0  0  0  0  0  0  0  0  0
   -1.7906   -1.4077    0.7026 C   0  0  0  0  0  0  0  0  0  0  0  0
   -0.9876   -2.3179    0.8228 O   0  0  0  0  0  0  0  0  0  0  0  0
   -1.4415   -0.2077    0.1127 N   0  0  0  0  0  0  0  0  0  0  0  0
   -2.2087    0.4597    0.1162 H   0  0  0  0  0  0  0  0  0  0  0  0
   -0.1085    0.4326    0.2012 C   0  0  1  0  0  0  0  0  0  0  0  0
   -0.0280    1.1725   -0.5998 H   0  0  0  0  0  0  0  0  0  0  0  0
   -0.0942    1.1908    1.5461 C   0  0  0  0  0  0  0  0  0  0  0  0
   -0.3297    0.5087    2.3704 H   0  0  0  0  0  0  0  0  0  0  0  0
    0.9035    1.6015    1.7350 H   0  0  0  0  0  0  0  0  0  0  0  0
   -1.0977    2.3626    1.5153 C   0  0  0  0  0  0  0  0  0  0  0  0
   -0.8272    3.0567    0.7140 H   0  0  0  0  0  0  0  0  0  0  0  0
   -2.1079    1.9986    1.3114 H   0  0  0  0  0  0  0  0  0  0  0  0
   -1.1264    3.1175    2.8418 C   0  0  0  0  0  0  0  0  0  0  0  0
   -1.8588    2.6462    3.7472 O   0  5  0  0  0  0  0  0  0  0  0  0
   -0.4687    4.1829    2.9298 O   0  0  0  0  0  0  0  0  0  0  0  0
    1.1242   -0.4879   -0.0097 C   0  0  0  0  0  0  0  0  0  0  0  0
    2.1979   -0.2661    0.5382 O   0  0  0  0  0  0  0  0  0  0  0  0
    1.1037   -1.3918   -1.0565 N   0  0  0  0  0  0  0  0  0  0  0  0
    0.1695   -1.7343   -1.2631 H   0  0  0  0  0  0  0  0  0  0  0  0
    2.2176   -2.2911   -1.3224 C   0  0  0  0  0  0  0  0  0  0  0  0
    2.4103   -2.9281   -0.4529 H   0  0  0  0  0  0  0  0  0  0  0  0
    1.9862   -2.9311   -2.1788 H   0  0  0  0  0  0  0  0  0  0  0  0
    3.1241   -1.7222   -1.5530 H   0  0  0  0  0  0  0  0  0  0  0  0
  1  2  1  0  0  0  0
  2  3  1  0  0  0  0
  2  4  1  0  0  0  0
  2  5  1  0  0  0  0
  5  6  2  0  0  0  0
  5  7  1  0  0  0  0
  7  8  1  0  0  0  0
  7  9  1  0  0  0  0
  9 10  1  0  0  0  0
  9 11  1  0  0  0  0
  9 20  1  0  0  0  0
 11 12  1  0  0  0  0
 11 13  1  0  0  0  0
 11 14  1  0  0  0  0
 14 15  1  0  0  0  0
 14 16  1  0  0  0  0
 14 17  1  0  0  0  0
 17 18  1  0  0  0  0
 17 19  2  0  0  0  0
 20 21  2  0  0  0  0
 20 22  1  0  0  0  0
 22 23  1  0  0  0  0
 22 24  1  0  0  0  0
 24 25  1  0  0  0  0
 24 26  1  0  0  0  0
 24 27  1  0  0  0  0
M  CHG  1  18  -1
M  END
$$$$

  -OEChem-01062216073D

 27 26  0     1  0  0  0  0  0999 V2000
   -3.2891   -2.6347    1.5886 H   0  0  0  0  0  0  0  0  0  0  0  0
   -3.1940   -1.6602    1.1014 C   0  0  0  0  0  0  0  0  0  0  0  0
   -3.5103   -0.8853    1.8052 H   0  0  0  0  0  0  0  0  0  0  0  0
   -3.8475   -1.6360    0.2262 H   0  0  0  0  0  0  0  0  0  0  0  0
   -1.7542   -1.4185    0.6849 C   0  0  0  0  0  0  0  0  0  0  0  0
   -0.9443   -2.3257    0.7766 O   0  0  0  0  0  0  0  0  0  0  0  0
   -1.4249   -0.2088    0.1031 N   0  0  0  0  0  0  0  0  0  0  0  0
   -2.1988    0.4503    0.1268 H   0  0  0  0  0  0  0  0  0  0  0  0
   -0.0995    0.4416    0.2075 C   0  0  1  0  0  0  0  0  0  0  0  0
   -0.0168    1.1873   -0.5876 H   0  0  0  0  0  0  0  0  0  0  0  0
   -0.0925    1.1974    1.5529 C   0  0  0  0  0  0  0  0  0  0  0  0
   -0.3291    0.5133    2.3752 H   0  0  0  0  0  0  0  0  0  0  0  0
    0.9041    1.6105    1.7447 H   0  0  0  0  0  0  0  0  0  0  0  0
   -1.1018    2.3638    1.5175 C   0  0  0  0  0  0  0  0  0  0  0  0
   -0.8309    3.0593    0.7173 H   0  0  0  0  0  0  0  0  0  0  0  0
   -2.1088    1.9936    1.3075 H   0  0  0  0  0  0  0  0  0  0  0  0
   -1.1414    3.1203    2.8428 C   0  0  0  0  0  0  0  0  0  0  0  0
   -1.9184    2.6804    3.7265 O   0  5  0  0  0  0  0  0  0  0  0  0
   -0.4442    4.1585    2.9491 O   0  0  0  0  0  0  0  0  0  0  0  0
    1.1291   -0.4818   -0.0044 C   0  0  0  0  0  0  0  0  0  0  0  0
    2.1030   -0.4643    0.7396 O   0  0  0  0  0  0  0  0  0  0  0  0
    1.2448   -1.1364   -1.2177 N   0  0  0  0  0  0  0  0  0  0  0  0
    0.3597   -1.2992   -1.6861 H   0  0  0  0  0  0  0  0  0  0  0  0
    2.3421   -2.0494   -1.5039 C   0  0  0  0  0  0  0  0  0  0  0  0
    2.3453   -2.8784   -0.7887 H   0  0  0  0  0  0  0  0  0  0  0  0
    2.2355   -2.4591   -2.5125 H   0  0  0  0  0  0  0  0  0  0  0  0
    3.3024   -1.5270   -1.4448 H   0  0  0  0  0  0  0  0  0  0  0  0
  1  2  1  0  0  0  0
  2  3  1  0  0  0  0
  2  4  1  0  0  0  0
  2  5  1  0  0  0  0
  5  6  2  0  0  0  0
  5  7  1  0  0  0  0
  7  8  1  0  0  0  0
  7  9  1  0  0  0  0
  9 10  1  0  0  0  0
  9 11  1  0  0  0  0
  9 20  1  0  0  0  0
 11 12  1  0  0  0  0
 11 13  1  0  0  0  0
 11 14  1  0  0  0  0
 14 15  1  0  0  0  0
 14 16  1  0  0  0  0
 14 17  1  0  0  0  0
 17 18  1  0  0  0  0
 17 19  2  0  0  0  0
 20 21  2  0  0  0  0
 20 22  1  0  0  0  0
 22 23  1  0  0  0  0
 22 24  1  0  0  0  0
 24 25  1  0  0  0  0
 24 26  1  0  0  0  0
 24 27  1  0  0  0  0
M  CHG  1  18  -1
M  END
$$$$

  -OEChem-01062216073D

 27 26  0     1  0  0  0  0  0999 V2000
   -3.4432   -2.5338    1.4082 H   0  0  0  0  0  0  0  0  0  0  0  0
   -3.2842   -1.5454    0.9678 C   0  0  0  0  0  0  0  0  0  0  0  0
   -3.5719   -0.7864    1.7006 H   0  0  0  0  0  0  0  0  0  0  0  0
   -3.9167   -1.4458    0.0825 H   0  0  0  0  0  0  0  0  0  0  0  0
   -1.8249   -1.3672    0.5889 C   0  0  0  0  0  0  0  0  0  0  0  0
   -1.0703   -2.3226    0.6554 O   0  0  0  0  0  0  0  0  0  0  0  0
   -1.4206   -0.1601    0.0504 N   0  0  0  0  0  0  0  0  0  0  0  0
   -2.1632    0.5337    0.0757 H   0  0  0  0  0  0  0  0  0  0  0  0
   -0.0735    0.4238    0.2285 C   0  0  1  0  0  0  0  0  0  0  0  0
    0.0759    1.1841   -0.5428 H   0  0  0  0  0  0  0  0  0  0  0  0
   -0.0841    1.1521    1.5881 C   0  0  0  0  0  0  0  0  0  0  0  0
   -0.3883    0.4653    2.3858 H   0  0  0  0  0  0  0  0  0  0  0  0
    0.9244    1.5076    1.8269 H   0  0  0  0  0  0  0  0  0  0  0  0
   -1.0320    2.3682    1.5371 C   0  0  0  0  0  0  0  0  0  0  0  0
   -0.6919    3.0653    0.7654 H   0  0  0  0  0  0  0  0  0  0  0  0
   -2.0466    2.0560    1.2763 H   0  0  0  0  0  0  0  0  0  0  0  0
   -1.0880    3.1002    2.8755 C   0  0  0  0  0  0  0  0  0  0  0  0
   -0.3162    4.0755    3.0449 O   0  5  0  0  0  0  0  0  0  0  0  0
   -1.9441    2.7060    3.7057 O   0  0  0  0  0  0  0  0  0  0  0  0
    1.1211   -0.5494    0.0474 C   0  0  0  0  0  0  0  0  0  0  0  0
    1.9219   -0.7851    0.9449 O   0  0  0  0  0  0  0  0  0  0  0  0
    1.4549   -0.9348   -1.2392 N   0  0  0  0  0  0  0  0  0  0  0  0
    0.7046   -0.8646   -1.9175 H   0  0  0  0  0  0  0  0  0  0  0  0
    2.5512   -1.8512   -1.5198 C   0  0  0  0  0  0  0  0  0  0  0  0
    2.3919   -2.8053   -1.0066 H   0  0  0  0  0  0  0  0  0  0  0  0
    2.6163   -2.0407   -2.5952 H   0  0  0  0  0  0  0  0  0  0  0  0
    3.5032   -1.4246   -1.1872 H   0  0  0  0  0  0  0  0  0  0  0  0
  1  2  1  0  0  0  0
  2  3  1  0  0  0  0
  2  4  1  0  0  0  0
  2  5  1  0  0  0  0
  5  6  2  0  0  0  0
  5  7  1  0  0  0  0
  7  8  1  0  0  0  0
  7  9  1  0  0  0  0
  9 10  1  0  0  0  0
  9 11  1  0  0  0  0
  9 20  1  0  0  0  0
 11 12  1  0  0  0  0
 11 13  1  0  0  0  0
 11 14  1  0  0  0  0
 14 15  1  0  0  0  0
 14 16  1  0  0  0  0
 14 17  1  0  0  0  0
 17 18  1  0  0  0  0
 17 19  2  0  0  0  0
 20 21  2  0  0  0  0
 20 22  1  0  0  0  0
 22 23  1  0  0  0  0
 22 24  1  0  0  0  0
 24 25  1  0  0  0  0
 24 26  1  0  0  0  0
 24 27  1  0  0  0  0
M  CHG  1  18  -1
M  END
$$$$

  -OEChem-01062216073D

 27 26  0     1  0  0  0  0  0999 V2000
   -3.4668   -2.5517    1.4098 H   0  0  0  0  0  0  0  0  0  0  0  0
   -3.2977   -1.5489    1.0075 C   0  0  0  0  0  0  0  0  0  0  0  0
   -3.5424   -0.8155    1.7810 H   0  0  0  0  0  0  0  0  0  0  0  0
   -3.9562   -1.3959    0.1491 H   0  0  0  0  0  0  0  0  0  0  0  0
   -1.8476   -1.3880    0.5879 C   0  0  0  0  0  0  0  0  0  0  0  0
   -1.1078   -2.3562    0.6163 O   0  0  0  0  0  0  0  0  0  0  0  0
   -1.4452   -0.1837    0.0428 N   0  0  0  0  0  0  0  0  0  0  0  0
   -2.1856    0.5116    0.0808 H   0  0  0  0  0  0  0  0  0  0  0  0
   -0.0974    0.3995    0.2123 C   0  0  1  0  0  0  0  0  0  0  0  0
    0.0395    1.1585   -0.5622 H   0  0  0  0  0  0  0  0  0  0  0  0
   -0.0912    1.1368    1.5660 C   0  0  0  0  0  0  0  0  0  0  0  0
   -0.3914    0.4567    2.3708 H   0  0  0  0  0  0  0  0  0  0  0  0
    0.9223    1.4867    1.7915 H   0  0  0  0  0  0  0  0  0  0  0  0
   -1.0341    2.3564    1.5167 C   0  0  0  0  0  0  0  0  0  0  0  0
   -0.7004    3.0474    0.7370 H   0  0  0  0  0  0  0  0  0  0  0  0
   -2.0520    2.0442    1.2681 H   0  0  0  0  0  0  0  0  0  0  0  0
   -1.0724    3.0975    2.8507 C   0  0  0  0  0  0  0  0  0  0  0  0
   -0.2257    4.0044    3.0420 O   0  5  0  0  0  0  0  0  0  0  0  0
   -1.9846    2.7820    3.6543 O   0  0  0  0  0  0  0  0  0  0  0  0
    1.1082   -0.5614    0.0335 C   0  0  0  0  0  0  0  0  0  0  0  0
    1.7630   -0.9758    0.9832 O   0  0  0  0  0  0  0  0  0  0  0  0
    1.6499   -0.7061   -1.2326 N   0  0  0  0  0  0  0  0  0  0  0  0
    1.0513   -0.4433   -2.0070 H   0  0  0  0  0  0  0  0  0  0  0  0
    2.8139   -1.5379   -1.5043 C   0  0  0  0  0  0  0  0  0  0  0  0
    2.6214   -2.5737   -1.2062 H   0  0  0  0  0  0  0  0  0  0  0  0
    3.0464   -1.5209   -2.5730 H   0  0  0  0  0  0  0  0  0  0  0  0
    3.6863   -1.1675   -0.9561 H   0  0  0  0  0  0  0  0  0  0  0  0
  1  2  1  0  0  0  0
  2  3  1  0  0  0  0
  2  4  1  0  0  0  0
  2  5  1  0  0  0  0
  5  6  2  0  0  0  0
  5  7  1  0  0  0  0
  7  8  1  0  0  0  0
  7  9  1  0  0  0  0
  9 10  1  0  0  0  0
  9 11  1  0  0  0  0
  9 20  1  0  0  0  0
 11 12  1  0  0  0  0
 11 13  1  0  0  0  0
 11 14  1  0  0  0  0
 14 15  1  0  0  0  0
 14 16  1  0  0  0  0
 14 17  1  0  0  0  0
 17 18  1  0  0  0  0
 17 19  2  0  0  0  0
 20 21  2  0  0  0  0
 20 22  1  0  0  0  0
 22 23  1  0  0  0  0
 22 24  1  0  0  0  0
 24 25  1  0  0  0  0
 24 26  1  0  0  0  0
 24 27  1  0  0  0  0
M  CHG  1  18  -1
M  END
$$$$

  -OEChem-01062216073D

 27 26  0     1  0  0  0  0  0999 V2000
   -3.4176   -2.5012    1.5454 H   0  0  0  0  0  0  0  0  0  0  0  0
   -3.2702   -1.5131    1.1006 C   0  0  0  0  0  0  0  0  0  0  0  0
   -3.4147   -0.7559    1.8763 H   0  0  0  0  0  0  0  0  0  0  0  0
   -4.0121   -1.3632    0.3127 H   0  0  0  0  0  0  0  0  0  0  0  0
   -1.8695   -1.3992    0.5270 C   0  0  0  0  0  0  0  0  0  0  0  0
   -1.1899   -2.4037    0.4040 O   0  0  0  0  0  0  0  0  0  0  0  0
   -1.4711   -0.1947   -0.0191 N   0  0  0  0  0  0  0  0  0  0  0  0
   -2.2017    0.5062    0.0709 H   0  0  0  0  0  0  0  0  0  0  0  0
   -0.1218    0.3798    0.1627 C   0  0  1  0  0  0  0  0  0  0  0  0
    0.0161    1.1442   -0.6057 H   0  0  0  0  0  0  0  0  0  0  0  0
   -0.1155    1.1048    1.5221 C   0  0  0  0  0  0  0  0  0  0  0  0
   -0.4231    0.4192    2.3195 H   0  0  0  0  0  0  0  0  0  0  0  0
    0.9000    1.4436    1.7546 H   0  0  0  0  0  0  0  0  0  0  0  0
   -1.0495    2.3308    1.4835 C   0  0  0  0  0  0  0  0  0  0  0  0
   -0.7089    3.0286    0.7128 H   0  0  0  0  0  0  0  0  0  0  0  0
   -2.0692    2.0286    1.2296 H   0  0  0  0  0  0  0  0  0  0  0  0
   -1.0830    3.0558    2.8261 C   0  0  0  0  0  0  0  0  0  0  0  0
   -0.2135    3.9361    3.0373 O   0  5  0  0  0  0  0  0  0  0  0  0
   -2.0089    2.7517    3.6183 O   0  0  0  0  0  0  0  0  0  0  0  0
    1.0931   -0.5718   -0.0030 C   0  0  0  0  0  0  0  0  0  0  0  0
    1.5837   -1.1693    0.9478 O   0  0  0  0  0  0  0  0  0  0  0  0
    1.8514   -0.4872   -1.1590 N   0  0  0  0  0  0  0  0  0  0  0  0
    1.4346   -0.0071   -1.9480 H   0  0  0  0  0  0  0  0  0  0  0  0
    3.0804   -1.2415   -1.3642 C   0  0  0  0  0  0  0  0  0  0  0  0
    2.8928   -2.3149   -1.2575 H   0  0  0  0  0  0  0  0  0  0  0  0
    3.4725   -1.0558   -2.3683 H   0  0  0  0  0  0  0  0  0  0  0  0
    3.8399   -0.9407   -0.6353 H   0  0  0  0  0  0  0  0  0  0  0  0
  1  2  1  0  0  0  0
  2  3  1  0  0  0  0
  2  4  1  0  0  0  0
  2  5  1  0  0  0  0
  5  6  2  0  0  0  0
  5  7  1  0  0  0  0
  7  8  1  0  0  0  0
  7  9  1  0  0  0  0
  9 10  1  0  0  0  0
  9 11  1  0  0  0  0
  9 20  1  0  0  0  0
 11 12  1  0  0  0  0
 11 13  1  0  0  0  0
 11 14  1  0  0  0  0
 14 15  1  0  0  0  0
 14 16  1  0  0  0  0
 14 17  1  0  0  0  0
 17 18  1  0  0  0  0
 17 19  2  0  0  0  0
 20 21  2  0  0  0  0
 20 22  1  0  0  0  0
 22 23  1  0  0  0  0
 22 24  1  0  0  0  0
 24 25  1  0  0  0  0
 24 26  1  0  0  0  0
 24 27  1  0  0  0  0
M  CHG  1  18  -1
M  END
$$$$

  -OEChem-01062216073D

 27 26  0     1  0  0  0  0  0999 V2000
   -3.3951   -2.5064    1.5914 H   0  0  0  0  0  0  0  0  0  0  0  0
   -3.2338   -1.5024    1.1894 C   0  0  0  0  0  0  0  0  0  0  0  0
   -3.2613   -0.7864    2.0158 H   0  0  0  0  0  0  0  0  0  0  0  0
   -4.0371   -1.2675    0.4871 H   0  0  0  0  0  0  0  0  0  0  0  0
   -1.8888   -1.4267    0.4893 C   0  0  0  0  0  0  0  0  0  0  0  0
   -1.2854   -2.4558    0.2386 O   0  0  0  0  0  0  0  0  0  0  0  0
   -1.4956   -0.2259   -0.0663 N   0  0  0  0  0  0  0  0  0  0  0  0
   -2.2188    0.4769    0.0589 H   0  0  0  0  0  0  0  0  0  0  0  0
   -0.1461    0.3487    0.1132 C   0  0  1  0  0  0  0  0  0  0  0  0
   -0.0193    1.1073   -0.6626 H   0  0  0  0  0  0  0  0  0  0  0  0
   -0.1303    1.0794    1.4685 C   0  0  0  0  0  0  0  0  0  0  0  0
   -0.4358    0.3986    2.2708 H   0  0  0  0  0  0  0  0  0  0  0  0
    0.8877    1.4161    1.6941 H   0  0  0  0  0  0  0  0  0  0  0  0
   -1.0606    2.3075    1.4296 C   0  0  0  0  0  0  0  0  0  0  0  0
   -0.7229    3.0017    0.6543 H   0  0  0  0  0  0  0  0  0  0  0  0
   -2.0825    2.0067    1.1828 H   0  0  0  0  0  0  0  0  0  0  0  0
   -1.0820    3.0362    2.7703 C   0  0  0  0  0  0  0  0  0  0  0  0
   -0.1626    3.8588    3.0020 O   0  5  0  0  0  0  0  0  0  0  0  0
   -2.0412    2.7895    3.5422 O   0  0  0  0  0  0  0  0  0  0  0  0
    1.0838   -0.5853   -0.0399 C   0  0  0  0  0  0  0  0  0  0  0  0
    1.4285   -1.3543    0.8490 O   0  0  0  0  0  0  0  0  0  0  0  0
    2.0208   -0.2971   -1.0191 N   0  0  0  0  0  0  0  0  0  0  0  0
    1.7842    0.4192   -1.6957 H   0  0  0  0  0  0  0  0  0  0  0  0
    3.3143   -0.9596   -1.1168 C   0  0  0  0  0  0  0  0  0  0  0  0
    3.1835   -2.0429   -1.2062 H   0  0  0  0  0  0  0  0  0  0  0  0
    3.8538   -0.6027   -1.9990 H   0  0  0  0  0  0  0  0  0  0  0  0
    3.9206   -0.7477   -0.2301 H   0  0  0  0  0  0  0  0  0  0  0  0
  1  2  1  0  0  0  0
  2  3  1  0  0  0  0
  2  4  1  0  0  0  0
  2  5  1  0  0  0  0
  5  6  2  0  0  0  0
  5  7  1  0  0  0  0
  7  8  1  0  0  0  0
  7  9  1  0  0  0  0
  9 10  1  0  0  0  0
  9 11  1  0  0  0  0
  9 20  1  0  0  0  0
 11 12  1  0  0  0  0
 11 13  1  0  0  0  0
 11 14  1  0  0  0  0
 14 15  1  0  0  0  0
 14 16  1  0  0  0  0
 14 17  1  0  0  0  0
 17 18  1  0  0  0  0
 17 19  2  0  0  0  0
 20 21  2  0  0  0  0
 20 22  1  0  0  0  0
 22 23  1  0  0  0  0
 22 24  1  0  0  0  0
 24 25  1  0  0  0  0
 24 26  1  0  0  0  0
 24 27  1  0  0  0  0
M  CHG  1  18  -1
M  END
$$$$

  -OEChem-01062216073D

 27 26  0     1  0  0  0  0  0999 V2000
   -3.4438   -2.9182    1.1368 H   0  0  0  0  0  0  0  0  0  0  0  0
   -3.2664   -1.9906    0.5853 C   0  0  0  0  0  0  0  0  0  0  0  0
   -4.0751   -1.2892    0.8053 H   0  0  0  0  0  0  0  0  0  0  0  0
   -3.2651   -2.2135   -0.4843 H   0  0  0  0  0  0  0  0  0  0  0  0
   -1.9335   -1.3859    0.9911 C   0  0  0  0  0  0  0  0  0  0  0  0
   -1.3373   -1.8678    1.9386 O   0  0  0  0  0  0  0  0  0  0  0  0
   -1.5295   -0.2177    0.3704 N   0  0  0  0  0  0  0  0  0  0  0  0
   -2.1842    0.1565   -0.3065 H   0  0  0  0  0  0  0  0  0  0  0  0
   -0.1766    0.3797    0.3899 C   0  0  1  0  0  0  0  0  0  0  0  0
   -0.1581    1.0684   -0.4583 H   0  0  0  0  0  0  0  0  0  0  0  0
    0.0173    1.2439    1.6462 C   0  0  0  0  0  0  0  0  0  0  0  0
   -0.2016    0.6527    2.5423 H   0  0  0  0  0  0  0  0  0  0  0  0
    1.0594    1.5739    1.7150 H   0  0  0  0  0  0  0  0  0  0  0  0
   -0.8965    2.4843    1.5970 C   0  0  0  0  0  0  0  0  0  0  0  0
   -0.6514    3.0879    0.7187 H   0  0  0  0  0  0  0  0  0  0  0  0
   -1.9413    2.1722    1.5088 H   0  0  0  0  0  0  0  0  0  0  0  0
   -0.7462    3.3572    2.8425 C   0  0  0  0  0  0  0  0  0  0  0  0
    0.3889    3.8513    3.0603 O   0  5  0  0  0  0  0  0  0  0  0  0
   -1.7757    3.5991    3.5192 O   0  0  0  0  0  0  0  0  0  0  0  0
    1.0629   -0.5284    0.1538 C   0  0  0  0  0  0  0  0  0  0  0  0
    1.0952   -1.7301    0.3786 O   0  0  0  0  0  0  0  0  0  0  0  0
    2.0378   -0.0485   -0.7073 N   0  0  0  0  0  0  0  0  0  0  0  0
    2.0646    0.9581   -0.8364 H   0  0  0  0  0  0  0  0  0  0  0  0
    3.2047   -0.8248   -1.1072 C   0  0  0  0  0  0  0  0  0  0  0  0
    2.8995   -1.7123   -1.6711 H   0  0  0  0  0  0  0  0  0  0  0  0
    3.8580   -0.2204   -1.7435 H   0  0  0  0  0  0  0  0  0  0  0  0
    3.7737   -1.1421   -0.2272 H   0  0  0  0  0  0  0  0  0  0  0  0
  1  2  1  0  0  0  0
  2  3  1  0  0  0  0
  2  4  1  0  0  0  0
  2  5  1  0  0  0  0
  5  6  2  0  0  0  0
  5  7  1  0  0  0  0
  7  8  1  0  0  0  0
  7  9  1  0  0  0  0
  9 10  1  0  0  0  0
  9 11  1  0  0  0  0
  9 20  1  0  0  0  0
 11 12  1  0  0  0  0
 11 13  1  0  0  0  0
 11 14  1  0  0  0  0
 14 15  1  0  0  0  0
 14 16  1  0  0  0  0
 14 17  1  0  0  0  0
 17 18  1  0  0  0  0
 17 19  2  0  0  0  0
 20 21  2  0  0  0  0
 20 22  1  0  0  0  0
 22 23  1  0  0  0  0
 22 24  1  0  0  0  0
 24 25  1  0  0  0  0
 24 26  1  0  0  0  0
 24 27  1  0  0  0  0
M  CHG  1  18  -1
M  END
$$$$

  -OEChem-01062216073D

 27 26  0     1  0  0  0  0  0999 V2000
   -3.3890   -2.9342    1.1516 H   0  0  0  0  0  0  0  0  0  0  0  0
   -3.2245   -2.0221    0.5709 C   0  0  0  0  0  0  0  0  0  0  0  0
   -4.0601   -1.3391    0.7423 H   0  0  0  0  0  0  0  0  0  0  0  0
   -3.1851   -2.2828   -0.4895 H   0  0  0  0  0  0  0  0  0  0  0  0
   -1.9227   -1.3621    0.9901 C   0  0  0  0  0  0  0  0  0  0  0  0
   -1.3122   -1.8117    1.9467 O   0  0  0  0  0  0  0  0  0  0  0  0
   -1.5417   -0.1908    0.3607 N   0  0  0  0  0  0  0  0  0  0  0  0
   -2.1674    0.1323   -0.3677 H   0  0  0  0  0  0  0  0  0  0  0  0
   -0.1877    0.4003    0.3942 C   0  0  1  0  0  0  0  0  0  0  0  0
   -0.1481    1.0865   -0.4553 H   0  0  0  0  0  0  0  0  0  0  0  0
    0.0085    1.2609    1.6539 C   0  0  0  0  0  0  0  0  0  0  0  0
   -0.2176    0.6699    2.5481 H   0  0  0  0  0  0  0  0  0  0  0  0
    1.0527    1.5824    1.7279 H   0  0  0  0  0  0  0  0  0  0  0  0
   -0.8935    2.5093    1.6091 C   0  0  0  0  0  0  0  0  0  0  0  0
   -0.6418    3.1147    0.7338 H   0  0  0  0  0  0  0  0  0  0  0  0
   -1.9410    2.2065    1.5191 H   0  0  0  0  0  0  0  0  0  0  0  0
   -0.7342    3.3728    2.8605 C   0  0  0  0  0  0  0  0  0  0  0  0
    0.4166    3.8154    3.1060 O   0  5  0  0  0  0  0  0  0  0  0  0
   -1.7663    3.6557    3.5171 O   0  0  0  0  0  0  0  0  0  0  0  0
    1.0340   -0.5314    0.1687 C   0  0  0  0  0  0  0  0  0  0  0  0
    0.9335   -1.7455    0.0356 O   0  0  0  0  0  0  0  0  0  0  0  0
    2.1555    0.0407   -0.4105 N   0  0  0  0  0  0  0  0  0  0  0  0
    2.2666    1.0402   -0.2647 H   0  0  0  0  0  0  0  0  0  0  0  0
    3.3245   -0.7264   -0.8210 C   0  0  0  0  0  0  0  0  0  0  0  0
    3.0654   -1.4186   -1.6285 H   0  0  0  0  0  0  0  0  0  0  0  0
    4.1067   -0.0525   -1.1825 H   0  0  0  0  0  0  0  0  0  0  0  0
    3.7226   -1.2993    0.0228 H   0  0  0  0  0  0  0  0  0  0  0  0
  1  2  1  0  0  0  0
  2  3  1  0  0  0  0
  2  4  1  0  0  0  0
  2  5  1  0  0  0  0
  5  6  2  0  0  0  0
  5  7  1  0  0  0  0
  7  8  1  0  0  0  0
  7  9  1  0  0  0  0
  9 10  1  0  0  0  0
  9 11  1  0  0  0  0
  9 20  1  0  0  0  0
 11 12  1  0  0  0  0
 11 13  1  0  0  0  0
 11 14  1  0  0  0  0
 14 15  1  0  0  0  0
 14 16  1  0  0  0  0
 14 17  1  0  0  0  0
 17 18  1  0  0  0  0
 17 19  2  0  0  0  0
 20 21  2  0  0  0  0
 20 22  1  0  0  0  0
 22 23  1  0  0  0  0
 22 24  1  0  0  0  0
 24 25  1  0  0  0  0
 24 26  1  0  0  0  0
 24 27  1  0  0  0  0
M  CHG  1  18  -1
M  END
$$$$

  -OEChem-01062216073D

 27 26  0     1  0  0  0  0  0999 V2000
   -3.3646   -2.9195    1.1656 H   0  0  0  0  0  0  0  0  0  0  0  0
   -3.2193   -1.9979    0.5949 C   0  0  0  0  0  0  0  0  0  0  0  0
   -4.0423   -1.3133    0.8145 H   0  0  0  0  0  0  0  0  0  0  0  0
   -3.2279   -2.2400   -0.4706 H   0  0  0  0  0  0  0  0  0  0  0  0
   -1.8962   -1.3525    0.9682 C   0  0  0  0  0  0  0  0  0  0  0  0
   -1.2402   -1.8266    1.8828 O   0  0  0  0  0  0  0  0  0  0  0  0
   -1.5270   -0.1799    0.3342 N   0  0  0  0  0  0  0  0  0  0  0  0
   -2.1654    0.1558   -0.3773 H   0  0  0  0  0  0  0  0  0  0  0  0
   -0.1775    0.4195    0.3758 C   0  0  1  0  0  0  0  0  0  0  0  0
   -0.1203    1.1079   -0.4711 H   0  0  0  0  0  0  0  0  0  0  0  0
   -0.0030    1.2702    1.6478 C   0  0  0  0  0  0  0  0  0  0  0  0
   -0.2316    0.6672    2.5332 H   0  0  0  0  0  0  0  0  0  0  0  0
    1.0354    1.6046    1.7391 H   0  0  0  0  0  0  0  0  0  0  0  0
   -0.9164    2.5102    1.6110 C   0  0  0  0  0  0  0  0  0  0  0  0
   -0.6624    3.1295    0.7462 H   0  0  0  0  0  0  0  0  0  0  0  0
   -1.9604    2.1998    1.5083 H   0  0  0  0  0  0  0  0  0  0  0  0
   -0.7736    3.3569    2.8759 C   0  0  0  0  0  0  0  0  0  0  0  0
    0.3759    3.7857    3.1507 O   0  5  0  0  0  0  0  0  0  0  0  0
   -1.8152    3.6346    3.5193 O   0  0  0  0  0  0  0  0  0  0  0  0
    1.0325   -0.5280    0.1606 C   0  0  0  0  0  0  0  0  0  0  0  0
    0.8910   -1.6818   -0.2324 O   0  0  0  0  0  0  0  0  0  0  0  0
    2.2590    0.0561   -0.1109 N   0  0  0  0  0  0  0  0  0  0  0  0
    2.3852    1.0038    0.2354 H   0  0  0  0  0  0  0  0  0  0  0  0
    3.4428   -0.7031   -0.4906 C   0  0  0  0  0  0  0  0  0  0  0  0
    3.2844   -1.2062   -1.4498 H   0  0  0  0  0  0  0  0  0  0  0  0
    4.3013   -0.0326   -0.5908 H   0  0  0  0  0  0  0  0  0  0  0  0
    3.6762   -1.4548    0.2704 H   0  0  0  0  0  0  0  0  0  0  0  0
  1  2  1  0  0  0  0
  2  3  1  0  0  0  0
  2  4  1  0  0  0  0
  2  5  1  0  0  0  0
  5  6  2  0  0  0  0
  5  7  1  0  0  0  0
  7  8  1  0  0  0  0
  7  9  1  0  0  0  0
  9 10  1  0  0  0  0
  9 11  1  0  0  0  0
  9 20  1  0  0  0  0
 11 12  1  0  0  0  0
 11 13  1  0  0  0  0
 11 14  1  0  0  0  0
 14 15  1  0  0  0  0
 14 16  1  0  0  0  0
 14 17  1  0  0  0  0
 17 18  1  0  0  0  0
 17 19  2  0  0  0  0
 20 21  2  0  0  0  0
 20 22  1  0  0  0  0
 22 23  1  0  0  0  0
 22 24  1  0  0  0  0
 24 25  1  0  0  0  0
 24 26  1  0  0  0  0
 24 27  1  0  0  0  0
M  CHG  1  18  -1
M  END
$$$$

  -OEChem-01062216073D

 27 26  0     1  0  0  0  0  0999 V2000
   -3.3527   -2.8602    1.2417 H   0  0  0  0  0  0  0  0  0  0  0  0
   -3.2336   -1.9143    0.7060 C   0  0  0  0  0  0  0  0  0  0  0  0
   -3.9312   -1.1834    1.1229 H   0  0  0  0  0  0  0  0  0  0  0  0
   -3.4690   -2.0744   -0.3489 H   0  0  0  0  0  0  0  0  0  0  0  0
   -1.8092   -1.4075    0.8460 C   0  0  0  0  0  0  0  0  0  0  0  0
   -1.0066   -2.0563    1.4996 O   0  0  0  0  0  0  0  0  0  0  0  0
   -1.4701   -0.2071    0.2497 N   0  0  0  0  0  0  0  0  0  0  0  0
   -2.2149    0.2922   -0.2223 H   0  0  0  0  0  0  0  0  0  0  0  0
   -0.1394    0.4261    0.3200 C   0  0  1  0  0  0  0  0  0  0  0  0
   -0.1719    1.3026   -0.3321 H   0  0  0  0  0  0  0  0  0  0  0  0
    0.1563    0.9508    1.7406 C   0  0  0  0  0  0  0  0  0  0  0  0
    0.0438    0.1472    2.4753 H   0  0  0  0  0  0  0  0  0  0  0  0
    1.1886    1.3073    1.8051 H   0  0  0  0  0  0  0  0  0  0  0  0
   -0.7806    2.1197    2.0967 C   0  0  0  0  0  0  0  0  0  0  0  0
   -0.6321    2.9398    1.3887 H   0  0  0  0  0  0  0  0  0  0  0  0
   -1.8231    1.7961    2.0236 H   0  0  0  0  0  0  0  0  0  0  0  0
   -0.5210    2.6422    3.5097 C   0  0  0  0  0  0  0  0  0  0  0  0
    0.6450    3.0321    3.7731 O   0  5  0  0  0  0  0  0  0  0  0  0
   -1.4959    2.7117    4.2978 O   0  0  0  0  0  0  0  0  0  0  0  0
    1.0198   -0.4214   -0.2640 C   0  0  0  0  0  0  0  0  0  0  0  0
    0.8020   -1.3410   -1.0479 O   0  0  0  0  0  0  0  0  0  0  0  0
    2.3060    0.0908   -0.2371 N   0  0  0  0  0  0  0  0  0  0  0  0
    2.4792    0.8259    0.4437 H   0  0  0  0  0  0  0  0  0  0  0  0
    3.4491   -0.5857   -0.8336 C   0  0  0  0  0  0  0  0  0  0  0  0
    3.3300   -0.6533   -1.9197 H   0  0  0  0  0  0  0  0  0  0  0  0
    4.3668   -0.0296   -0.6206 H   0  0  0  0  0  0  0  0  0  0  0  0
    3.5527   -1.5958   -0.4242 H   0  0  0  0  0  0  0  0  0  0  0  0
  1  2  1  0  0  0  0
  2  3  1  0  0  0  0
  2  4  1  0  0  0  0
  2  5  1  0  0  0  0
  5  6  2  0  0  0  0
  5  7  1  0  0  0  0
  7  8  1  0  0  0  0
  7  9  1  0  0  0  0
  9 10  1  0  0  0  0
  9 11  1  0  0  0  0
  9 20  1  0  0  0  0
 11 12  1  0  0  0  0
 11 13  1  0  0  0  0
 11 14  1  0  0  0  0
 14 15  1  0  0  0  0
 14 16  1  0  0  0  0
 14 17  1  0  0  0  0
 17 18  1  0  0  0  0
 17 19  2  0  0  0  0
 20 21  2  0  0  0  0
 20 22  1  0  0  0  0
 22 23  1  0  0  0  0
 22 24  1  0  0  0  0
 24 25  1  0  0  0  0
 24 26  1  0  0  0  0
 24 27  1  0  0  0  0
M  CHG  1  18  -1
M  END
$$$$

  -OEChem-01062216073D

 27 26  0     1  0  0  0  0  0999 V2000
   -3.3153   -2.8391    1.2549 H   0  0  0  0  0  0  0  0  0  0  0  0
   -3.2100   -1.8826    0.7353 C   0  0  0  0  0  0  0  0  0  0  0  0
   -3.8744   -1.1525    1.2045 H   0  0  0  0  0  0  0  0  0  0  0  0
   -3.5023   -2.0145   -0.3093 H   0  0  0  0  0  0  0  0  0  0  0  0
   -1.7735   -1.3975    0.8139 C   0  0  0  0  0  0  0  0  0  0  0  0
   -0.9461   -2.0699    1.4109 O   0  0  0  0  0  0  0  0  0  0  0  0
   -1.4450   -0.1918    0.2233 N   0  0  0  0  0  0  0  0  0  0  0  0
   -2.2093    0.3388   -0.1787 H   0  0  0  0  0  0  0  0  0  0  0  0
   -0.1216    0.4540    0.3099 C   0  0  1  0  0  0  0  0  0  0  0  0
   -0.1441    1.3351   -0.3365 H   0  0  0  0  0  0  0  0  0  0  0  0
    0.1417    0.9651    1.7430 C   0  0  0  0  0  0  0  0  0  0  0  0
    0.0314    0.1510    2.4664 H   0  0  0  0  0  0  0  0  0  0  0  0
    1.1651    1.3411    1.8281 H   0  0  0  0  0  0  0  0  0  0  0  0
   -0.8162    2.1173    2.0984 C   0  0  0  0  0  0  0  0  0  0  0  0
   -0.6668    2.9484    1.4035 H   0  0  0  0  0  0  0  0  0  0  0  0
   -1.8530    1.7816    2.0038 H   0  0  0  0  0  0  0  0  0  0  0  0
   -0.5877    2.6238    3.5229 C   0  0  0  0  0  0  0  0  0  0  0  0
    0.5719    3.0073    3.8206 O   0  5  0  0  0  0  0  0  0  0  0  0
   -1.5801    2.6787    4.2898 O   0  0  0  0  0  0  0  0  0  0  0  0
    1.0354   -0.4008   -0.2703 C   0  0  0  0  0  0  0  0  0  0  0  0
    0.8316   -1.1635   -1.2111 O   0  0  0  0  0  0  0  0  0  0  0  0
    2.3514   -0.0797    0.0156 N   0  0  0  0  0  0  0  0  0  0  0  0
    2.5010    0.5140    0.8275 H   0  0  0  0  0  0  0  0  0  0  0  0
    3.4892   -0.7965   -0.5421 C   0  0  0  0  0  0  0  0  0  0  0  0
    3.5116   -0.6913   -1.6315 H   0  0  0  0  0  0  0  0  0  0  0  0
    4.4216   -0.3926   -0.1371 H   0  0  0  0  0  0  0  0  0  0  0  0
    3.4324   -1.8603   -0.2891 H   0  0  0  0  0  0  0  0  0  0  0  0
  1  2  1  0  0  0  0
  2  3  1  0  0  0  0
  2  4  1  0  0  0  0
  2  5  1  0  0  0  0
  5  6  2  0  0  0  0
  5  7  1  0  0  0  0
  7  8  1  0  0  0  0
  7  9  1  0  0  0  0
  9 10  1  0  0  0  0
  9 11  1  0  0  0  0
  9 20  1  0  0  0  0
 11 12  1  0  0  0  0
 11 13  1  0  0  0  0
 11 14  1  0  0  0  0
 14 15  1  0  0  0  0
 14 16  1  0  0  0  0
 14 17  1  0  0  0  0
 17 18  1  0  0  0  0
 17 19  2  0  0  0  0
 20 21  2  0  0  0  0
 20 22  1  0  0  0  0
 22 23  1  0  0  0  0
 22 24  1  0  0  0  0
 24 25  1  0  0  0  0
 24 26  1  0  0  0  0
 24 27  1  0  0  0  0
M  CHG  1  18  -1
M  END
$$$$

  -OEChem-01062216073D

 27 26  0     1  0  0  0  0  0999 V2000
   -3.2836   -2.8236    1.2687 H   0  0  0  0  0  0  0  0  0  0  0  0
   -3.1866   -1.8676    0.7465 C   0  0  0  0  0  0  0  0  0  0  0  0
   -3.8376   -1.1351    1.2305 H   0  0  0  0  0  0  0  0  0  0  0  0
   -3.5029   -1.9986   -0.2912 H   0  0  0  0  0  0  0  0  0  0  0  0
   -1.7468   -1.3877    0.7922 C   0  0  0  0  0  0  0  0  0  0  0  0
   -0.9034   -2.0734    1.3507 O   0  0  0  0  0  0  0  0  0  0  0  0
   -1.4273   -0.1776    0.2062 N   0  0  0  0  0  0  0  0  0  0  0  0
   -2.2027    0.3679   -0.1529 H   0  0  0  0  0  0  0  0  0  0  0  0
   -0.1103    0.4789    0.3055 C   0  0  1  0  0  0  0  0  0  0  0  0
   -0.1291    1.3630   -0.3371 H   0  0  0  0  0  0  0  0  0  0  0  0
    0.1338    0.9812    1.7454 C   0  0  0  0  0  0  0  0  0  0  0  0
    0.0270    0.1602    2.4619 H   0  0  0  0  0  0  0  0  0  0  0  0
    1.1524    1.3701    1.8384 H   0  0  0  0  0  0  0  0  0  0  0  0
   -0.8381    2.1213    2.1024 C   0  0  0  0  0  0  0  0  0  0  0  0
   -0.6897    2.9601    1.4165 H   0  0  0  0  0  0  0  0  0  0  0  0
   -1.8708    1.7769    1.9953 H   0  0  0  0  0  0  0  0  0  0  0  0
   -0.6269    2.6165    3.5337 C   0  0  0  0  0  0  0  0  0  0  0  0
    0.5309    2.9848    3.8556 O   0  5  0  0  0  0  0  0  0  0  0  0
   -1.6307    2.6678    4.2859 O   0  0  0  0  0  0  0  0  0  0  0  0
    1.0455   -0.3790   -0.2713 C   0  0  0  0  0  0  0  0  0  0  0  0
    0.8899   -0.9758   -1.3333 O   0  0  0  0  0  0  0  0  0  0  0  0
    2.3296   -0.2826    0.2355 N   0  0  0  0  0  0  0  0  0  0  0  0
    2.4160    0.1516    1.1510 H   0  0  0  0  0  0  0  0  0  0  0  0
    3.4510   -1.0555   -0.2776 C   0  0  0  0  0  0  0  0  0  0  0  0
    3.6469   -0.7985   -1.3236 H   0  0  0  0  0  0  0  0  0  0  0  0
    4.3517   -0.8409    0.3050 H   0  0  0  0  0  0  0  0  0  0  0  0
    3.2395   -2.1275   -0.2088 H   0  0  0  0  0  0  0  0  0  0  0  0
  1  2  1  0  0  0  0
  2  3  1  0  0  0  0
  2  4  1  0  0  0  0
  2  5  1  0  0  0  0
  5  6  2  0  0  0  0
  5  7  1  0  0  0  0
  7  8  1  0  0  0  0
  7  9  1  0  0  0  0
  9 10  1  0  0  0  0
  9 11  1  0  0  0  0
  9 20  1  0  0  0  0
 11 12  1  0  0  0  0
 11 13  1  0  0  0  0
 11 14  1  0  0  0  0
 14 15  1  0  0  0  0
 14 16  1  0  0  0  0
 14 17  1  0  0  0  0
 17 18  1  0  0  0  0
 17 19  2  0  0  0  0
 20 21  2  0  0  0  0
 20 22  1  0  0  0  0
 22 23  1  0  0  0  0
 22 24  1  0  0  0  0
 24 25  1  0  0  0  0
 24 26  1  0  0  0  0
 24 27  1  0  0  0  0
M  CHG  1  18  -1
M  END
$$$$

  -OEChem-01062216073D

 27 26  0     1  0  0  0  0  0999 V2000
   -3.2685   -2.8052    1.2750 H   0  0  0  0  0  0  0  0  0  0  0  0
   -3.1758   -1.8437    0.7626 C   0  0  0  0  0  0  0  0  0  0  0  0
   -3.8032   -1.1102    1.2756 H   0  0  0  0  0  0  0  0  0  0  0  0
   -3.5254   -1.9568   -0.2664 H   0  0  0  0  0  0  0  0  0  0  0  0
   -1.7297   -1.3813    0.7713 C   0  0  0  0  0  0  0  0  0  0  0  0
   -0.8775   -2.0807    1.2988 O   0  0  0  0  0  0  0  0  0  0  0  0
   -1.4116   -0.1706    0.1863 N   0  0  0  0  0  0  0  0  0  0  0  0
   -2.1933    0.3895   -0.1356 H   0  0  0  0  0  0  0  0  0  0  0  0
   -0.0984    0.4913    0.2979 C   0  0  1  0  0  0  0  0  0  0  0  0
   -0.1116    1.3774   -0.3425 H   0  0  0  0  0  0  0  0  0  0  0  0
    0.1296    0.9853    1.7430 C   0  0  0  0  0  0  0  0  0  0  0  0
    0.0211    0.1598    2.4541 H   0  0  0  0  0  0  0  0  0  0  0  0
    1.1468    1.3777    1.8427 H   0  0  0  0  0  0  0  0  0  0  0  0
   -0.8511    2.1178    2.0998 C   0  0  0  0  0  0  0  0  0  0  0  0
   -0.7006    2.9623    1.4216 H   0  0  0  0  0  0  0  0  0  0  0  0
   -1.8812    1.7690    1.9807 H   0  0  0  0  0  0  0  0  0  0  0  0
   -0.6567    2.6047    3.5365 C   0  0  0  0  0  0  0  0  0  0  0  0
    0.5002    2.9516    3.8841 O   0  5  0  0  0  0  0  0  0  0  0  0
   -1.6740    2.6648    4.2700 O   0  0  0  0  0  0  0  0  0  0  0  0
    1.0607   -0.3677   -0.2676 C   0  0  0  0  0  0  0  0  0  0  0  0
    0.9907   -0.7934   -1.4172 O   0  0  0  0  0  0  0  0  0  0  0  0
    2.2536   -0.5136    0.4178 N   0  0  0  0  0  0  0  0  0  0  0  0
    2.2374   -0.2435    1.3981 H   0  0  0  0  0  0  0  0  0  0  0  0
    3.3546   -1.3359   -0.0609 C   0  0  0  0  0  0  0  0  0  0  0  0
    3.7272   -0.9583   -1.0184 H   0  0  0  0  0  0  0  0  0  0  0  0
    4.1771   -1.3178    0.6602 H   0  0  0  0  0  0  0  0  0  0  0  0
    3.0286   -2.3729   -0.1907 H   0  0  0  0  0  0  0  0  0  0  0  0
  1  2  1  0  0  0  0
  2  3  1  0  0  0  0
  2  4  1  0  0  0  0
  2  5  1  0  0  0  0
  5  6  2  0  0  0  0
  5  7  1  0  0  0  0
  7  8  1  0  0  0  0
  7  9  1  0  0  0  0
  9 10  1  0  0  0  0
  9 11  1  0  0  0  0
  9 20  1  0  0  0  0
 11 12  1  0  0  0  0
 11 13  1  0  0  0  0
 11 14  1  0  0  0  0
 14 15  1  0  0  0  0
 14 16  1  0  0  0  0
 14 17  1  0  0  0  0
 17 18  1  0  0  0  0
 17 19  2  0  0  0  0
 20 21  2  0  0  0  0
 20 22  1  0  0  0  0
 22 23  1  0  0  0  0
 22 24  1  0  0  0  0
 24 25  1  0  0  0  0
 24 26  1  0  0  0  0
 24 27  1  0  0  0  0
M  CHG  1  18  -1
M  END
$$$$

  -OEChem-01062216073D

 27 26  0     1  0  0  0  0  0999 V2000
   -3.2568   -2.8112    1.2297 H   0  0  0  0  0  0  0  0  0  0  0  0
   -3.1701   -1.8251    0.7650 C   0  0  0  0  0  0  0  0  0  0  0  0
   -3.7776   -1.1147    1.3317 H   0  0  0  0  0  0  0  0  0  0  0  0
   -3.5482   -1.8835   -0.2586 H   0  0  0  0  0  0  0  0  0  0  0  0
   -1.7206   -1.3730    0.7583 C   0  0  0  0  0  0  0  0  0  0  0  0
   -0.8661   -2.0828    1.2683 O   0  0  0  0  0  0  0  0  0  0  0  0
   -1.3988   -0.1637    0.1723 N   0  0  0  0  0  0  0  0  0  0  0  0
   -2.1826    0.4091   -0.1215 H   0  0  0  0  0  0  0  0  0  0  0  0
   -0.0869    0.4987    0.2954 C   0  0  1  0  0  0  0  0  0  0  0  0
   -0.0932    1.3857   -0.3444 H   0  0  0  0  0  0  0  0  0  0  0  0
    0.1301    0.9889    1.7425 C   0  0  0  0  0  0  0  0  0  0  0  0
    0.0141    0.1626    2.4515 H   0  0  0  0  0  0  0  0  0  0  0  0
    1.1492    1.3761    1.8488 H   0  0  0  0  0  0  0  0  0  0  0  0
   -0.8537    2.1196    2.0931 C   0  0  0  0  0  0  0  0  0  0  0  0
   -0.6986    2.9658    1.4180 H   0  0  0  0  0  0  0  0  0  0  0  0
   -1.8828    1.7714    1.9652 H   0  0  0  0  0  0  0  0  0  0  0  0
   -0.6671    2.5996    3.5324 C   0  0  0  0  0  0  0  0  0  0  0  0
    0.4599    3.0521    3.8540 O   0  5  0  0  0  0  0  0  0  0  0  0
   -1.6596    2.5356    4.2987 O   0  0  0  0  0  0  0  0  0  0  0  0
    1.0770   -0.3604   -0.2551 C   0  0  0  0  0  0  0  0  0  0  0  0
    1.1255   -0.6062   -1.4569 O   0  0  0  0  0  0  0  0  0  0  0  0
    2.1273   -0.7576    0.5521 N   0  0  0  0  0  0  0  0  0  0  0  0
    1.9654   -0.6714    1.5526 H   0  0  0  0  0  0  0  0  0  0  0  0
    3.1936   -1.6346    0.0939 C   0  0  0  0  0  0  0  0  0  0  0  0
    3.7247   -1.1832   -0.7503 H   0  0  0  0  0  0  0  0  0  0  0  0
    3.9119   -1.8049    0.9013 H   0  0  0  0  0  0  0  0  0  0  0  0
    2.7850   -2.6007   -0.2192 H   0  0  0  0  0  0  0  0  0  0  0  0
  1  2  1  0  0  0  0
  2  3  1  0  0  0  0
  2  4  1  0  0  0  0
  2  5  1  0  0  0  0
  5  6  2  0  0  0  0
  5  7  1  0  0  0  0
  7  8  1  0  0  0  0
  7  9  1  0  0  0  0
  9 10  1  0  0  0  0
  9 11  1  0  0  0  0
  9 20  1  0  0  0  0
 11 12  1  0  0  0  0
 11 13  1  0  0  0  0
 11 14  1  0  0  0  0
 14 15  1  0  0  0  0
 14 16  1  0  0  0  0
 14 17  1  0  0  0  0
 17 18  1  0  0  0  0
 17 19  2  0  0  0  0
 20 21  2  0  0  0  0
 20 22  1  0  0  0  0
 22 23  1  0  0  0  0
 22 24  1  0  0  0  0
 24 25  1  0  0  0  0
 24 26  1  0  0  0  0
 24 27  1  0  0  0  0
M  CHG  1  18  -1
M  END
$$$$

  -OEChem-01062216073D

 27 26  0     1  0  0  0  0  0999 V2000
   -3.2627   -2.8007    1.2116 H   0  0  0  0  0  0  0  0  0  0  0  0
   -3.1710   -1.8049    0.7691 C   0  0  0  0  0  0  0  0  0  0  0  0
   -3.7664   -1.1020    1.3580 H   0  0  0  0  0  0  0  0  0  0  0  0
   -3.5595   -1.8357   -0.2518 H   0  0  0  0  0  0  0  0  0  0  0  0
   -1.7177   -1.3662    0.7580 C   0  0  0  0  0  0  0  0  0  0  0  0
   -0.8680   -2.0823    1.2679 O   0  0  0  0  0  0  0  0  0  0  0  0
   -1.3868   -0.1619    0.1666 N   0  0  0  0  0  0  0  0  0  0  0  0
   -2.1688    0.4174   -0.1200 H   0  0  0  0  0  0  0  0  0  0  0  0
   -0.0744    0.4990    0.2953 C   0  0  1  0  0  0  0  0  0  0  0  0
   -0.0755    1.3863   -0.3447 H   0  0  0  0  0  0  0  0  0  0  0  0
    0.1343    0.9868    1.7438 C   0  0  0  0  0  0  0  0  0  0  0  0
    0.0111    0.1618    2.4529 H   0  0  0  0  0  0  0  0  0  0  0  0
    1.1551    1.3691    1.8551 H   0  0  0  0  0  0  0  0  0  0  0  0
   -0.8517    2.1176    2.0878 C   0  0  0  0  0  0  0  0  0  0  0  0
   -0.6913    2.9645    1.4146 H   0  0  0  0  0  0  0  0  0  0  0  0
   -1.8810    1.7727    1.9528 H   0  0  0  0  0  0  0  0  0  0  0  0
   -0.6729    2.5943    3.5285 C   0  0  0  0  0  0  0  0  0  0  0  0
    0.4099    3.1565    3.8261 O   0  5  0  0  0  0  0  0  0  0  0  0
   -1.6286    2.4108    4.3222 O   0  0  0  0  0  0  0  0  0  0  0  0
    1.0934   -0.3631   -0.2388 C   0  0  0  0  0  0  0  0  0  0  0  0
    1.2882   -0.4273   -1.4490 O   0  0  0  0  0  0  0  0  0  0  0  0
    1.9629   -1.0059    0.6220 N   0  0  0  0  0  0  0  0  0  0  0  0
    1.6102   -1.1167    1.5705 H   0  0  0  0  0  0  0  0  0  0  0  0
    2.9951   -1.9220    0.1625 C   0  0  0  0  0  0  0  0  0  0  0  0
    3.6856   -1.4122   -0.5170 H   0  0  0  0  0  0  0  0  0  0  0  0
    3.5672   -2.2990    1.0153 H   0  0  0  0  0  0  0  0  0  0  0  0
    2.5457   -2.7727   -0.3598 H   0  0  0  0  0  0  0  0  0  0  0  0
  1  2  1  0  0  0  0
  2  3  1  0  0  0  0
  2  4  1  0  0  0  0
  2  5  1  0  0  0  0
  5  6  2  0  0  0  0
  5  7  1  0  0  0  0
  7  8  1  0  0  0  0
  7  9  1  0  0  0  0
  9 10  1  0  0  0  0
  9 11  1  0  0  0  0
  9 20  1  0  0  0  0
 11 12  1  0  0  0  0
 11 13  1  0  0  0  0
 11 14  1  0  0  0  0
 14 15  1  0  0  0  0
 14 16  1  0  0  0  0
 14 17  1  0  0  0  0
 17 18  1  0  0  0  0
 17 19  2  0  0  0  0
 20 21  2  0  0  0  0
 20 22  1  0  0  0  0
 22 23  1  0  0  0  0
 22 24  1  0  0  0  0
 24 25  1  0  0  0  0
 24 26  1  0  0  0  0
 24 27  1  0  0  0  0
M  CHG  1  18  -1
M  END
$$$$

  -OEChem-01062216073D

 27 26  0     1  0  0  0  0  0999 V2000
   -3.3160   -2.7640    1.2296 H   0  0  0  0  0  0  0  0  0  0  0  0
   -3.2028   -1.7729    0.7813 C   0  0  0  0  0  0  0  0  0  0  0  0
   -3.7798   -1.0536    1.3686 H   0  0  0  0  0  0  0  0  0  0  0  0
   -3.5958   -1.7999   -0.2379 H   0  0  0  0  0  0  0  0  0  0  0  0
   -1.7400   -1.3669    0.7639 C   0  0  0  0  0  0  0  0  0  0  0  0
   -0.9072   -2.0993    1.2791 O   0  0  0  0  0  0  0  0  0  0  0  0
   -1.3856   -0.1713    0.1671 N   0  0  0  0  0  0  0  0  0  0  0  0
   -2.1607    0.4218   -0.1111 H   0  0  0  0  0  0  0  0  0  0  0  0
   -0.0668    0.4801    0.2966 C   0  0  1  0  0  0  0  0  0  0  0  0
   -0.0613    1.3667   -0.3447 H   0  0  0  0  0  0  0  0  0  0  0  0
    0.1368    0.9681    1.7448 C   0  0  0  0  0  0  0  0  0  0  0  0
    0.0027    0.1452    2.4541 H   0  0  0  0  0  0  0  0  0  0  0  0
    1.1606    1.3403    1.8619 H   0  0  0  0  0  0  0  0  0  0  0  0
   -0.8445    2.1064    2.0789 C   0  0  0  0  0  0  0  0  0  0  0  0
   -0.6741    2.9508    1.4045 H   0  0  0  0  0  0  0  0  0  0  0  0
   -1.8753    1.7691    1.9376 H   0  0  0  0  0  0  0  0  0  0  0  0
   -0.6736    2.5858    3.5193 C   0  0  0  0  0  0  0  0  0  0  0  0
    0.3755    3.2140    3.8048 O   0  5  0  0  0  0  0  0  0  0  0  0
   -1.6037    2.3366    4.3256 O   0  0  0  0  0  0  0  0  0  0  0  0
    1.1093   -0.3815   -0.2186 C   0  0  0  0  0  0  0  0  0  0  0  0
    1.4769   -0.2637   -1.3836 O   0  0  0  0  0  0  0  0  0  0  0  0
    1.7782   -1.2519    0.6198 N   0  0  0  0  0  0  0  0  0  0  0  0
    1.2320   -1.5274    1.4372 H   0  0  0  0  0  0  0  0  0  0  0  0
    2.8003   -2.1710    0.1439 C   0  0  0  0  0  0  0  0  0  0  0  0
    3.6226   -1.6205   -0.3243 H   0  0  0  0  0  0  0  0  0  0  0  0
    3.2047   -2.7467    0.9815 H   0  0  0  0  0  0  0  0  0  0  0  0
    2.3775   -2.8676   -0.5871 H   0  0  0  0  0  0  0  0  0  0  0  0
  1  2  1  0  0  0  0
  2  3  1  0  0  0  0
  2  4  1  0  0  0  0
  2  5  1  0  0  0  0
  5  6  2  0  0  0  0
  5  7  1  0  0  0  0
  7  8  1  0  0  0  0
  7  9  1  0  0  0  0
  9 10  1  0  0  0  0
  9 11  1  0  0  0  0
  9 20  1  0  0  0  0
 11 12  1  0  0  0  0
 11 13  1  0  0  0  0
 11 14  1  0  0  0  0
 14 15  1  0  0  0  0
 14 16  1  0  0  0  0
 14 17  1  0  0  0  0
 17 18  1  0  0  0  0
 17 19  2  0  0  0  0
 20 21  2  0  0  0  0
 20 22  1  0  0  0  0
 22 23  1  0  0  0  0
 22 24  1  0  0  0  0
 24 25  1  0  0  0  0
 24 26  1  0  0  0  0
 24 27  1  0  0  0  0
M  CHG  1  18  -1
M  END
$$$$

  -OEChem-01062216073D

 27 26  0     1  0  0  0  0  0999 V2000
   -3.4200   -2.7065    1.2549 H   0  0  0  0  0  0  0  0  0  0  0  0
   -3.2701   -1.7247    0.7971 C   0  0  0  0  0  0  0  0  0  0  0  0
   -3.8203   -0.9792    1.3775 H   0  0  0  0  0  0  0  0  0  0  0  0
   -3.6639   -1.7469   -0.2218 H   0  0  0  0  0  0  0  0  0  0  0  0
   -1.7934   -1.3730    0.7776 C   0  0  0  0  0  0  0  0  0  0  0  0
   -0.9919   -2.1337    1.3000 O   0  0  0  0  0  0  0  0  0  0  0  0
   -1.4001   -0.1932    0.1733 N   0  0  0  0  0  0  0  0  0  0  0  0
   -2.1630    0.4118   -0.1135 H   0  0  0  0  0  0  0  0  0  0  0  0
   -0.0720    0.4474    0.2901 C   0  0  1  0  0  0  0  0  0  0  0  0
   -0.0671    1.3320   -0.3541 H   0  0  0  0  0  0  0  0  0  0  0  0
    0.1346    0.9359    1.7370 C   0  0  0  0  0  0  0  0  0  0  0  0
   -0.0033    0.1138    2.4468 H   0  0  0  0  0  0  0  0  0  0  0  0
    1.1609    1.3007    1.8541 H   0  0  0  0  0  0  0  0  0  0  0  0
   -0.8386    2.0822    2.0698 C   0  0  0  0  0  0  0  0  0  0  0  0
   -0.6608    2.9238    1.3940 H   0  0  0  0  0  0  0  0  0  0  0  0
   -1.8719    1.7522    1.9282 H   0  0  0  0  0  0  0  0  0  0  0  0
   -0.6674    2.5649    3.5094 C   0  0  0  0  0  0  0  0  0  0  0  0
    0.3905    3.1758    3.7999 O   0  5  0  0  0  0  0  0  0  0  0  0
   -1.6099    2.3404    4.3089 O   0  0  0  0  0  0  0  0  0  0  0  0
    1.1210   -0.4047   -0.2046 C   0  0  0  0  0  0  0  0  0  0  0  0
    1.6462   -0.1351   -1.2802 O   0  0  0  0  0  0  0  0  0  0  0  0
    1.6063   -1.4662    0.5327 N   0  0  0  0  0  0  0  0  0  0  0  0
    0.9528   -1.8095    1.2416 H   0  0  0  0  0  0  0  0  0  0  0  0
    2.6279   -2.3767    0.0404 C   0  0  0  0  0  0  0  0  0  0  0  0
    3.5495   -1.8312   -0.1862 H   0  0  0  0  0  0  0  0  0  0  0  0
    2.8522   -3.1316    0.7997 H   0  0  0  0  0  0  0  0  0  0  0  0
    2.2833   -2.8846   -0.8659 H   0  0  0  0  0  0  0  0  0  0  0  0
  1  2  1  0  0  0  0
  2  3  1  0  0  0  0
  2  4  1  0  0  0  0
  2  5  1  0  0  0  0
  5  6  2  0  0  0  0
  5  7  1  0  0  0  0
  7  8  1  0  0  0  0
  7  9  1  0  0  0  0
  9 10  1  0  0  0  0
  9 11  1  0  0  0  0
  9 20  1  0  0  0  0
 11 12  1  0  0  0  0
 11 13  1  0  0  0  0
 11 14  1  0  0  0  0
 14 15  1  0  0  0  0
 14 16  1  0  0  0  0
 14 17  1  0  0  0  0
 17 18  1  0  0  0  0
 17 19  2  0  0  0  0
 20 21  2  0  0  0  0
 20 22  1  0  0  0  0
 22 23  1  0  0  0  0
 22 24  1  0  0  0  0
 24 25  1  0  0  0  0
 24 26  1  0  0  0  0
 24 27  1  0  0  0  0
M  CHG  1  18  -1
M  END
$$$$

  -OEChem-01062216073D

 27 26  0     1  0  0  0  0  0999 V2000
   -3.5372   -2.6500    1.2674 H   0  0  0  0  0  0  0  0  0  0  0  0
   -3.3506   -1.6757    0.8067 C   0  0  0  0  0  0  0  0  0  0  0  0
   -3.8791   -0.9095    1.3804 H   0  0  0  0  0  0  0  0  0  0  0  0
   -3.7383   -1.6888   -0.2148 H   0  0  0  0  0  0  0  0  0  0  0  0
   -1.8626   -1.3741    0.7960 C   0  0  0  0  0  0  0  0  0  0  0  0
   -1.0948   -2.1631    1.3249 O   0  0  0  0  0  0  0  0  0  0  0  0
   -1.4292   -0.2114    0.1853 N   0  0  0  0  0  0  0  0  0  0  0  0
   -2.1777    0.4066   -0.1120 H   0  0  0  0  0  0  0  0  0  0  0  0
   -0.0890    0.4123    0.2844 C   0  0  1  0  0  0  0  0  0  0  0  0
   -0.0849    1.2941   -0.3636 H   0  0  0  0  0  0  0  0  0  0  0  0
    0.1284    0.9034    1.7285 C   0  0  0  0  0  0  0  0  0  0  0  0
   -0.0164    0.0840    2.4402 H   0  0  0  0  0  0  0  0  0  0  0  0
    1.1592    1.2573    1.8415 H   0  0  0  0  0  0  0  0  0  0  0  0
   -0.8294    2.0627    2.0613 C   0  0  0  0  0  0  0  0  0  0  0  0
   -0.6455    2.8997    1.3815 H   0  0  0  0  0  0  0  0  0  0  0  0
   -1.8674    1.7450    1.9261 H   0  0  0  0  0  0  0  0  0  0  0  0
   -0.6458    2.5470    3.4985 C   0  0  0  0  0  0  0  0  0  0  0  0
    0.3971    3.1913    3.7701 O   0  5  0  0  0  0  0  0  0  0  0  0
   -1.5647    2.2900    4.3154 O   0  0  0  0  0  0  0  0  0  0  0  0
    1.1147   -0.4342   -0.1983 C   0  0  0  0  0  0  0  0  0  0  0  0
    1.7793   -0.0355   -1.1490 O   0  0  0  0  0  0  0  0  0  0  0  0
    1.4367   -1.6519    0.3648 N   0  0  0  0  0  0  0  0  0  0  0  0
    0.7396   -2.0270    1.0141 H   0  0  0  0  0  0  0  0  0  0  0  0
    2.4722   -2.5362   -0.1449 C   0  0  0  0  0  0  0  0  0  0  0  0
    3.4446   -2.0337   -0.1303 H   0  0  0  0  0  0  0  0  0  0  0  0
    2.5378   -3.4330    0.4781 H   0  0  0  0  0  0  0  0  0  0  0  0
    2.2439   -2.8404   -1.1712 H   0  0  0  0  0  0  0  0  0  0  0  0
  1  2  1  0  0  0  0
  2  3  1  0  0  0  0
  2  4  1  0  0  0  0
  2  5  1  0  0  0  0
  5  6  2  0  0  0  0
  5  7  1  0  0  0  0
  7  8  1  0  0  0  0
  7  9  1  0  0  0  0
  9 10  1  0  0  0  0
  9 11  1  0  0  0  0
  9 20  1  0  0  0  0
 11 12  1  0  0  0  0
 11 13  1  0  0  0  0
 11 14  1  0  0  0  0
 14 15  1  0  0  0  0
 14 16  1  0  0  0  0
 14 17  1  0  0  0  0
 17 18  1  0  0  0  0
 17 19  2  0  0  0  0
 20 21  2  0  0  0  0
 20 22  1  0  0  0  0
 22 23  1  0  0  0  0
 22 24  1  0  0  0  0
 24 25  1  0  0  0  0
 24 26  1  0  0  0  0
 24 27  1  0  0  0  0
M  CHG  1  18  -1
M  END
$$$$

  -OEChem-01062216073D

 27 26  0     1  0  0  0  0  0999 V2000
   -3.6411   -2.5948    1.3051 H   0  0  0  0  0  0  0  0  0  0  0  0
   -3.4334   -1.6263    0.8415 C   0  0  0  0  0  0  0  0  0  0  0  0
   -3.9280   -0.8452    1.4250 H   0  0  0  0  0  0  0  0  0  0  0  0
   -3.8397   -1.6265   -0.1728 H   0  0  0  0  0  0  0  0  0  0  0  0
   -1.9374   -1.3693    0.8036 C   0  0  0  0  0  0  0  0  0  0  0  0
   -1.1851   -2.1851    1.3132 O   0  0  0  0  0  0  0  0  0  0  0  0
   -1.4841   -0.2175    0.1860 N   0  0  0  0  0  0  0  0  0  0  0  0
   -2.2254    0.4223   -0.0823 H   0  0  0  0  0  0  0  0  0  0  0  0
   -0.1288    0.3812    0.2534 C   0  0  1  0  0  0  0  0  0  0  0  0
   -0.1269    1.2653   -0.3918 H   0  0  0  0  0  0  0  0  0  0  0  0
    0.1202    0.8620    1.6955 C   0  0  0  0  0  0  0  0  0  0  0  0
   -0.0245    0.0414    2.4057 H   0  0  0  0  0  0  0  0  0  0  0  0
    1.1583    1.1996    1.7926 H   0  0  0  0  0  0  0  0  0  0  0  0
   -0.8128    2.0362    2.0492 C   0  0  0  0  0  0  0  0  0  0  0  0
   -0.6245    2.8728    1.3702 H   0  0  0  0  0  0  0  0  0  0  0  0
   -1.8581    1.7379    1.9286 H   0  0  0  0  0  0  0  0  0  0  0  0
   -0.6003    2.5130    3.4852 C   0  0  0  0  0  0  0  0  0  0  0  0
    0.4569    3.1384    3.7452 O   0  5  0  0  0  0  0  0  0  0  0  0
   -1.5146    2.2722    4.3124 O   0  0  0  0  0  0  0  0  0  0  0  0
    1.0670   -0.4679   -0.2495 C   0  0  0  0  0  0  0  0  0  0  0  0
    1.8682    0.0410   -1.0259 O   0  0  0  0  0  0  0  0  0  0  0  0
    1.2371   -1.7978    0.0748 N   0  0  0  0  0  0  0  0  0  0  0  0
    0.5394   -2.1950    0.7096 H   0  0  0  0  0  0  0  0  0  0  0  0
    2.3546   -2.6186   -0.3634 C   0  0  0  0  0  0  0  0  0  0  0  0
    3.2978   -2.2126    0.0156 H   0  0  0  0  0  0  0  0  0  0  0  0
    2.2394   -3.6388    0.0140 H   0  0  0  0  0  0  0  0  0  0  0  0
    2.3971   -2.6565   -1.4565 H   0  0  0  0  0  0  0  0  0  0  0  0
  1  2  1  0  0  0  0
  2  3  1  0  0  0  0
  2  4  1  0  0  0  0
  2  5  1  0  0  0  0
  5  6  2  0  0  0  0
  5  7  1  0  0  0  0
  7  8  1  0  0  0  0
  7  9  1  0  0  0  0
  9 10  1  0  0  0  0
  9 11  1  0  0  0  0
  9 20  1  0  0  0  0
 11 12  1  0  0  0  0
 11 13  1  0  0  0  0
 11 14  1  0  0  0  0
 14 15  1  0  0  0  0
 14 16  1  0  0  0  0
 14 17  1  0  0  0  0
 17 18  1  0  0  0  0
 17 19  2  0  0  0  0
 20 21  2  0  0  0  0
 20 22  1  0  0  0  0
 22 23  1  0  0  0  0
 22 24  1  0  0  0  0
 24 25  1  0  0  0  0
 24 26  1  0  0  0  0
 24 27  1  0  0  0  0
M  CHG  1  18  -1
M  END
$$$$

  -OEChem-01062216073D

 27 26  0     1  0  0  0  0  0999 V2000
   -3.6775   -2.5752    1.3064 H   0  0  0  0  0  0  0  0  0  0  0  0
   -3.4655   -1.5879    0.8862 C   0  0  0  0  0  0  0  0  0  0  0  0
   -3.9124   -0.8282    1.5330 H   0  0  0  0  0  0  0  0  0  0  0  0
   -3.9175   -1.5233   -0.1065 H   0  0  0  0  0  0  0  0  0  0  0  0
   -1.9666   -1.3646    0.7933 C   0  0  0  0  0  0  0  0  0  0  0  0
   -1.2138   -2.2094    1.2522 O   0  0  0  0  0  0  0  0  0  0  0  0
   -1.5100   -0.2136    0.1766 N   0  0  0  0  0  0  0  0  0  0  0  0
   -2.2485    0.4456   -0.0488 H   0  0  0  0  0  0  0  0  0  0  0  0
   -0.1469    0.3700    0.2312 C   0  0  1  0  0  0  0  0  0  0  0  0
   -0.1434    1.2575   -0.4092 H   0  0  0  0  0  0  0  0  0  0  0  0
    0.1122    0.8414    1.6754 C   0  0  0  0  0  0  0  0  0  0  0  0
   -0.0372    0.0186    2.3822 H   0  0  0  0  0  0  0  0  0  0  0  0
    1.1530    1.1706    1.7715 H   0  0  0  0  0  0  0  0  0  0  0  0
   -0.8097    2.0226    2.0361 C   0  0  0  0  0  0  0  0  0  0  0  0
   -0.6172    2.8597    1.3586 H   0  0  0  0  0  0  0  0  0  0  0  0
   -1.8583    1.7348    1.9192 H   0  0  0  0  0  0  0  0  0  0  0  0
   -0.5889    2.4914    3.4730 C   0  0  0  0  0  0  0  0  0  0  0  0
    0.4229    3.1948    3.7122 O   0  5  0  0  0  0  0  0  0  0  0  0
   -1.4539    2.1640    4.3232 O   0  0  0  0  0  0  0  0  0  0  0  0
    1.0425   -0.4795   -0.2894 C   0  0  0  0  0  0  0  0  0  0  0  0
    1.9621    0.0896   -0.8669 O   0  0  0  0  0  0  0  0  0  0  0  0
    1.0717   -1.8585   -0.2394 N   0  0  0  0  0  0  0  0  0  0  0  0
    0.3536   -2.2860    0.3502 H   0  0  0  0  0  0  0  0  0  0  0  0
    2.2129   -2.6632   -0.6472 C   0  0  0  0  0  0  0  0  0  0  0  0
    3.0781   -2.4478   -0.0122 H   0  0  0  0  0  0  0  0  0  0  0  0
    1.9713   -3.7264   -0.5580 H   0  0  0  0  0  0  0  0  0  0  0  0
    2.4765   -2.4565   -1.6894 H   0  0  0  0  0  0  0  0  0  0  0  0
  1  2  1  0  0  0  0
  2  3  1  0  0  0  0
  2  4  1  0  0  0  0
  2  5  1  0  0  0  0
  5  6  2  0  0  0  0
  5  7  1  0  0  0  0
  7  8  1  0  0  0  0
  7  9  1  0  0  0  0
  9 10  1  0  0  0  0
  9 11  1  0  0  0  0
  9 20  1  0  0  0  0
 11 12  1  0  0  0  0
 11 13  1  0  0  0  0
 11 14  1  0  0  0  0
 14 15  1  0  0  0  0
 14 16  1  0  0  0  0
 14 17  1  0  0  0  0
 17 18  1  0  0  0  0
 17 19  2  0  0  0  0
 20 21  2  0  0  0  0
 20 22  1  0  0  0  0
 22 23  1  0  0  0  0
 22 24  1  0  0  0  0
 24 25  1  0  0  0  0
 24 26  1  0  0  0  0
 24 27  1  0  0  0  0
M  CHG  1  18  -1
M  END
$$$$

  -OEChem-01062216073D

 27 26  0     1  0  0  0  0  0999 V2000
   -3.6717   -2.5277    1.3563 H   0  0  0  0  0  0  0  0  0  0  0  0
   -3.4595   -1.5396    0.9382 C   0  0  0  0  0  0  0  0  0  0  0  0
   -3.8437   -0.7791    1.6236 H   0  0  0  0  0  0  0  0  0  0  0  0
   -3.9710   -1.4460   -0.0228 H   0  0  0  0  0  0  0  0  0  0  0  0
   -1.9638   -1.3543    0.7550 C   0  0  0  0  0  0  0  0  0  0  0  0
   -1.2066   -2.2403    1.1192 O   0  0  0  0  0  0  0  0  0  0  0  0
   -1.5110   -0.1984    0.1449 N   0  0  0  0  0  0  0  0  0  0  0  0
   -2.2463    0.4839   -0.0134 H   0  0  0  0  0  0  0  0  0  0  0  0
   -0.1435    0.3742    0.2112 C   0  0  1  0  0  0  0  0  0  0  0  0
   -0.1271    1.2675   -0.4204 H   0  0  0  0  0  0  0  0  0  0  0  0
    0.0997    0.8262    1.6654 C   0  0  0  0  0  0  0  0  0  0  0  0
   -0.0623   -0.0049    2.3597 H   0  0  0  0  0  0  0  0  0  0  0  0
    1.1406    1.1488    1.7798 H   0  0  0  0  0  0  0  0  0  0  0  0
   -0.8202    2.0082    2.0294 C   0  0  0  0  0  0  0  0  0  0  0  0
   -0.6162    2.8518    1.3633 H   0  0  0  0  0  0  0  0  0  0  0  0
   -1.8697    1.7296    1.8994 H   0  0  0  0  0  0  0  0  0  0  0  0
   -0.6143    2.4561    3.4749 C   0  0  0  0  0  0  0  0  0  0  0  0
    0.2788    3.3073    3.7061 O   0  5  0  0  0  0  0  0  0  0  0  0
   -1.3780    1.9616    4.3413 O   0  0  0  0  0  0  0  0  0  0  0  0
    1.0447   -0.4773   -0.3111 C   0  0  0  0  0  0  0  0  0  0  0  0
    2.0673    0.0956   -0.6696 O   0  0  0  0  0  0  0  0  0  0  0  0
    0.9529   -1.8341   -0.5522 N   0  0  0  0  0  0  0  0  0  0  0  0
    0.1831   -2.2945   -0.0618 H   0  0  0  0  0  0  0  0  0  0  0  0
    2.0826   -2.6481   -0.9754 C   0  0  0  0  0  0  0  0  0  0  0  0
    2.8971   -2.5816   -0.2469 H   0  0  0  0  0  0  0  0  0  0  0  0
    1.7772   -3.6950   -1.0616 H   0  0  0  0  0  0  0  0  0  0  0  0
    2.4507   -2.3145   -1.9508 H   0  0  0  0  0  0  0  0  0  0  0  0
  1  2  1  0  0  0  0
  2  3  1  0  0  0  0
  2  4  1  0  0  0  0
  2  5  1  0  0  0  0
  5  6  2  0  0  0  0
  5  7  1  0  0  0  0
  7  8  1  0  0  0  0
  7  9  1  0  0  0  0
  9 10  1  0  0  0  0
  9 11  1  0  0  0  0
  9 20  1  0  0  0  0
 11 12  1  0  0  0  0
 11 13  1  0  0  0  0
 11 14  1  0  0  0  0
 14 15  1  0  0  0  0
 14 16  1  0  0  0  0
 14 17  1  0  0  0  0
 17 18  1  0  0  0  0
 17 19  2  0  0  0  0
 20 21  2  0  0  0  0
 20 22  1  0  0  0  0
 22 23  1  0  0  0  0
 22 24  1  0  0  0  0
 24 25  1  0  0  0  0
 24 26  1  0  0  0  0
 24 27  1  0  0  0  0
M  CHG  1  18  -1
M  END
$$$$

  -OEChem-01062216073D

 27 26  0     1  0  0  0  0  0999 V2000
   -3.6204   -2.4782    1.4392 H   0  0  0  0  0  0  0  0  0  0  0  0
   -3.4201   -1.4993    0.9946 C   0  0  0  0  0  0  0  0  0  0  0  0
   -3.7410   -0.7247    1.6967 H   0  0  0  0  0  0  0  0  0  0  0  0
   -3.9962   -1.4056    0.0709 H   0  0  0  0  0  0  0  0  0  0  0  0
   -1.9379   -1.3454    0.7044 C   0  0  0  0  0  0  0  0  0  0  0  0
   -1.1819   -2.2756    0.9361 O   0  0  0  0  0  0  0  0  0  0  0  0
   -1.4941   -0.1783    0.1105 N   0  0  0  0  0  0  0  0  0  0  0  0
   -2.2234    0.5247    0.0360 H   0  0  0  0  0  0  0  0  0  0  0  0
   -0.1236    0.3819    0.2051 C   0  0  1  0  0  0  0  0  0  0  0  0
   -0.0878    1.2818   -0.4157 H   0  0  0  0  0  0  0  0  0  0  0  0
    0.0925    0.8142    1.6702 C   0  0  0  0  0  0  0  0  0  0  0  0
   -0.0900   -0.0249    2.3503 H   0  0  0  0  0  0  0  0  0  0  0  0
    1.1320    1.1291    1.8133 H   0  0  0  0  0  0  0  0  0  0  0  0
   -0.8291    1.9989    2.0249 C   0  0  0  0  0  0  0  0  0  0  0  0
   -0.6069    2.8448    1.3673 H   0  0  0  0  0  0  0  0  0  0  0  0
   -1.8774    1.7285    1.8722 H   0  0  0  0  0  0  0  0  0  0  0  0
   -0.6580    2.4353    3.4784 C   0  0  0  0  0  0  0  0  0  0  0  0
   -0.0117    3.4871    3.7061 O   0  5  0  0  0  0  0  0  0  0  0  0
   -1.2149    1.7292    4.3554 O   0  0  0  0  0  0  0  0  0  0  0  0
    1.0579   -0.4777   -0.3184 C   0  0  0  0  0  0  0  0  0  0  0  0
    2.1621    0.0390   -0.4470 O   0  0  0  0  0  0  0  0  0  0  0  0
    0.8682   -1.7345   -0.8602 N   0  0  0  0  0  0  0  0  0  0  0  0
    0.0401   -2.2074   -0.4930 H   0  0  0  0  0  0  0  0  0  0  0  0
    1.9685   -2.5645   -1.3281 C   0  0  0  0  0  0  0  0  0  0  0  0
    2.6614   -2.7788   -0.5081 H   0  0  0  0  0  0  0  0  0  0  0  0
    1.5835   -3.5121   -1.7162 H   0  0  0  0  0  0  0  0  0  0  0  0
    2.5152   -2.0603   -2.1315 H   0  0  0  0  0  0  0  0  0  0  0  0
  1  2  1  0  0  0  0
  2  3  1  0  0  0  0
  2  4  1  0  0  0  0
  2  5  1  0  0  0  0
  5  6  2  0  0  0  0
  5  7  1  0  0  0  0
  7  8  1  0  0  0  0
  7  9  1  0  0  0  0
  9 10  1  0  0  0  0
  9 11  1  0  0  0  0
  9 20  1  0  0  0  0
 11 12  1  0  0  0  0
 11 13  1  0  0  0  0
 11 14  1  0  0  0  0
 14 15  1  0  0  0  0
 14 16  1  0  0  0  0
 14 17  1  0  0  0  0
 17 18  1  0  0  0  0
 17 19  2  0  0  0  0
 20 21  2  0  0  0  0
 20 22  1  0  0  0  0
 22 23  1  0  0  0  0
 22 24  1  0  0  0  0
 24 25  1  0  0  0  0
 24 26  1  0  0  0  0
 24 27  1  0  0  0  0
M  CHG  1  18  -1
M  END
$$$$

  -OEChem-01062216073D

 27 26  0     1  0  0  0  0  0999 V2000
   -3.3693   -2.6511    1.5851 H   0  0  0  0  0  0  0  0  0  0  0  0
   -3.2586   -1.6475    1.1647 C   0  0  0  0  0  0  0  0  0  0  0  0
   -3.5293   -0.9154    1.9310 H   0  0  0  0  0  0  0  0  0  0  0  0
   -3.9370   -1.5426    0.3147 H   0  0  0  0  0  0  0  0  0  0  0  0
   -1.8253   -1.4182    0.7209 C   0  0  0  0  0  0  0  0  0  0  0  0
   -1.0106   -2.3225    0.8148 O   0  0  0  0  0  0  0  0  0  0  0  0
   -1.4938   -0.2245    0.1087 N   0  0  0  0  0  0  0  0  0  0  0  0
   -2.2627    0.4397    0.1171 H   0  0  0  0  0  0  0  0  0  0  0  0
   -0.1575    0.4154    0.1770 C   0  0  1  0  0  0  0  0  0  0  0  0
   -0.1784    1.3140   -0.4458 H   0  0  0  0  0  0  0  0  0  0  0  0
    0.0568    0.8607    1.6396 C   0  0  0  0  0  0  0  0  0  0  0  0
   -0.0638    0.0138    2.3236 H   0  0  0  0  0  0  0  0  0  0  0  0
    1.0770    1.2394    1.7671 H   0  0  0  0  0  0  0  0  0  0  0  0
   -0.9291    1.9881    2.0066 C   0  0  0  0  0  0  0  0  0  0  0  0
   -0.7688    2.8470    1.3480 H   0  0  0  0  0  0  0  0  0  0  0  0
   -1.9609    1.6535    1.8686 H   0  0  0  0  0  0  0  0  0  0  0  0
   -0.7604    2.4336    3.4569 C   0  0  0  0  0  0  0  0  0  0  0  0
   -1.4583    1.8412    4.3175 O   0  5  0  0  0  0  0  0  0  0  0  0
    0.0285    3.3795    3.6976 O   0  0  0  0  0  0  0  0  0  0  0  0
    1.0423   -0.3974   -0.3772 C   0  0  0  0  0  0  0  0  0  0  0  0
    2.1733    0.0729   -0.3344 O   0  0  0  0  0  0  0  0  0  0  0  0
    0.8334   -1.5083   -1.1728 N   0  0  0  0  0  0  0  0  0  0  0  0
   -0.0201   -2.0077   -0.9211 H   0  0  0  0  0  0  0  0  0  0  0  0
    1.9335   -2.2957   -1.7108 C   0  0  0  0  0  0  0  0  0  0  0  0
    2.5616   -2.6794   -0.9003 H   0  0  0  0  0  0  0  0  0  0  0  0
    1.5433   -3.1440   -2.2807 H   0  0  0  0  0  0  0  0  0  0  0  0
    2.5504   -1.6865   -2.3793 H   0  0  0  0  0  0  0  0  0  0  0  0
  1  2  1  0  0  0  0
  2  3  1  0  0  0  0
  2  4  1  0  0  0  0
  2  5  1  0  0  0  0
  5  6  2  0  0  0  0
  5  7  1  0  0  0  0
  7  8  1  0  0  0  0
  7  9  1  0  0  0  0
  9 10  1  0  0  0  0
  9 11  1  0  0  0  0
  9 20  1  0  0  0  0
 11 12  1  0  0  0  0
 11 13  1  0  0  0  0
 11 14  1  0  0  0  0
 14 15  1  0  0  0  0
 14 16  1  0  0  0  0
 14 17  1  0  0  0  0
 17 18  1  0  0  0  0
 17 19  2  0  0  0  0
 20 21  2  0  0  0  0
 20 22  1  0  0  0  0
 22 23  1  0  0  0  0
 22 24  1  0  0  0  0
 24 25  1  0  0  0  0
 24 26  1  0  0  0  0
 24 27  1  0  0  0  0
M  CHG  1  18  -1
M  END
$$$$

  -OEChem-01062216073D

 27 26  0     1  0  0  0  0  0999 V2000
   -3.2630   -2.6763    1.6041 H   0  0  0  0  0  0  0  0  0  0  0  0
   -3.1824   -1.6719    1.1790 C   0  0  0  0  0  0  0  0  0  0  0  0
   -3.4387   -0.9433    1.9535 H   0  0  0  0  0  0  0  0  0  0  0  0
   -3.8906   -1.5795    0.3523 H   0  0  0  0  0  0  0  0  0  0  0  0
   -1.7684   -1.4211    0.6874 C   0  0  0  0  0  0  0  0  0  0  0  0
   -0.9471   -2.3231    0.7142 O   0  0  0  0  0  0  0  0  0  0  0  0
   -1.4646   -0.2133    0.0894 N   0  0  0  0  0  0  0  0  0  0  0  0
   -2.2375    0.4446    0.1425 H   0  0  0  0  0  0  0  0  0  0  0  0
   -0.1348    0.4341    0.1834 C   0  0  1  0  0  0  0  0  0  0  0  0
   -0.1487    1.3367   -0.4334 H   0  0  0  0  0  0  0  0  0  0  0  0
    0.0597    0.8742    1.6511 C   0  0  0  0  0  0  0  0  0  0  0  0
   -0.0627    0.0233    2.3296 H   0  0  0  0  0  0  0  0  0  0  0  0
    1.0750    1.2604    1.7929 H   0  0  0  0  0  0  0  0  0  0  0  0
   -0.9377    1.9947    2.0095 C   0  0  0  0  0  0  0  0  0  0  0  0
   -0.7738    2.8562    1.3553 H   0  0  0  0  0  0  0  0  0  0  0  0
   -1.9656    1.6544    1.8578 H   0  0  0  0  0  0  0  0  0  0  0  0
   -0.7927    2.4383    3.4629 C   0  0  0  0  0  0  0  0  0  0  0  0
   -1.4556    1.8020    4.3198 O   0  5  0  0  0  0  0  0  0  0  0  0
   -0.0678    3.4331    3.7074 O   0  0  0  0  0  0  0  0  0  0  0  0
    1.0533   -0.3892   -0.3791 C   0  0  0  0  0  0  0  0  0  0  0  0
    2.2120   -0.0916   -0.1130 O   0  0  0  0  0  0  0  0  0  0  0  0
    0.8315   -1.2731   -1.4191 N   0  0  0  0  0  0  0  0  0  0  0  0
   -0.1013   -1.6779   -1.3948 H   0  0  0  0  0  0  0  0  0  0  0  0
    1.8995   -2.0865   -1.9828 C   0  0  0  0  0  0  0  0  0  0  0  0
    2.3481   -2.7177   -1.2087 H   0  0  0  0  0  0  0  0  0  0  0  0
    1.5029   -2.7319   -2.7720 H   0  0  0  0  0  0  0  0  0  0  0  0
    2.6782   -1.4509   -2.4167 H   0  0  0  0  0  0  0  0  0  0  0  0
  1  2  1  0  0  0  0
  2  3  1  0  0  0  0
  2  4  1  0  0  0  0
  2  5  1  0  0  0  0
  5  6  2  0  0  0  0
  5  7  1  0  0  0  0
  7  8  1  0  0  0  0
  7  9  1  0  0  0  0
  9 10  1  0  0  0  0
  9 11  1  0  0  0  0
  9 20  1  0  0  0  0
 11 12  1  0  0  0  0
 11 13  1  0  0  0  0
 11 14  1  0  0  0  0
 14 15  1  0  0  0  0
 14 16  1  0  0  0  0
 14 17  1  0  0  0  0
 17 18  1  0  0  0  0
 17 19  2  0  0  0  0
 20 21  2  0  0  0  0
 20 22  1  0  0  0  0
 22 23  1  0  0  0  0
 22 24  1  0  0  0  0
 24 25  1  0  0  0  0
 24 26  1  0  0  0  0
 24 27  1  0  0  0  0
M  CHG  1  18  -1
M  END
$$$$

  -OEChem-01062216073D

 27 26  0     1  0  0  0  0  0999 V2000
   -3.2096   -2.7061    1.5938 H   0  0  0  0  0  0  0  0  0  0  0  0
   -3.1403   -1.7014    1.1674 C   0  0  0  0  0  0  0  0  0  0  0  0
   -3.4094   -0.9754    1.9396 H   0  0  0  0  0  0  0  0  0  0  0  0
   -3.8462   -1.6194    0.3377 H   0  0  0  0  0  0  0  0  0  0  0  0
   -1.7275   -1.4319    0.6817 C   0  0  0  0  0  0  0  0  0  0  0  0
   -0.8930   -2.3205    0.7220 O   0  0  0  0  0  0  0  0  0  0  0  0
   -1.4377   -0.2147    0.0943 N   0  0  0  0  0  0  0  0  0  0  0  0
   -2.2159    0.4357    0.1592 H   0  0  0  0  0  0  0  0  0  0  0  0
   -0.1127    0.4370    0.2029 C   0  0  1  0  0  0  0  0  0  0  0  0
   -0.1224    1.3415   -0.4115 H   0  0  0  0  0  0  0  0  0  0  0  0
    0.0718    0.8814    1.6702 C   0  0  0  0  0  0  0  0  0  0  0  0
   -0.0537    0.0330    2.3514 H   0  0  0  0  0  0  0  0  0  0  0  0
    1.0848    1.2712    1.8175 H   0  0  0  0  0  0  0  0  0  0  0  0
   -0.9332    2.0002    2.0122 C   0  0  0  0  0  0  0  0  0  0  0  0
   -0.7666    2.8585    1.3543 H   0  0  0  0  0  0  0  0  0  0  0  0
   -1.9578    1.6544    1.8508 H   0  0  0  0  0  0  0  0  0  0  0  0
   -0.8061    2.4554    3.4635 C   0  0  0  0  0  0  0  0  0  0  0  0
   -1.5123    1.8557    4.3119 O   0  5  0  0  0  0  0  0  0  0  0  0
   -0.0512    3.4267    3.7126 O   0  0  0  0  0  0  0  0  0  0  0  0
    1.0645   -0.3937   -0.3688 C   0  0  0  0  0  0  0  0  0  0  0  0
    2.1993   -0.3173    0.0874 O   0  0  0  0  0  0  0  0  0  0  0  0
    0.8941   -1.0106   -1.5951 N   0  0  0  0  0  0  0  0  0  0  0  0
   -0.0728   -1.2260   -1.8160 H   0  0  0  0  0  0  0  0  0  0  0  0
    1.9327   -1.8277   -2.2062 C   0  0  0  0  0  0  0  0  0  0  0  0
    2.1890   -2.6696   -1.5547 H   0  0  0  0  0  0  0  0  0  0  0  0
    1.5844   -2.2220   -3.1652 H   0  0  0  0  0  0  0  0  0  0  0  0
    2.8335   -1.2320   -2.3863 H   0  0  0  0  0  0  0  0  0  0  0  0
  1  2  1  0  0  0  0
  2  3  1  0  0  0  0
  2  4  1  0  0  0  0
  2  5  1  0  0  0  0
  5  6  2  0  0  0  0
  5  7  1  0  0  0  0
  7  8  1  0  0  0  0
  7  9  1  0  0  0  0
  9 10  1  0  0  0  0
  9 11  1  0  0  0  0
  9 20  1  0  0  0  0
 11 12  1  0  0  0  0
 11 13  1  0  0  0  0
 11 14  1  0  0  0  0
 14 15  1  0  0  0  0
 14 16  1  0  0  0  0
 14 17  1  0  0  0  0
 17 18  1  0  0  0  0
 17 19  2  0  0  0  0
 20 21  2  0  0  0  0
 20 22  1  0  0  0  0
 22 23  1  0  0  0  0
 22 24  1  0  0  0  0
 24 25  1  0  0  0  0
 24 26  1  0  0  0  0
 24 27  1  0  0  0  0
M  CHG  1  18  -1
M  END
$$$$

  -OEChem-01062216073D

 27 26  0     1  0  0  0  0  0999 V2000
   -3.3790   -2.5869    1.4441 H   0  0  0  0  0  0  0  0  0  0  0  0
   -3.2380   -1.5763    1.0506 C   0  0  0  0  0  0  0  0  0  0  0  0
   -3.4965   -0.8573    1.8331 H   0  0  0  0  0  0  0  0  0  0  0  0
   -3.9050   -1.4323    0.1974 H   0  0  0  0  0  0  0  0  0  0  0  0
   -1.7946   -1.3740    0.6262 C   0  0  0  0  0  0  0  0  0  0  0  0
   -1.0107   -2.3059    0.6882 O   0  0  0  0  0  0  0  0  0  0  0  0
   -1.4223   -0.1644    0.0705 N   0  0  0  0  0  0  0  0  0  0  0  0
   -2.1676    0.5240    0.1245 H   0  0  0  0  0  0  0  0  0  0  0  0
   -0.0700    0.4129    0.2309 C   0  0  1  0  0  0  0  0  0  0  0  0
   -0.0123    1.3255   -0.3682 H   0  0  0  0  0  0  0  0  0  0  0  0
    0.0953    0.8338    1.7072 C   0  0  0  0  0  0  0  0  0  0  0  0
   -0.0975   -0.0125    2.3754 H   0  0  0  0  0  0  0  0  0  0  0  0
    1.1240    1.1648    1.8869 H   0  0  0  0  0  0  0  0  0  0  0  0
   -0.8576    2.0037    2.0287 C   0  0  0  0  0  0  0  0  0  0  0  0
   -0.6221    2.8559    1.3841 H   0  0  0  0  0  0  0  0  0  0  0  0
   -1.8941    1.7171    1.8314 H   0  0  0  0  0  0  0  0  0  0  0  0
   -0.7526    2.4435    3.4866 C   0  0  0  0  0  0  0  0  0  0  0  0
    0.0572    3.3608    3.7663 O   0  5  0  0  0  0  0  0  0  0  0  0
   -1.5303    1.8945    4.3061 O   0  0  0  0  0  0  0  0  0  0  0  0
    1.0725   -0.4763   -0.3222 C   0  0  0  0  0  0  0  0  0  0  0  0
    2.1088   -0.6831    0.2982 O   0  0  0  0  0  0  0  0  0  0  0  0
    1.0455   -0.7982   -1.6677 N   0  0  0  0  0  0  0  0  0  0  0  0
    0.1278   -0.7589   -2.0976 H   0  0  0  0  0  0  0  0  0  0  0  0
    2.0688   -1.6200   -2.2983 C   0  0  0  0  0  0  0  0  0  0  0  0
    2.1146   -2.6049   -1.8223 H   0  0  0  0  0  0  0  0  0  0  0  0
    1.8403   -1.7556   -3.3594 H   0  0  0  0  0  0  0  0  0  0  0  0
    3.0494   -1.1402   -2.2159 H   0  0  0  0  0  0  0  0  0  0  0  0
  1  2  1  0  0  0  0
  2  3  1  0  0  0  0
  2  4  1  0  0  0  0
  2  5  1  0  0  0  0
  5  6  2  0  0  0  0
  5  7  1  0  0  0  0
  7  8  1  0  0  0  0
  7  9  1  0  0  0  0
  9 10  1  0  0  0  0
  9 11  1  0  0  0  0
  9 20  1  0  0  0  0
 11 12  1  0  0  0  0
 11 13  1  0  0  0  0
 11 14  1  0  0  0  0
 14 15  1  0  0  0  0
 14 16  1  0  0  0  0
 14 17  1  0  0  0  0
 17 18  1  0  0  0  0
 17 19  2  0  0  0  0
 20 21  2  0  0  0  0
 20 22  1  0  0  0  0
 22 23  1  0  0  0  0
 22 24  1  0  0  0  0
 24 25  1  0  0  0  0
 24 26  1  0  0  0  0
 24 27  1  0  0  0  0
M  CHG  1  18  -1
M  END
$$$$

  -OEChem-01062216073D

 27 26  0     1  0  0  0  0  0999 V2000
   -3.3917   -2.6104    1.4381 H   0  0  0  0  0  0  0  0  0  0  0  0
   -3.2466   -1.5944    1.0606 C   0  0  0  0  0  0  0  0  0  0  0  0
   -3.4987   -0.8866    1.8553 H   0  0  0  0  0  0  0  0  0  0  0  0
   -3.9160   -1.4337    0.2124 H   0  0  0  0  0  0  0  0  0  0  0  0
   -1.8036   -1.3927    0.6342 C   0  0  0  0  0  0  0  0  0  0  0  0
   -1.0217   -2.3253    0.7004 O   0  0  0  0  0  0  0  0  0  0  0  0
   -1.4341   -0.1837    0.0751 N   0  0  0  0  0  0  0  0  0  0  0  0
   -2.1817    0.5022    0.1273 H   0  0  0  0  0  0  0  0  0  0  0  0
   -0.0836    0.3985    0.2256 C   0  0  1  0  0  0  0  0  0  0  0  0
   -0.0372    1.3105   -0.3751 H   0  0  0  0  0  0  0  0  0  0  0  0
    0.0930    0.8308    1.6963 C   0  0  0  0  0  0  0  0  0  0  0  0
   -0.0948   -0.0107    2.3718 H   0  0  0  0  0  0  0  0  0  0  0  0
    1.1236    1.1620    1.8643 H   0  0  0  0  0  0  0  0  0  0  0  0
   -0.8598    2.0014    2.0160 C   0  0  0  0  0  0  0  0  0  0  0  0
   -0.6308    2.8498    1.3641 H   0  0  0  0  0  0  0  0  0  0  0  0
   -1.8969    1.7103    1.8275 H   0  0  0  0  0  0  0  0  0  0  0  0
   -0.7448    2.4544    3.4693 C   0  0  0  0  0  0  0  0  0  0  0  0
    0.1418    3.2971    3.7518 O   0  5  0  0  0  0  0  0  0  0  0  0
   -1.5892    1.9978    4.2796 O   0  0  0  0  0  0  0  0  0  0  0  0
    1.0657   -0.4811   -0.3294 C   0  0  0  0  0  0  0  0  0  0  0  0
    1.9858   -0.8895    0.3690 O   0  0  0  0  0  0  0  0  0  0  0  0
    1.2218   -0.5468   -1.7033 N   0  0  0  0  0  0  0  0  0  0  0  0
    0.4037   -0.3052   -2.2508 H   0  0  0  0  0  0  0  0  0  0  0  0
    2.2846   -1.3106   -2.3418 C   0  0  0  0  0  0  0  0  0  0  0  0
    2.2206   -2.3657   -2.0565 H   0  0  0  0  0  0  0  0  0  0  0  0
    2.1980   -1.2381   -3.4298 H   0  0  0  0  0  0  0  0  0  0  0  0
    3.2653   -0.9229   -2.0478 H   0  0  0  0  0  0  0  0  0  0  0  0
  1  2  1  0  0  0  0
  2  3  1  0  0  0  0
  2  4  1  0  0  0  0
  2  5  1  0  0  0  0
  5  6  2  0  0  0  0
  5  7  1  0  0  0  0
  7  8  1  0  0  0  0
  7  9  1  0  0  0  0
  9 10  1  0  0  0  0
  9 11  1  0  0  0  0
  9 20  1  0  0  0  0
 11 12  1  0  0  0  0
 11 13  1  0  0  0  0
 11 14  1  0  0  0  0
 14 15  1  0  0  0  0
 14 16  1  0  0  0  0
 14 17  1  0  0  0  0
 17 18  1  0  0  0  0
 17 19  2  0  0  0  0
 20 21  2  0  0  0  0
 20 22  1  0  0  0  0
 22 23  1  0  0  0  0
 22 24  1  0  0  0  0
 24 25  1  0  0  0  0
 24 26  1  0  0  0  0
 24 27  1  0  0  0  0
M  CHG  1  18  -1
M  END
$$$$

  -OEChem-01062216073D

 27 26  0     1  0  0  0  0  0999 V2000
   -3.4229   -2.6228    1.4512 H   0  0  0  0  0  0  0  0  0  0  0  0
   -3.2695   -1.6040    1.0842 C   0  0  0  0  0  0  0  0  0  0  0  0
   -3.5021   -0.9029    1.8905 H   0  0  0  0  0  0  0  0  0  0  0  0
   -3.9477   -1.4239    0.2468 H   0  0  0  0  0  0  0  0  0  0  0  0
   -1.8295   -1.4159    0.6412 C   0  0  0  0  0  0  0  0  0  0  0  0
   -1.0598   -2.3585    0.6943 O   0  0  0  0  0  0  0  0  0  0  0  0
   -1.4590   -0.2103    0.0763 N   0  0  0  0  0  0  0  0  0  0  0  0
   -2.2057    0.4759    0.1307 H   0  0  0  0  0  0  0  0  0  0  0  0
   -0.1083    0.3753    0.2086 C   0  0  1  0  0  0  0  0  0  0  0  0
   -0.0801    1.2870   -0.3935 H   0  0  0  0  0  0  0  0  0  0  0  0
    0.0901    0.8181    1.6726 C   0  0  0  0  0  0  0  0  0  0  0  0
   -0.0876   -0.0195    2.3557 H   0  0  0  0  0  0  0  0  0  0  0  0
    1.1237    1.1492    1.8218 H   0  0  0  0  0  0  0  0  0  0  0  0
   -0.8581    1.9902    1.9999 C   0  0  0  0  0  0  0  0  0  0  0  0
   -0.6404    2.8346    1.3391 H   0  0  0  0  0  0  0  0  0  0  0  0
   -1.8975    1.6963    1.8294 H   0  0  0  0  0  0  0  0  0  0  0  0
   -0.7205    2.4535    3.4480 C   0  0  0  0  0  0  0  0  0  0  0  0
    0.1995    3.2647    3.7160 O   0  5  0  0  0  0  0  0  0  0  0  0
   -1.5780    2.0402    4.2675 O   0  0  0  0  0  0  0  0  0  0  0  0
    1.0532   -0.4885   -0.3490 C   0  0  0  0  0  0  0  0  0  0  0  0
    1.8423   -1.0842    0.3740 O   0  0  0  0  0  0  0  0  0  0  0  0
    1.4128   -0.3192   -1.6760 N   0  0  0  0  0  0  0  0  0  0  0  0
    0.7321    0.1318   -2.2760 H   0  0  0  0  0  0  0  0  0  0  0  0
    2.5475   -0.9967   -2.2885 C   0  0  0  0  0  0  0  0  0  0  0  0
    2.4279   -2.0828   -2.2186 H   0  0  0  0  0  0  0  0  0  0  0  0
    2.6233   -0.7227   -3.3448 H   0  0  0  0  0  0  0  0  0  0  0  0
    3.4795   -0.7098   -1.7905 H   0  0  0  0  0  0  0  0  0  0  0  0
  1  2  1  0  0  0  0
  2  3  1  0  0  0  0
  2  4  1  0  0  0  0
  2  5  1  0  0  0  0
  5  6  2  0  0  0  0
  5  7  1  0  0  0  0
  7  8  1  0  0  0  0
  7  9  1  0  0  0  0
  9 10  1  0  0  0  0
  9 11  1  0  0  0  0
  9 20  1  0  0  0  0
 11 12  1  0  0  0  0
 11 13  1  0  0  0  0
 11 14  1  0  0  0  0
 14 15  1  0  0  0  0
 14 16  1  0  0  0  0
 14 17  1  0  0  0  0
 17 18  1  0  0  0  0
 17 19  2  0  0  0  0
 20 21  2  0  0  0  0
 20 22  1  0  0  0  0
 22 23  1  0  0  0  0
 22 24  1  0  0  0  0
 24 25  1  0  0  0  0
 24 26  1  0  0  0  0
 24 27  1  0  0  0  0
M  CHG  1  18  -1
M  END
$$$$

  -OEChem-01062216073D

 27 26  0     1  0  0  0  0  0999 V2000
   -3.4726   -2.6316    1.4732 H   0  0  0  0  0  0  0  0  0  0  0  0
   -3.3108   -1.6214    1.0863 C   0  0  0  0  0  0  0  0  0  0  0  0
   -3.5551   -0.9021    1.8729 H   0  0  0  0  0  0  0  0  0  0  0  0
   -3.9745   -1.4591    0.2339 H   0  0  0  0  0  0  0  0  0  0  0  0
   -1.8629   -1.4464    0.6629 C   0  0  0  0  0  0  0  0  0  0  0  0
   -1.0999   -2.3897    0.7594 O   0  0  0  0  0  0  0  0  0  0  0  0
   -1.4847   -0.2482    0.0863 N   0  0  0  0  0  0  0  0  0  0  0  0
   -2.2334    0.4369    0.1156 H   0  0  0  0  0  0  0  0  0  0  0  0
   -0.1332    0.3432    0.1877 C   0  0  1  0  0  0  0  0  0  0  0  0
   -0.1334    1.2501   -0.4213 H   0  0  0  0  0  0  0  0  0  0  0  0
    0.0957    0.8025    1.6406 C   0  0  0  0  0  0  0  0  0  0  0  0
   -0.0683   -0.0286    2.3352 H   0  0  0  0  0  0  0  0  0  0  0  0
    1.1326    1.1337    1.7649 H   0  0  0  0  0  0  0  0  0  0  0  0
   -0.8472    1.9761    1.9766 C   0  0  0  0  0  0  0  0  0  0  0  0
   -0.6456    2.8142    1.3031 H   0  0  0  0  0  0  0  0  0  0  0  0
   -1.8891    1.6771    1.8313 H   0  0  0  0  0  0  0  0  0  0  0  0
   -0.6774    2.4548    3.4161 C   0  0  0  0  0  0  0  0  0  0  0  0
    0.3072    3.1908    3.6716 O   0  5  0  0  0  0  0  0  0  0  0  0
   -1.5702    2.1348    4.2394 O   0  0  0  0  0  0  0  0  0  0  0  0
    1.0450   -0.4976   -0.3729 C   0  0  0  0  0  0  0  0  0  0  0  0
    1.6963   -1.2746    0.3130 O   0  0  0  0  0  0  0  0  0  0  0  0
    1.5999   -0.1209   -1.5858 N   0  0  0  0  0  0  0  0  0  0  0  0
    1.0999    0.5711   -2.1312 H   0  0  0  0  0  0  0  0  0  0  0  0
    2.8180   -0.7040   -2.1316 C   0  0  0  0  0  0  0  0  0  0  0  0
    2.7096   -1.7885   -2.2361 H   0  0  0  0  0  0  0  0  0  0  0  0
    3.0286   -0.2808   -3.1181 H   0  0  0  0  0  0  0  0  0  0  0  0
    3.6694   -0.4944   -1.4761 H   0  0  0  0  0  0  0  0  0  0  0  0
  1  2  1  0  0  0  0
  2  3  1  0  0  0  0
  2  4  1  0  0  0  0
  2  5  1  0  0  0  0
  5  6  2  0  0  0  0
  5  7  1  0  0  0  0
  7  8  1  0  0  0  0
  7  9  1  0  0  0  0
  9 10  1  0  0  0  0
  9 11  1  0  0  0  0
  9 20  1  0  0  0  0
 11 12  1  0  0  0  0
 11 13  1  0  0  0  0
 11 14  1  0  0  0  0
 14 15  1  0  0  0  0
 14 16  1  0  0  0  0
 14 17  1  0  0  0  0
 17 18  1  0  0  0  0
 17 19  2  0  0  0  0
 20 21  2  0  0  0  0
 20 22  1  0  0  0  0
 22 23  1  0  0  0  0
 22 24  1  0  0  0  0
 24 25  1  0  0  0  0
 24 26  1  0  0  0  0
 24 27  1  0  0  0  0
M  CHG  1  18  -1
M  END
$$$$

  -OEChem-01062216073D

 27 26  0     1  0  0  0  0  0999 V2000
   -3.5545   -2.7367    1.3492 H   0  0  0  0  0  0  0  0  0  0  0  0
   -3.3826   -1.7624    0.8828 C   0  0  0  0  0  0  0  0  0  0  0  0
   -3.8727   -0.9940    1.4865 H   0  0  0  0  0  0  0  0  0  0  0  0
   -3.8225   -1.7681   -0.1171 H   0  0  0  0  0  0  0  0  0  0  0  0
   -1.8934   -1.4767    0.7948 C   0  0  0  0  0  0  0  0  0  0  0  0
   -1.1185   -2.2944    1.2526 O   0  0  0  0  0  0  0  0  0  0  0  0
   -1.4976   -0.2891    0.2058 N   0  0  0  0  0  0  0  0  0  0  0  0
   -2.2654    0.3471    0.0199 H   0  0  0  0  0  0  0  0  0  0  0  0
   -0.1510    0.3229    0.2406 C   0  0  1  0  0  0  0  0  0  0  0  0
   -0.2125    1.2107   -0.3925 H   0  0  0  0  0  0  0  0  0  0  0  0
    0.1584    0.8341    1.6585 C   0  0  0  0  0  0  0  0  0  0  0  0
    0.0394    0.0255    2.3879 H   0  0  0  0  0  0  0  0  0  0  0  0
    1.1986    1.1735    1.7116 H   0  0  0  0  0  0  0  0  0  0  0  0
   -0.7722    2.0128    2.0109 C   0  0  0  0  0  0  0  0  0  0  0  0
   -0.6177    2.8286    1.2990 H   0  0  0  0  0  0  0  0  0  0  0  0
   -1.8173    1.6982    1.9364 H   0  0  0  0  0  0  0  0  0  0  0  0
   -0.5234    2.5467    3.4204 C   0  0  0  0  0  0  0  0  0  0  0  0
    0.5752    3.1170    3.6344 O   0  5  0  0  0  0  0  0  0  0  0  0
   -1.4621    2.4602    4.2504 O   0  0  0  0  0  0  0  0  0  0  0  0
    1.0386   -0.4810   -0.3528 C   0  0  0  0  0  0  0  0  0  0  0  0
    1.4687   -1.5288    0.1059 O   0  0  0  0  0  0  0  0  0  0  0  0
    1.7427    0.0790   -1.4079 N   0  0  0  0  0  0  0  0  0  0  0  0
    1.4905    1.0231   -1.6775 H   0  0  0  0  0  0  0  0  0  0  0  0
    2.9751   -0.4891   -1.9384 C   0  0  0  0  0  0  0  0  0  0  0  0
    2.8083   -1.5159   -2.2801 H   0  0  0  0  0  0  0  0  0  0  0  0
    3.3270    0.1033   -2.7881 H   0  0  0  0  0  0  0  0  0  0  0  0
    3.7553   -0.4934   -1.1703 H   0  0  0  0  0  0  0  0  0  0  0  0
  1  2  1  0  0  0  0
  2  3  1  0  0  0  0
  2  4  1  0  0  0  0
  2  5  1  0  0  0  0
  5  6  2  0  0  0  0
  5  7  1  0  0  0  0
  7  8  1  0  0  0  0
  7  9  1  0  0  0  0
  9 10  1  0  0  0  0
  9 11  1  0  0  0  0
  9 20  1  0  0  0  0
 11 12  1  0  0  0  0
 11 13  1  0  0  0  0
 11 14  1  0  0  0  0
 14 15  1  0  0  0  0
 14 16  1  0  0  0  0
 14 17  1  0  0  0  0
 17 18  1  0  0  0  0
 17 19  2  0  0  0  0
 20 21  2  0  0  0  0
 20 22  1  0  0  0  0
 22 23  1  0  0  0  0
 22 24  1  0  0  0  0
 24 25  1  0  0  0  0
 24 26  1  0  0  0  0
 24 27  1  0  0  0  0
M  CHG  1  18  -1
M  END
$$$$

  -OEChem-01062216073D

 27 26  0     1  0  0  0  0  0999 V2000
   -3.4129   -2.9330    1.1482 H   0  0  0  0  0  0  0  0  0  0  0  0
   -3.2616   -1.9869    0.6206 C   0  0  0  0  0  0  0  0  0  0  0  0
   -4.0233   -1.2752    0.9485 H   0  0  0  0  0  0  0  0  0  0  0  0
   -3.3706   -2.1614   -0.4525 H   0  0  0  0  0  0  0  0  0  0  0  0
   -1.8780   -1.4355    0.9181 C   0  0  0  0  0  0  0  0  0  0  0  0
   -1.1721   -2.0223    1.7210 O   0  0  0  0  0  0  0  0  0  0  0  0
   -1.5066   -0.2418    0.3249 N   0  0  0  0  0  0  0  0  0  0  0  0
   -2.2010    0.1870   -0.2751 H   0  0  0  0  0  0  0  0  0  0  0  0
   -0.1634    0.3717    0.3687 C   0  0  1  0  0  0  0  0  0  0  0  0
   -0.2303    1.2421   -0.2881 H   0  0  0  0  0  0  0  0  0  0  0  0
    0.1899    0.9321    1.7575 C   0  0  0  0  0  0  0  0  0  0  0  0
    0.0835    0.1547    2.5211 H   0  0  0  0  0  0  0  0  0  0  0  0
    1.2348    1.2605    1.7682 H   0  0  0  0  0  0  0  0  0  0  0  0
   -0.7139    2.1335    2.0977 C   0  0  0  0  0  0  0  0  0  0  0  0
   -0.5722    2.9234    1.3548 H   0  0  0  0  0  0  0  0  0  0  0  0
   -1.7631    1.8253    2.0648 H   0  0  0  0  0  0  0  0  0  0  0  0
   -0.4122    2.7102    3.4809 C   0  0  0  0  0  0  0  0  0  0  0  0
    0.7554    3.1293    3.6841 O   0  5  0  0  0  0  0  0  0  0  0  0
   -1.3642    2.8187    4.2925 O   0  0  0  0  0  0  0  0  0  0  0  0
    1.0081   -0.4507   -0.2303 C   0  0  0  0  0  0  0  0  0  0  0  0
    0.9947   -1.6709   -0.3305 O   0  0  0  0  0  0  0  0  0  0  0  0
    1.9051    0.2194   -1.0472 N   0  0  0  0  0  0  0  0  0  0  0  0
    1.9671    1.2240   -0.9130 H   0  0  0  0  0  0  0  0  0  0  0  0
    2.9853   -0.4477   -1.7627 C   0  0  0  0  0  0  0  0  0  0  0  0
    2.5806   -1.1377   -2.5101 H   0  0  0  0  0  0  0  0  0  0  0  0
    3.6078    0.2911   -2.2762 H   0  0  0  0  0  0  0  0  0  0  0  0
    3.6168   -1.0096   -1.0667 H   0  0  0  0  0  0  0  0  0  0  0  0
  1  2  1  0  0  0  0
  2  3  1  0  0  0  0
  2  4  1  0  0  0  0
  2  5  1  0  0  0  0
  5  6  2  0  0  0  0
  5  7  1  0  0  0  0
  7  8  1  0  0  0  0
  7  9  1  0  0  0  0
  9 10  1  0  0  0  0
  9 11  1  0  0  0  0
  9 20  1  0  0  0  0
 11 12  1  0  0  0  0
 11 13  1  0  0  0  0
 11 14  1  0  0  0  0
 14 15  1  0  0  0  0
 14 16  1  0  0  0  0
 14 17  1  0  0  0  0
 17 18  1  0  0  0  0
 17 19  2  0  0  0  0
 20 21  2  0  0  0  0
 20 22  1  0  0  0  0
 22 23  1  0  0  0  0
 22 24  1  0  0  0  0
 24 25  1  0  0  0  0
 24 26  1  0  0  0  0
 24 27  1  0  0  0  0
M  CHG  1  18  -1
M  END
$$$$

  -OEChem-01062216073D

 27 26  0     1  0  0  0  0  0999 V2000
   -3.3933   -2.9248    1.1616 H   0  0  0  0  0  0  0  0  0  0  0  0
   -3.2492   -1.9823    0.6261 C   0  0  0  0  0  0  0  0  0  0  0  0
   -4.0116   -1.2710    0.9530 H   0  0  0  0  0  0  0  0  0  0  0  0
   -3.3641   -2.1656   -0.4448 H   0  0  0  0  0  0  0  0  0  0  0  0
   -1.8661   -1.4232    0.9098 C   0  0  0  0  0  0  0  0  0  0  0  0
   -1.1376   -2.0138    1.6909 O   0  0  0  0  0  0  0  0  0  0  0  0
   -1.5034   -0.2289    0.3133 N   0  0  0  0  0  0  0  0  0  0  0  0
   -2.1917    0.1906   -0.3003 H   0  0  0  0  0  0  0  0  0  0  0  0
   -0.1602    0.3813    0.3682 C   0  0  1  0  0  0  0  0  0  0  0  0
   -0.2111    1.2501   -0.2927 H   0  0  0  0  0  0  0  0  0  0  0  0
    0.1826    0.9380    1.7620 C   0  0  0  0  0  0  0  0  0  0  0  0
    0.0677    0.1599    2.5234 H   0  0  0  0  0  0  0  0  0  0  0  0
    1.2276    1.2639    1.7844 H   0  0  0  0  0  0  0  0  0  0  0  0
   -0.7201    2.1400    2.0998 C   0  0  0  0  0  0  0  0  0  0  0  0
   -0.5713    2.9323    1.3609 H   0  0  0  0  0  0  0  0  0  0  0  0
   -1.7702    1.8356    2.0593 H   0  0  0  0  0  0  0  0  0  0  0  0
   -0.4237    2.7079    3.4878 C   0  0  0  0  0  0  0  0  0  0  0  0
    0.7461    3.1164    3.7006 O   0  5  0  0  0  0  0  0  0  0  0  0
   -1.3778    2.8124    4.2972 O   0  0  0  0  0  0  0  0  0  0  0  0
    1.0046   -0.4544   -0.2222 C   0  0  0  0  0  0  0  0  0  0  0  0
    0.8594   -1.6102   -0.6049 O   0  0  0  0  0  0  0  0  0  0  0  0
    2.0758    0.2387   -0.7619 N   0  0  0  0  0  0  0  0  0  0  0  0
    2.2257    1.1766   -0.4008 H   0  0  0  0  0  0  0  0  0  0  0  0
    3.1670   -0.4078   -1.4791 C   0  0  0  0  0  0  0  0  0  0  0  0
    2.7977   -0.8743   -2.3981 H   0  0  0  0  0  0  0  0  0  0  0  0
    3.9283    0.3299   -1.7491 H   0  0  0  0  0  0  0  0  0  0  0  0
    3.6343   -1.1760   -0.8543 H   0  0  0  0  0  0  0  0  0  0  0  0
  1  2  1  0  0  0  0
  2  3  1  0  0  0  0
  2  4  1  0  0  0  0
  2  5  1  0  0  0  0
  5  6  2  0  0  0  0
  5  7  1  0  0  0  0
  7  8  1  0  0  0  0
  7  9  1  0  0  0  0
  9 10  1  0  0  0  0
  9 11  1  0  0  0  0
  9 20  1  0  0  0  0
 11 12  1  0  0  0  0
 11 13  1  0  0  0  0
 11 14  1  0  0  0  0
 14 15  1  0  0  0  0
 14 16  1  0  0  0  0
 14 17  1  0  0  0  0
 17 18  1  0  0  0  0
 17 19  2  0  0  0  0
 20 21  2  0  0  0  0
 20 22  1  0  0  0  0
 22 23  1  0  0  0  0
 22 24  1  0  0  0  0
 24 25  1  0  0  0  0
 24 26  1  0  0  0  0
 24 27  1  0  0  0  0
M  CHG  1  18  -1
M  END
$$$$

  -OEChem-01062216073D

 27 26  0     1  0  0  0  0  0999 V2000
   -3.3789   -2.8969    1.2009 H   0  0  0  0  0  0  0  0  0  0  0  0
   -3.2460   -1.9566    0.6586 C   0  0  0  0  0  0  0  0  0  0  0  0
   -3.9857   -1.2364    1.0169 H   0  0  0  0  0  0  0  0  0  0  0  0
   -3.4083   -2.1391   -0.4064 H   0  0  0  0  0  0  0  0  0  0  0  0
   -1.8454   -1.4144    0.8834 C   0  0  0  0  0  0  0  0  0  0  0  0
   -1.0793   -2.0304    1.6077 O   0  0  0  0  0  0  0  0  0  0  0  0
   -1.4930   -0.2179    0.2857 N   0  0  0  0  0  0  0  0  0  0  0  0
   -2.2047    0.2349   -0.2756 H   0  0  0  0  0  0  0  0  0  0  0  0
   -0.1537    0.3996    0.3469 C   0  0  1  0  0  0  0  0  0  0  0  0
   -0.1927    1.2715   -0.3111 H   0  0  0  0  0  0  0  0  0  0  0  0
    0.1718    0.9419    1.7525 C   0  0  0  0  0  0  0  0  0  0  0  0
    0.0554    0.1528    2.5021 H   0  0  0  0  0  0  0  0  0  0  0  0
    1.2130    1.2768    1.7932 H   0  0  0  0  0  0  0  0  0  0  0  0
   -0.7419    2.1320    2.1001 C   0  0  0  0  0  0  0  0  0  0  0  0
   -0.5904    2.9363    1.3747 H   0  0  0  0  0  0  0  0  0  0  0  0
   -1.7896    1.8220    2.0459 H   0  0  0  0  0  0  0  0  0  0  0  0
   -0.4580    2.6794    3.4990 C   0  0  0  0  0  0  0  0  0  0  0  0
    0.7143    3.0680    3.7350 O   0  5  0  0  0  0  0  0  0  0  0  0
   -1.4218    2.7818    4.2971 O   0  0  0  0  0  0  0  0  0  0  0  0
    1.0064   -0.4436   -0.2402 C   0  0  0  0  0  0  0  0  0  0  0  0
    0.8041   -1.4947   -0.8405 O   0  0  0  0  0  0  0  0  0  0  0  0
    2.2090    0.1949   -0.4930 N   0  0  0  0  0  0  0  0  0  0  0  0
    2.3850    1.0414    0.0421 H   0  0  0  0  0  0  0  0  0  0  0  0
    3.3325   -0.4503   -1.1580 C   0  0  0  0  0  0  0  0  0  0  0  0
    3.0668   -0.7181   -2.1856 H   0  0  0  0  0  0  0  0  0  0  0  0
    4.1899    0.2284   -1.1892 H   0  0  0  0  0  0  0  0  0  0  0  0
    3.6266   -1.3573   -0.6200 H   0  0  0  0  0  0  0  0  0  0  0  0
  1  2  1  0  0  0  0
  2  3  1  0  0  0  0
  2  4  1  0  0  0  0
  2  5  1  0  0  0  0
  5  6  2  0  0  0  0
  5  7  1  0  0  0  0
  7  8  1  0  0  0  0
  7  9  1  0  0  0  0
  9 10  1  0  0  0  0
  9 11  1  0  0  0  0
  9 20  1  0  0  0  0
 11 12  1  0  0  0  0
 11 13  1  0  0  0  0
 11 14  1  0  0  0  0
 14 15  1  0  0  0  0
 14 16  1  0  0  0  0
 14 17  1  0  0  0  0
 17 18  1  0  0  0  0
 17 19  2  0  0  0  0
 20 21  2  0  0  0  0
 20 22  1  0  0  0  0
 22 23  1  0  0  0  0
 22 24  1  0  0  0  0
 24 25  1  0  0  0  0
 24 26  1  0  0  0  0
 24 27  1  0  0  0  0
M  CHG  1  18  -1
M  END
$$$$

  -OEChem-01062216073D

 27 26  0     1  0  0  0  0  0999 V2000
   -3.3518   -2.8544    1.2824 H   0  0  0  0  0  0  0  0  0  0  0  0
   -3.2455   -1.8865    0.7845 C   0  0  0  0  0  0  0  0  0  0  0  0
   -3.8330   -1.1445    1.3311 H   0  0  0  0  0  0  0  0  0  0  0  0
   -3.6302   -1.9695   -0.2348 H   0  0  0  0  0  0  0  0  0  0  0  0
   -1.7857   -1.4693    0.7548 C   0  0  0  0  0  0  0  0  0  0  0  0
   -0.9382   -2.2327    1.1914 O   0  0  0  0  0  0  0  0  0  0  0  0
   -1.4547   -0.2476    0.1998 N   0  0  0  0  0  0  0  0  0  0  0  0
   -2.2330    0.3293   -0.0974 H   0  0  0  0  0  0  0  0  0  0  0  0
   -0.1268    0.3900    0.2938 C   0  0  1  0  0  0  0  0  0  0  0  0
   -0.2416    1.3929   -0.1249 H   0  0  0  0  0  0  0  0  0  0  0  0
    0.3400    0.6018    1.7514 C   0  0  0  0  0  0  0  0  0  0  0  0
    0.3299   -0.3404    2.3070 H   0  0  0  0  0  0  0  0  0  0  0  0
    1.3697    0.9706    1.7659 H   0  0  0  0  0  0  0  0  0  0  0  0
   -0.5509    1.6400    2.4587 C   0  0  0  0  0  0  0  0  0  0  0  0
   -0.4919    2.5972    1.9331 H   0  0  0  0  0  0  0  0  0  0  0  0
   -1.5931    1.3077    2.4376 H   0  0  0  0  0  0  0  0  0  0  0  0
   -0.1275    1.8558    3.9120 C   0  0  0  0  0  0  0  0  0  0  0  0
    1.0634    2.2020    4.1183 O   0  5  0  0  0  0  0  0  0  0  0  0
   -1.0068    1.7447    4.8013 O   0  0  0  0  0  0  0  0  0  0  0  0
    0.9496   -0.2483   -0.6189 C   0  0  0  0  0  0  0  0  0  0  0  0
    0.6415   -0.9845   -1.5517 O   0  0  0  0  0  0  0  0  0  0  0  0
    2.2350    0.2657   -0.6113 N   0  0  0  0  0  0  0  0  0  0  0  0
    2.4873    0.8251    0.1996 H   0  0  0  0  0  0  0  0  0  0  0  0
    3.3010   -0.2372   -1.4661 C   0  0  0  0  0  0  0  0  0  0  0  0
    3.0546   -0.0776   -2.5207 H   0  0  0  0  0  0  0  0  0  0  0  0
    4.2359    0.2869   -1.2466 H   0  0  0  0  0  0  0  0  0  0  0  0
    3.4544   -1.3079   -1.2957 H   0  0  0  0  0  0  0  0  0  0  0  0
  1  2  1  0  0  0  0
  2  3  1  0  0  0  0
  2  4  1  0  0  0  0
  2  5  1  0  0  0  0
  5  6  2  0  0  0  0
  5  7  1  0  0  0  0
  7  8  1  0  0  0  0
  7  9  1  0  0  0  0
  9 10  1  0  0  0  0
  9 11  1  0  0  0  0
  9 20  1  0  0  0  0
 11 12  1  0  0  0  0
 11 13  1  0  0  0  0
 11 14  1  0  0  0  0
 14 15  1  0  0  0  0
 14 16  1  0  0  0  0
 14 17  1  0  0  0  0
 17 18  1  0  0  0  0
 17 19  2  0  0  0  0
 20 21  2  0  0  0  0
 20 22  1  0  0  0  0
 22 23  1  0  0  0  0
 22 24  1  0  0  0  0
 24 25  1  0  0  0  0
 24 26  1  0  0  0  0
 24 27  1  0  0  0  0
M  CHG  1  18  -1
M  END
$$$$

  -OEChem-01062216073D

 27 26  0     1  0  0  0  0  0999 V2000
   -3.3104   -2.8395    1.2958 H   0  0  0  0  0  0  0  0  0  0  0  0
   -3.2160   -1.8685    0.8015 C   0  0  0  0  0  0  0  0  0  0  0  0
   -3.7875   -1.1294    1.3690 H   0  0  0  0  0  0  0  0  0  0  0  0
   -3.6286   -1.9440   -0.2074 H   0  0  0  0  0  0  0  0  0  0  0  0
   -1.7571   -1.4534    0.7347 C   0  0  0  0  0  0  0  0  0  0  0  0
   -0.8955   -2.2264    1.1252 O   0  0  0  0  0  0  0  0  0  0  0  0
   -1.4361   -0.2275    0.1844 N   0  0  0  0  0  0  0  0  0  0  0  0
   -2.2215    0.3588   -0.0735 H   0  0  0  0  0  0  0  0  0  0  0  0
   -0.1136    0.4184    0.2957 C   0  0  1  0  0  0  0  0  0  0  0  0
   -0.2198    1.4239   -0.1196 H   0  0  0  0  0  0  0  0  0  0  0  0
    0.3278    0.6178    1.7641 C   0  0  0  0  0  0  0  0  0  0  0  0
    0.3194   -0.3304    2.3094 H   0  0  0  0  0  0  0  0  0  0  0  0
    1.3516    1.0010    1.7991 H   0  0  0  0  0  0  0  0  0  0  0  0
   -0.5805    1.6412    2.4699 C   0  0  0  0  0  0  0  0  0  0  0  0
   -0.5198    2.6049    1.9565 H   0  0  0  0  0  0  0  0  0  0  0  0
   -1.6200    1.3027    2.4301 H   0  0  0  0  0  0  0  0  0  0  0  0
   -0.1795    1.8406    3.9318 C   0  0  0  0  0  0  0  0  0  0  0  0
    1.0095    2.1766    4.1639 O   0  5  0  0  0  0  0  0  0  0  0  0
   -1.0731    1.7162    4.8047 O   0  0  0  0  0  0  0  0  0  0  0  0
    0.9615   -0.2268   -0.6148 C   0  0  0  0  0  0  0  0  0  0  0  0
    0.6441   -0.7685   -1.6700 O   0  0  0  0  0  0  0  0  0  0  0  0
    2.3039    0.0415   -0.4096 N   0  0  0  0  0  0  0  0  0  0  0  0
    2.5484    0.4391    0.4939 H   0  0  0  0  0  0  0  0  0  0  0  0
    3.3661   -0.5100   -1.2380 C   0  0  0  0  0  0  0  0  0  0  0  0
    3.2764   -0.1474   -2.2670 H   0  0  0  0  0  0  0  0  0  0  0  0
    4.3417   -0.2056   -0.8477 H   0  0  0  0  0  0  0  0  0  0  0  0
    3.3200   -1.6039   -1.2419 H   0  0  0  0  0  0  0  0  0  0  0  0
  1  2  1  0  0  0  0
  2  3  1  0  0  0  0
  2  4  1  0  0  0  0
  2  5  1  0  0  0  0
  5  6  2  0  0  0  0
  5  7  1  0  0  0  0
  7  8  1  0  0  0  0
  7  9  1  0  0  0  0
  9 10  1  0  0  0  0
  9 11  1  0  0  0  0
  9 20  1  0  0  0  0
 11 12  1  0  0  0  0
 11 13  1  0  0  0  0
 11 14  1  0  0  0  0
 14 15  1  0  0  0  0
 14 16  1  0  0  0  0
 14 17  1  0  0  0  0
 17 18  1  0  0  0  0
 17 19  2  0  0  0  0
 20 21  2  0  0  0  0
 20 22  1  0  0  0  0
 22 23  1  0  0  0  0
 22 24  1  0  0  0  0
 24 25  1  0  0  0  0
 24 26  1  0  0  0  0
 24 27  1  0  0  0  0
M  CHG  1  18  -1
M  END
$$$$

  -OEChem-01062216073D

 27 26  0     1  0  0  0  0  0999 V2000
   -3.2803   -2.8296    1.2942 H   0  0  0  0  0  0  0  0  0  0  0  0
   -3.1940   -1.8519    0.8118 C   0  0  0  0  0  0  0  0  0  0  0  0
   -3.7491   -1.1192    1.4031 H   0  0  0  0  0  0  0  0  0  0  0  0
   -3.6300   -1.9114   -0.1882 H   0  0  0  0  0  0  0  0  0  0  0  0
   -1.7357   -1.4404    0.7174 C   0  0  0  0  0  0  0  0  0  0  0  0
   -0.8666   -2.2189    1.0798 O   0  0  0  0  0  0  0  0  0  0  0  0
   -1.4195   -0.2123    0.1696 N   0  0  0  0  0  0  0  0  0  0  0  0
   -2.2085    0.3797   -0.0645 H   0  0  0  0  0  0  0  0  0  0  0  0
   -0.1021    0.4405    0.2971 C   0  0  1  0  0  0  0  0  0  0  0  0
   -0.2026    1.4475   -0.1158 H   0  0  0  0  0  0  0  0  0  0  0  0
    0.3200    0.6302    1.7725 C   0  0  0  0  0  0  0  0  0  0  0  0
    0.3148   -0.3224    2.3106 H   0  0  0  0  0  0  0  0  0  0  0  0
    1.3397    1.0241    1.8181 H   0  0  0  0  0  0  0  0  0  0  0  0
   -0.6017    1.6416    2.4779 C   0  0  0  0  0  0  0  0  0  0  0  0
   -0.5400    2.6104    1.9745 H   0  0  0  0  0  0  0  0  0  0  0  0
   -1.6389    1.2981    2.4223 H   0  0  0  0  0  0  0  0  0  0  0  0
   -0.2184    1.8291    3.9467 C   0  0  0  0  0  0  0  0  0  0  0  0
    0.9750    2.1301    4.2027 O   0  5  0  0  0  0  0  0  0  0  0  0
   -1.1301    1.7208    4.8031 O   0  0  0  0  0  0  0  0  0  0  0  0
    0.9741   -0.2111   -0.6064 C   0  0  0  0  0  0  0  0  0  0  0  0
    0.6906   -0.5548   -1.7507 O   0  0  0  0  0  0  0  0  0  0  0  0
    2.3077   -0.2143   -0.2372 N   0  0  0  0  0  0  0  0  0  0  0  0
    2.5018    0.0018    0.7375 H   0  0  0  0  0  0  0  0  0  0  0  0
    3.3608   -0.8176   -1.0404 C   0  0  0  0  0  0  0  0  0  0  0  0
    3.4358   -0.3183   -2.0117 H   0  0  0  0  0  0  0  0  0  0  0  0
    4.3228   -0.7230   -0.5280 H   0  0  0  0  0  0  0  0  0  0  0  0
    3.1567   -1.8809   -1.2027 H   0  0  0  0  0  0  0  0  0  0  0  0
  1  2  1  0  0  0  0
  2  3  1  0  0  0  0
  2  4  1  0  0  0  0
  2  5  1  0  0  0  0
  5  6  2  0  0  0  0
  5  7  1  0  0  0  0
  7  8  1  0  0  0  0
  7  9  1  0  0  0  0
  9 10  1  0  0  0  0
  9 11  1  0  0  0  0
  9 20  1  0  0  0  0
 11 12  1  0  0  0  0
 11 13  1  0  0  0  0
 11 14  1  0  0  0  0
 14 15  1  0  0  0  0
 14 16  1  0  0  0  0
 14 17  1  0  0  0  0
 17 18  1  0  0  0  0
 17 19  2  0  0  0  0
 20 21  2  0  0  0  0
 20 22  1  0  0  0  0
 22 23  1  0  0  0  0
 22 24  1  0  0  0  0
 24 25  1  0  0  0  0
 24 26  1  0  0  0  0
 24 27  1  0  0  0  0
M  CHG  1  18  -1
M  END
$$$$

  -OEChem-01062216073D

 27 26  0     1  0  0  0  0  0999 V2000
   -3.2634   -2.8169    1.2950 H   0  0  0  0  0  0  0  0  0  0  0  0
   -3.1806   -1.8353    0.8199 C   0  0  0  0  0  0  0  0  0  0  0  0
   -3.7205   -1.1050    1.4284 H   0  0  0  0  0  0  0  0  0  0  0  0
   -3.6363   -1.8826   -0.1720 H   0  0  0  0  0  0  0  0  0  0  0  0
   -1.7219   -1.4307    0.7026 C   0  0  0  0  0  0  0  0  0  0  0  0
   -0.8489   -2.2156    1.0421 O   0  0  0  0  0  0  0  0  0  0  0  0
   -1.4065   -0.2020    0.1559 N   0  0  0  0  0  0  0  0  0  0  0  0
   -2.1968    0.3974   -0.0543 H   0  0  0  0  0  0  0  0  0  0  0  0
   -0.0918    0.4523    0.2982 C   0  0  1  0  0  0  0  0  0  0  0  0
   -0.1859    1.4609   -0.1134 H   0  0  0  0  0  0  0  0  0  0  0  0
    0.3165    0.6355    1.7777 C   0  0  0  0  0  0  0  0  0  0  0  0
    0.3066   -0.3191    2.3119 H   0  0  0  0  0  0  0  0  0  0  0  0
    1.3370    1.0288    1.8293 H   0  0  0  0  0  0  0  0  0  0  0  0
   -0.6128    1.6419    2.4805 C   0  0  0  0  0  0  0  0  0  0  0  0
   -0.5475    2.6136    1.9828 H   0  0  0  0  0  0  0  0  0  0  0  0
   -1.6489    1.2974    2.4134 H   0  0  0  0  0  0  0  0  0  0  0  0
   -0.2442    1.8232    3.9538 C   0  0  0  0  0  0  0  0  0  0  0  0
    0.9498    2.1052    4.2267 O   0  5  0  0  0  0  0  0  0  0  0  0
   -1.1677    1.7213    4.7984 O   0  0  0  0  0  0  0  0  0  0  0  0
    0.9878   -0.2039   -0.5952 C   0  0  0  0  0  0  0  0  0  0  0  0
    0.7792   -0.3474   -1.7966 O   0  0  0  0  0  0  0  0  0  0  0  0
    2.2488   -0.4899   -0.1040 N   0  0  0  0  0  0  0  0  0  0  0  0
    2.3497   -0.4553    0.9076 H   0  0  0  0  0  0  0  0  0  0  0  0
    3.2861   -1.1421   -0.8887 C   0  0  0  0  0  0  0  0  0  0  0  0
    3.5374   -0.5404   -1.7679 H   0  0  0  0  0  0  0  0  0  0  0  0
    4.1905   -1.2649   -0.2857 H   0  0  0  0  0  0  0  0  0  0  0  0
    2.9505   -2.1305   -1.2184 H   0  0  0  0  0  0  0  0  0  0  0  0
  1  2  1  0  0  0  0
  2  3  1  0  0  0  0
  2  4  1  0  0  0  0
  2  5  1  0  0  0  0
  5  6  2  0  0  0  0
  5  7  1  0  0  0  0
  7  8  1  0  0  0  0
  7  9  1  0  0  0  0
  9 10  1  0  0  0  0
  9 11  1  0  0  0  0
  9 20  1  0  0  0  0
 11 12  1  0  0  0  0
 11 13  1  0  0  0  0
 11 14  1  0  0  0  0
 14 15  1  0  0  0  0
 14 16  1  0  0  0  0
 14 17  1  0  0  0  0
 17 18  1  0  0  0  0
 17 19  2  0  0  0  0
 20 21  2  0  0  0  0
 20 22  1  0  0  0  0
 22 23  1  0  0  0  0
 22 24  1  0  0  0  0
 24 25  1  0  0  0  0
 24 26  1  0  0  0  0
 24 27  1  0  0  0  0
M  CHG  1  18  -1
M  END
$$$$

  -OEChem-01062216073D

 27 26  0     1  0  0  0  0  0999 V2000
   -3.2498   -2.8176    1.2560 H   0  0  0  0  0  0  0  0  0  0  0  0
   -3.1677   -1.8113    0.8355 C   0  0  0  0  0  0  0  0  0  0  0  0
   -3.6754   -1.1096    1.5026 H   0  0  0  0  0  0  0  0  0  0  0  0
   -3.6576   -1.7958   -0.1409 H   0  0  0  0  0  0  0  0  0  0  0  0
   -1.7080   -1.4193    0.6907 C   0  0  0  0  0  0  0  0  0  0  0  0
   -0.8330   -2.2119    1.0078 O   0  0  0  0  0  0  0  0  0  0  0  0
   -1.3919   -0.1924    0.1406 N   0  0  0  0  0  0  0  0  0  0  0  0
   -2.1828    0.4150   -0.0440 H   0  0  0  0  0  0  0  0  0  0  0  0
   -0.0783    0.4607    0.2963 C   0  0  1  0  0  0  0  0  0  0  0  0
   -0.1641    1.4699   -0.1161 H   0  0  0  0  0  0  0  0  0  0  0  0
    0.3156    0.6383    1.7798 C   0  0  0  0  0  0  0  0  0  0  0  0
    0.2974   -0.3170    2.3128 H   0  0  0  0  0  0  0  0  0  0  0  0
    1.3380    1.0268    1.8391 H   0  0  0  0  0  0  0  0  0  0  0  0
   -0.6217    1.6430    2.4738 C   0  0  0  0  0  0  0  0  0  0  0  0
   -0.5505    2.6160    1.9793 H   0  0  0  0  0  0  0  0  0  0  0  0
   -1.6576    1.3004    2.3945 H   0  0  0  0  0  0  0  0  0  0  0  0
   -0.2676    1.8183    3.9506 C   0  0  0  0  0  0  0  0  0  0  0  0
    0.8951    2.2035    4.2298 O   0  5  0  0  0  0  0  0  0  0  0  0
   -1.1717    1.5968    4.7932 O   0  0  0  0  0  0  0  0  0  0  0  0
    1.0061   -0.2024   -0.5826 C   0  0  0  0  0  0  0  0  0  0  0  0
    0.9103   -0.1507   -1.8054 O   0  0  0  0  0  0  0  0  0  0  0  0
    2.1359   -0.7673   -0.0207 N   0  0  0  0  0  0  0  0  0  0  0  0
    2.0952   -0.9215    0.9841 H   0  0  0  0  0  0  0  0  0  0  0  0
    3.1448   -1.4738   -0.7947 C   0  0  0  0  0  0  0  0  0  0  0  0
    3.5829   -0.8115   -1.5481 H   0  0  0  0  0  0  0  0  0  0  0  0
    3.9453   -1.8230   -0.1357 H   0  0  0  0  0  0  0  0  0  0  0  0
    2.7035   -2.3404   -1.2975 H   0  0  0  0  0  0  0  0  0  0  0  0
  1  2  1  0  0  0  0
  2  3  1  0  0  0  0
  2  4  1  0  0  0  0
  2  5  1  0  0  0  0
  5  6  2  0  0  0  0
  5  7  1  0  0  0  0
  7  8  1  0  0  0  0
  7  9  1  0  0  0  0
  9 10  1  0  0  0  0
  9 11  1  0  0  0  0
  9 20  1  0  0  0  0
 11 12  1  0  0  0  0
 11 13  1  0  0  0  0
 11 14  1  0  0  0  0
 14 15  1  0  0  0  0
 14 16  1  0  0  0  0
 14 17  1  0  0  0  0
 17 18  1  0  0  0  0
 17 19  2  0  0  0  0
 20 21  2  0  0  0  0
 20 22  1  0  0  0  0
 22 23  1  0  0  0  0
 22 24  1  0  0  0  0
 24 25  1  0  0  0  0
 24 26  1  0  0  0  0
 24 27  1  0  0  0  0
M  CHG  1  18  -1
M  END
$$$$

  -OEChem-01062216073D

 27 26  0     1  0  0  0  0  0999 V2000
   -3.2395   -2.8119    1.2360 H   0  0  0  0  0  0  0  0  0  0  0  0
   -3.1572   -1.7940    0.8449 C   0  0  0  0  0  0  0  0  0  0  0  0
   -3.6458   -1.1094    1.5432 H   0  0  0  0  0  0  0  0  0  0  0  0
   -3.6659   -1.7442   -0.1208 H   0  0  0  0  0  0  0  0  0  0  0  0
   -1.6975   -1.4094    0.6842 C   0  0  0  0  0  0  0  0  0  0  0  0
   -0.8223   -2.2065    0.9916 O   0  0  0  0  0  0  0  0  0  0  0  0
   -1.3791   -0.1855    0.1278 N   0  0  0  0  0  0  0  0  0  0  0  0
   -2.1693    0.4286   -0.0383 H   0  0  0  0  0  0  0  0  0  0  0  0
   -0.0661    0.4659    0.2948 C   0  0  1  0  0  0  0  0  0  0  0  0
   -0.1450    1.4758   -0.1185 H   0  0  0  0  0  0  0  0  0  0  0  0
    0.3186    0.6394    1.7804 C   0  0  0  0  0  0  0  0  0  0  0  0
    0.2950   -0.3157    2.3131 H   0  0  0  0  0  0  0  0  0  0  0  0
    1.3428    1.0231    1.8449 H   0  0  0  0  0  0  0  0  0  0  0  0
   -0.6230    1.6433    2.4686 C   0  0  0  0  0  0  0  0  0  0  0  0
   -0.5482    2.6171    1.9760 H   0  0  0  0  0  0  0  0  0  0  0  0
   -1.6588    1.3025    2.3819 H   0  0  0  0  0  0  0  0  0  0  0  0
   -0.2778    1.8140    3.9476 C   0  0  0  0  0  0  0  0  0  0  0  0
    0.8464    2.2963    4.2324 O   0  5  0  0  0  0  0  0  0  0  0  0
   -1.1510    1.4836    4.7874 O   0  0  0  0  0  0  0  0  0  0  0  0
    1.0229   -0.2062   -0.5683 C   0  0  0  0  0  0  0  0  0  0  0  0
    1.0774    0.0292   -1.7717 O   0  0  0  0  0  0  0  0  0  0  0  0
    1.9714   -1.0291    0.0078 N   0  0  0  0  0  0  0  0  0  0  0  0
    1.7332   -1.3637    0.9398 H   0  0  0  0  0  0  0  0  0  0  0  0
    2.9457   -1.7803   -0.7681 C   0  0  0  0  0  0  0  0  0  0  0  0
    3.5651   -1.1026   -1.3643 H   0  0  0  0  0  0  0  0  0  0  0  0
    3.6007   -2.3463   -0.0993 H   0  0  0  0  0  0  0  0  0  0  0  0
    2.4404   -2.4825   -1.4388 H   0  0  0  0  0  0  0  0  0  0  0  0
  1  2  1  0  0  0  0
  2  3  1  0  0  0  0
  2  4  1  0  0  0  0
  2  5  1  0  0  0  0
  5  6  2  0  0  0  0
  5  7  1  0  0  0  0
  7  8  1  0  0  0  0
  7  9  1  0  0  0  0
  9 10  1  0  0  0  0
  9 11  1  0  0  0  0
  9 20  1  0  0  0  0
 11 12  1  0  0  0  0
 11 13  1  0  0  0  0
 11 14  1  0  0  0  0
 14 15  1  0  0  0  0
 14 16  1  0  0  0  0
 14 17  1  0  0  0  0
 17 18  1  0  0  0  0
 17 19  2  0  0  0  0
 20 21  2  0  0  0  0
 20 22  1  0  0  0  0
 22 23  1  0  0  0  0
 22 24  1  0  0  0  0
 24 25  1  0  0  0  0
 24 26  1  0  0  0  0
 24 27  1  0  0  0  0
M  CHG  1  18  -1
M  END
$$$$

  -OEChem-01062216073D

 27 26  0     1  0  0  0  0  0999 V2000
   -3.2583   -2.7914    1.2359 H   0  0  0  0  0  0  0  0  0  0  0  0
   -3.1639   -1.7696    0.8576 C   0  0  0  0  0  0  0  0  0  0  0  0
   -3.6335   -1.0866    1.5705 H   0  0  0  0  0  0  0  0  0  0  0  0
   -3.6828   -1.6987   -0.1013 H   0  0  0  0  0  0  0  0  0  0  0  0
   -1.7002   -1.4056    0.6862 C   0  0  0  0  0  0  0  0  0  0  0  0
   -0.8336   -2.2142    0.9902 O   0  0  0  0  0  0  0  0  0  0  0  0
   -1.3696   -0.1874    0.1231 N   0  0  0  0  0  0  0  0  0  0  0  0
   -2.1560    0.4351   -0.0306 H   0  0  0  0  0  0  0  0  0  0  0  0
   -0.0543    0.4598    0.2944 C   0  0  1  0  0  0  0  0  0  0  0  0
   -0.1267    1.4701   -0.1197 H   0  0  0  0  0  0  0  0  0  0  0  0
    0.3244    0.6293    1.7814 C   0  0  0  0  0  0  0  0  0  0  0  0
    0.2953   -0.3262    2.3132 H   0  0  0  0  0  0  0  0  0  0  0  0
    1.3501    1.0079    1.8510 H   0  0  0  0  0  0  0  0  0  0  0  0
   -0.6197    1.6358    2.4624 C   0  0  0  0  0  0  0  0  0  0  0  0
   -0.5403    2.6091    1.9696 H   0  0  0  0  0  0  0  0  0  0  0  0
   -1.6560    1.2979    2.3698 H   0  0  0  0  0  0  0  0  0  0  0  0
   -0.2844    1.8058    3.9429 C   0  0  0  0  0  0  0  0  0  0  0  0
    0.7903    2.3860    4.2342 O   0  5  0  0  0  0  0  0  0  0  0  0
   -1.1169    1.3737    4.7780 O   0  0  0  0  0  0  0  0  0  0  0  0
    1.0407   -0.2200   -0.5530 C   0  0  0  0  0  0  0  0  0  0  0  0
    1.2708    0.1774   -1.6910 O   0  0  0  0  0  0  0  0  0  0  0  0
    1.7765   -1.2643   -0.0294 N   0  0  0  0  0  0  0  0  0  0  0  0
    1.3346   -1.7158    0.7732 H   0  0  0  0  0  0  0  0  0  0  0  0
    2.7183   -2.0402   -0.8201 C   0  0  0  0  0  0  0  0  0  0  0  0
    3.4996   -1.3922   -1.2300 H   0  0  0  0  0  0  0  0  0  0  0  0
    3.1946   -2.8000   -0.1936 H   0  0  0  0  0  0  0  0  0  0  0  0
    2.2026   -2.5408   -1.6457 H   0  0  0  0  0  0  0  0  0  0  0  0
  1  2  1  0  0  0  0
  2  3  1  0  0  0  0
  2  4  1  0  0  0  0
  2  5  1  0  0  0  0
  5  6  2  0  0  0  0
  5  7  1  0  0  0  0
  7  8  1  0  0  0  0
  7  9  1  0  0  0  0
  9 10  1  0  0  0  0
  9 11  1  0  0  0  0
  9 20  1  0  0  0  0
 11 12  1  0  0  0  0
 11 13  1  0  0  0  0
 11 14  1  0  0  0  0
 14 15  1  0  0  0  0
 14 16  1  0  0  0  0
 14 17  1  0  0  0  0
 17 18  1  0  0  0  0
 17 19  2  0  0  0  0
 20 21  2  0  0  0  0
 20 22  1  0  0  0  0
 22 23  1  0  0  0  0
 22 24  1  0  0  0  0
 24 25  1  0  0  0  0
 24 26  1  0  0  0  0
 24 27  1  0  0  0  0
M  CHG  1  18  -1
M  END
$$$$

  -OEChem-01062216073D

 27 26  0     1  0  0  0  0  0999 V2000
   -3.3276   -2.7511    1.2747 H   0  0  0  0  0  0  0  0  0  0  0  0
   -3.2086   -1.7409    0.8732 C   0  0  0  0  0  0  0  0  0  0  0  0
   -3.6685   -1.0319    1.5667 H   0  0  0  0  0  0  0  0  0  0  0  0
   -3.7197   -1.6818   -0.0907 H   0  0  0  0  0  0  0  0  0  0  0  0
   -1.7360   -1.4126    0.7048 C   0  0  0  0  0  0  0  0  0  0  0  0
   -0.8933   -2.2439    1.0135 O   0  0  0  0  0  0  0  0  0  0  0  0
   -1.3770   -0.2056    0.1336 N   0  0  0  0  0  0  0  0  0  0  0  0
   -2.1542    0.4275   -0.0248 H   0  0  0  0  0  0  0  0  0  0  0  0
   -0.0543    0.4349    0.2935 C   0  0  1  0  0  0  0  0  0  0  0  0
   -0.1256    1.4440   -0.1240 H   0  0  0  0  0  0  0  0  0  0  0  0
    0.3236    0.6070    1.7793 C   0  0  0  0  0  0  0  0  0  0  0  0
    0.2868   -0.3473    2.3129 H   0  0  0  0  0  0  0  0  0  0  0  0
    1.3522    0.9776    1.8492 H   0  0  0  0  0  0  0  0  0  0  0  0
   -0.6147    1.6230    2.4559 C   0  0  0  0  0  0  0  0  0  0  0  0
   -0.5266    2.5939    1.9597 H   0  0  0  0  0  0  0  0  0  0  0  0
   -1.6534    1.2930    2.3625 H   0  0  0  0  0  0  0  0  0  0  0  0
   -0.2831    1.7986    3.9370 C   0  0  0  0  0  0  0  0  0  0  0  0
    0.8011    2.3597    4.2310 O   0  5  0  0  0  0  0  0  0  0  0  0
   -1.1325    1.3954    4.7700 O   0  0  0  0  0  0  0  0  0  0  0  0
    1.0543   -0.2448   -0.5380 C   0  0  0  0  0  0  0  0  0  0  0  0
    1.4483    0.2774   -1.5760 O   0  0  0  0  0  0  0  0  0  0  0  0
    1.5843   -1.4564   -0.1425 N   0  0  0  0  0  0  0  0  0  0  0  0
    1.0273   -1.9459    0.5635 H   0  0  0  0  0  0  0  0  0  0  0  0
    2.5051   -2.2303   -0.9597 C   0  0  0  0  0  0  0  0  0  0  0  0
    3.3991   -1.6422   -1.1908 H   0  0  0  0  0  0  0  0  0  0  0  0
    2.8155   -3.1311   -0.4222 H   0  0  0  0  0  0  0  0  0  0  0  0
    2.0249   -2.5302   -1.8964 H   0  0  0  0  0  0  0  0  0  0  0  0
  1  2  1  0  0  0  0
  2  3  1  0  0  0  0
  2  4  1  0  0  0  0
  2  5  1  0  0  0  0
  5  6  2  0  0  0  0
  5  7  1  0  0  0  0
  7  8  1  0  0  0  0
  7  9  1  0  0  0  0
  9 10  1  0  0  0  0
  9 11  1  0  0  0  0
  9 20  1  0  0  0  0
 11 12  1  0  0  0  0
 11 13  1  0  0  0  0
 11 14  1  0  0  0  0
 14 15  1  0  0  0  0
 14 16  1  0  0  0  0
 14 17  1  0  0  0  0
 17 18  1  0  0  0  0
 17 19  2  0  0  0  0
 20 21  2  0  0  0  0
 20 22  1  0  0  0  0
 22 23  1  0  0  0  0
 22 24  1  0  0  0  0
 24 25  1  0  0  0  0
 24 26  1  0  0  0  0
 24 27  1  0  0  0  0
M  CHG  1  18  -1
M  END
$$$$

  -OEChem-01062216073D

 27 26  0     1  0  0  0  0  0999 V2000
   -3.4201   -2.7089    1.2977 H   0  0  0  0  0  0  0  0  0  0  0  0
   -3.2719   -1.7004    0.9016 C   0  0  0  0  0  0  0  0  0  0  0  0
   -3.7079   -0.9818    1.6008 H   0  0  0  0  0  0  0  0  0  0  0  0
   -3.7839   -1.6205   -0.0604 H   0  0  0  0  0  0  0  0  0  0  0  0
   -1.7910   -1.4150    0.7298 C   0  0  0  0  0  0  0  0  0  0  0  0
   -0.9752   -2.2699    1.0436 O   0  0  0  0  0  0  0  0  0  0  0  0
   -1.4034   -0.2232    0.1444 N   0  0  0  0  0  0  0  0  0  0  0  0
   -2.1710    0.4191   -0.0246 H   0  0  0  0  0  0  0  0  0  0  0  0
   -0.0709    0.4080    0.2804 C   0  0  1  0  0  0  0  0  0  0  0  0
   -0.1409    1.4153   -0.1423 H   0  0  0  0  0  0  0  0  0  0  0  0
    0.3175    0.5801    1.7626 C   0  0  0  0  0  0  0  0  0  0  0  0
    0.2780   -0.3742    2.2962 H   0  0  0  0  0  0  0  0  0  0  0  0
    1.3493    0.9431    1.8249 H   0  0  0  0  0  0  0  0  0  0  0  0
   -0.6076    1.6053    2.4441 C   0  0  0  0  0  0  0  0  0  0  0  0
   -0.5140    2.5742    1.9451 H   0  0  0  0  0  0  0  0  0  0  0  0
   -1.6498    1.2847    2.3585 H   0  0  0  0  0  0  0  0  0  0  0  0
   -0.2653    1.7813    3.9226 C   0  0  0  0  0  0  0  0  0  0  0  0
    0.8138    2.3556    4.2091 O   0  5  0  0  0  0  0  0  0  0  0  0
   -1.1028    1.3658    4.7615 O   0  0  0  0  0  0  0  0  0  0  0  0
    1.0444   -0.2762   -0.5411 C   0  0  0  0  0  0  0  0  0  0  0  0
    1.5981    0.3383   -1.4467 O   0  0  0  0  0  0  0  0  0  0  0  0
    1.3777   -1.5980   -0.3286 N   0  0  0  0  0  0  0  0  0  0  0  0
    0.7717   -2.1011    0.3263 H   0  0  0  0  0  0  0  0  0  0  0  0
    2.3112   -2.3473   -1.1538 C   0  0  0  0  0  0  0  0  0  0  0  0
    3.2979   -1.8733   -1.1423 H   0  0  0  0  0  0  0  0  0  0  0  0
    2.4132   -3.3667   -0.7704 H   0  0  0  0  0  0  0  0  0  0  0  0
    1.9529   -2.3976   -2.1868 H   0  0  0  0  0  0  0  0  0  0  0  0
  1  2  1  0  0  0  0
  2  3  1  0  0  0  0
  2  4  1  0  0  0  0
  2  5  1  0  0  0  0
  5  6  2  0  0  0  0
  5  7  1  0  0  0  0
  7  8  1  0  0  0  0
  7  9  1  0  0  0  0
  9 10  1  0  0  0  0
  9 11  1  0  0  0  0
  9 20  1  0  0  0  0
 11 12  1  0  0  0  0
 11 13  1  0  0  0  0
 11 14  1  0  0  0  0
 14 15  1  0  0  0  0
 14 16  1  0  0  0  0
 14 17  1  0  0  0  0
 17 18  1  0  0  0  0
 17 19  2  0  0  0  0
 20 21  2  0  0  0  0
 20 22  1  0  0  0  0
 22 23  1  0  0  0  0
 22 24  1  0  0  0  0
 24 25  1  0  0  0  0
 24 26  1  0  0  0  0
 24 27  1  0  0  0  0
M  CHG  1  18  -1
M  END
$$$$

  -OEChem-01062216073D

 27 26  0     1  0  0  0  0  0999 V2000
   -3.4950   -2.6504    1.3955 H   0  0  0  0  0  0  0  0  0  0  0  0
   -3.3369   -1.6546    0.9717 C   0  0  0  0  0  0  0  0  0  0  0  0
   -3.7244   -0.9103    1.6726 H   0  0  0  0  0  0  0  0  0  0  0  0
   -3.8866   -1.5806    0.0303 H   0  0  0  0  0  0  0  0  0  0  0  0
   -1.8573   -1.4126    0.7331 C   0  0  0  0  0  0  0  0  0  0  0  0
   -1.0555   -2.2955    1.0008 O   0  0  0  0  0  0  0  0  0  0  0  0
   -1.4614   -0.2274    0.1393 N   0  0  0  0  0  0  0  0  0  0  0  0
   -2.2213    0.4333    0.0110 H   0  0  0  0  0  0  0  0  0  0  0  0
   -0.1153    0.3841    0.2422 C   0  0  1  0  0  0  0  0  0  0  0  0
   -0.1836    1.3938   -0.1741 H   0  0  0  0  0  0  0  0  0  0  0  0
    0.3008    0.5420    1.7185 C   0  0  0  0  0  0  0  0  0  0  0  0
    0.2568   -0.4151    2.2469 H   0  0  0  0  0  0  0  0  0  0  0  0
    1.3388    0.8898    1.7651 H   0  0  0  0  0  0  0  0  0  0  0  0
   -0.5977    1.5779    2.4209 C   0  0  0  0  0  0  0  0  0  0  0  0
   -0.4961    2.5474    1.9251 H   0  0  0  0  0  0  0  0  0  0  0  0
   -1.6462    1.2750    2.3494 H   0  0  0  0  0  0  0  0  0  0  0  0
   -0.2316    1.7437    3.8951 C   0  0  0  0  0  0  0  0  0  0  0  0
    0.8784    2.2617    4.1700 O   0  5  0  0  0  0  0  0  0  0  0  0
   -1.0846    1.3811    4.7431 O   0  0  0  0  0  0  0  0  0  0  0  0
    0.9876   -0.3004   -0.5985 C   0  0  0  0  0  0  0  0  0  0  0  0
    1.7113    0.3797   -1.3173 O   0  0  0  0  0  0  0  0  0  0  0  0
    1.1285   -1.6725   -0.6291 N   0  0  0  0  0  0  0  0  0  0  0  0
    0.5170   -2.1943    0.0051 H   0  0  0  0  0  0  0  0  0  0  0  0
    2.1688   -2.3757   -1.3617 C   0  0  0  0  0  0  0  0  0  0  0  0
    3.1578   -2.0882   -0.9909 H   0  0  0  0  0  0  0  0  0  0  0  0
    2.0501   -3.4557   -1.2342 H   0  0  0  0  0  0  0  0  0  0  0  0
    2.1084   -2.1443   -2.4298 H   0  0  0  0  0  0  0  0  0  0  0  0
  1  2  1  0  0  0  0
  2  3  1  0  0  0  0
  2  4  1  0  0  0  0
  2  5  1  0  0  0  0
  5  6  2  0  0  0  0
  5  7  1  0  0  0  0
  7  8  1  0  0  0  0
  7  9  1  0  0  0  0
  9 10  1  0  0  0  0
  9 11  1  0  0  0  0
  9 20  1  0  0  0  0
 11 12  1  0  0  0  0
 11 13  1  0  0  0  0
 11 14  1  0  0  0  0
 14 15  1  0  0  0  0
 14 16  1  0  0  0  0
 14 17  1  0  0  0  0
 17 18  1  0  0  0  0
 17 19  2  0  0  0  0
 20 21  2  0  0  0  0
 20 22  1  0  0  0  0
 22 23  1  0  0  0  0
 22 24  1  0  0  0  0
 24 25  1  0  0  0  0
 24 26  1  0  0  0  0
 24 27  1  0  0  0  0
M  CHG  1  18  -1
M  END
$$$$

  -OEChem-01062216073D

 27 26  0     1  0  0  0  0  0999 V2000
   -3.5101   -2.6270    1.4242 H   0  0  0  0  0  0  0  0  0  0  0  0
   -3.3467   -1.6130    1.0484 C   0  0  0  0  0  0  0  0  0  0  0  0
   -3.6546   -0.9006    1.8186 H   0  0  0  0  0  0  0  0  0  0  0  0
   -3.9606   -1.4636    0.1571 H   0  0  0  0  0  0  0  0  0  0  0  0
   -1.8801   -1.4052    0.7160 C   0  0  0  0  0  0  0  0  0  0  0  0
   -1.0870   -2.3165    0.9011 O   0  0  0  0  0  0  0  0  0  0  0  0
   -1.4872   -0.2206    0.1196 N   0  0  0  0  0  0  0  0  0  0  0  0
   -2.2403    0.4567    0.0512 H   0  0  0  0  0  0  0  0  0  0  0  0
   -0.1332    0.3770    0.2139 C   0  0  1  0  0  0  0  0  0  0  0  0
   -0.1941    1.3890   -0.1983 H   0  0  0  0  0  0  0  0  0  0  0  0
    0.2830    0.5223    1.6918 C   0  0  0  0  0  0  0  0  0  0  0  0
    0.2282   -0.4380    2.2139 H   0  0  0  0  0  0  0  0  0  0  0  0
    1.3242    0.8597    1.7437 H   0  0  0  0  0  0  0  0  0  0  0  0
   -0.6061    1.5641    2.3976 C   0  0  0  0  0  0  0  0  0  0  0  0
   -0.4958    2.5352    1.9061 H   0  0  0  0  0  0  0  0  0  0  0  0
   -1.6577    1.2728    2.3258 H   0  0  0  0  0  0  0  0  0  0  0  0
   -0.2394    1.7167    3.8724 C   0  0  0  0  0  0  0  0  0  0  0  0
    0.8007    2.3597    4.1557 O   0  5  0  0  0  0  0  0  0  0  0  0
   -1.0250    1.2135    4.7137 O   0  0  0  0  0  0  0  0  0  0  0  0
    0.9668   -0.3062   -0.6342 C   0  0  0  0  0  0  0  0  0  0  0  0
    1.8420    0.3788   -1.1512 O   0  0  0  0  0  0  0  0  0  0  0  0
    0.9306   -1.6554   -0.9244 N   0  0  0  0  0  0  0  0  0  0  0  0
    0.2741   -2.1964   -0.3554 H   0  0  0  0  0  0  0  0  0  0  0  0
    1.9930   -2.3583   -1.6263 C   0  0  0  0  0  0  0  0  0  0  0  0
    2.9239   -2.3142   -1.0521 H   0  0  0  0  0  0  0  0  0  0  0  0
    1.7183   -3.4080   -1.7646 H   0  0  0  0  0  0  0  0  0  0  0  0
    2.1619   -1.9134   -2.6121 H   0  0  0  0  0  0  0  0  0  0  0  0
  1  2  1  0  0  0  0
  2  3  1  0  0  0  0
  2  4  1  0  0  0  0
  2  5  1  0  0  0  0
  5  6  2  0  0  0  0
  5  7  1  0  0  0  0
  7  8  1  0  0  0  0
  7  9  1  0  0  0  0
  9 10  1  0  0  0  0
  9 11  1  0  0  0  0
  9 20  1  0  0  0  0
 11 12  1  0  0  0  0
 11 13  1  0  0  0  0
 11 14  1  0  0  0  0
 14 15  1  0  0  0  0
 14 16  1  0  0  0  0
 14 17  1  0  0  0  0
 17 18  1  0  0  0  0
 17 19  2  0  0  0  0
 20 21  2  0  0  0  0
 20 22  1  0  0  0  0
 22 23  1  0  0  0  0
 22 24  1  0  0  0  0
 24 25  1  0  0  0  0
 24 26  1  0  0  0  0
 24 27  1  0  0  0  0
M  CHG  1  18  -1
M  END
$$$$

  -OEChem-01062216073D

 27 26  0     1  0  0  0  0  0999 V2000
   -3.4777   -2.5817    1.4993 H   0  0  0  0  0  0  0  0  0  0  0  0
   -3.3238   -1.5746    1.1018 C   0  0  0  0  0  0  0  0  0  0  0  0
   -3.5812   -0.8497    1.8791 H   0  0  0  0  0  0  0  0  0  0  0  0
   -3.9833   -1.4286    0.2430 H   0  0  0  0  0  0  0  0  0  0  0  0
   -1.8758   -1.3886    0.6869 C   0  0  0  0  0  0  0  0  0  0  0  0
   -1.0955   -2.3253    0.7706 O   0  0  0  0  0  0  0  0  0  0  0  0
   -1.4895   -0.2013    0.0937 N   0  0  0  0  0  0  0  0  0  0  0  0
   -2.2358    0.4870    0.0791 H   0  0  0  0  0  0  0  0  0  0  0  0
   -0.1314    0.3858    0.1993 C   0  0  1  0  0  0  0  0  0  0  0  0
   -0.1787    1.4015   -0.2046 H   0  0  0  0  0  0  0  0  0  0  0  0
    0.2705    0.5091    1.6841 C   0  0  0  0  0  0  0  0  0  0  0  0
    0.2035   -0.4577    2.1930 H   0  0  0  0  0  0  0  0  0  0  0  0
    1.3131    0.8390    1.7527 H   0  0  0  0  0  0  0  0  0  0  0  0
   -0.6191    1.5482    2.3932 C   0  0  0  0  0  0  0  0  0  0  0  0
   -0.4991    2.5244    1.9141 H   0  0  0  0  0  0  0  0  0  0  0  0
   -1.6723    1.2658    2.3105 H   0  0  0  0  0  0  0  0  0  0  0  0
   -0.2650    1.6772    3.8730 C   0  0  0  0  0  0  0  0  0  0  0  0
    0.6818    2.4386    4.1877 O   0  5  0  0  0  0  0  0  0  0  0  0
   -0.9703    1.0316    4.6878 O   0  0  0  0  0  0  0  0  0  0  0  0
    0.9666   -0.3022   -0.6479 C   0  0  0  0  0  0  0  0  0  0  0  0
    1.9645    0.3306   -0.9731 O   0  0  0  0  0  0  0  0  0  0  0  0
    0.7750   -1.5546   -1.1979 N   0  0  0  0  0  0  0  0  0  0  0  0
    0.0564   -2.1048   -0.7213 H   0  0  0  0  0  0  0  0  0  0  0  0
    1.8130   -2.2655   -1.9288 C   0  0  0  0  0  0  0  0  0  0  0  0
    2.6937   -2.4134   -1.2956 H   0  0  0  0  0  0  0  0  0  0  0  0
    1.4432   -3.2452   -2.2453 H   0  0  0  0  0  0  0  0  0  0  0  0
    2.1076   -1.7032   -2.8207 H   0  0  0  0  0  0  0  0  0  0  0  0
  1  2  1  0  0  0  0
  2  3  1  0  0  0  0
  2  4  1  0  0  0  0
  2  5  1  0  0  0  0
  5  6  2  0  0  0  0
  5  7  1  0  0  0  0
  7  8  1  0  0  0  0
  7  9  1  0  0  0  0
  9 10  1  0  0  0  0
  9 11  1  0  0  0  0
  9 20  1  0  0  0  0
 11 12  1  0  0  0  0
 11 13  1  0  0  0  0
 11 14  1  0  0  0  0
 14 15  1  0  0  0  0
 14 16  1  0  0  0  0
 14 17  1  0  0  0  0
 17 18  1  0  0  0  0
 17 19  2  0  0  0  0
 20 21  2  0  0  0  0
 20 22  1  0  0  0  0
 22 23  1  0  0  0  0
 22 24  1  0  0  0  0
 24 25  1  0  0  0  0
 24 26  1  0  0  0  0
 24 27  1  0  0  0  0
M  CHG  1  18  -1
M  END
$$$$

  -OEChem-01062216073D

 27 26  0     1  0  0  0  0  0999 V2000
   -3.4279   -2.5650    1.5179 H   0  0  0  0  0  0  0  0  0  0  0  0
   -3.2734   -1.5420    1.1635 C   0  0  0  0  0  0  0  0  0  0  0  0
   -3.4444   -0.8545    1.9966 H   0  0  0  0  0  0  0  0  0  0  0  0
   -3.9940   -1.3295    0.3702 H   0  0  0  0  0  0  0  0  0  0  0  0
   -1.8568   -1.3738    0.6446 C   0  0  0  0  0  0  0  0  0  0  0  0
   -1.1013   -2.3330    0.6018 O   0  0  0  0  0  0  0  0  0  0  0  0
   -1.4792   -0.1805    0.0602 N   0  0  0  0  0  0  0  0  0  0  0  0
   -2.2156    0.5171    0.1092 H   0  0  0  0  0  0  0  0  0  0  0  0
   -0.1169    0.3916    0.1913 C   0  0  1  0  0  0  0  0  0  0  0  0
   -0.1437    1.4105   -0.2059 H   0  0  0  0  0  0  0  0  0  0  0  0
    0.2590    0.4969    1.6849 C   0  0  0  0  0  0  0  0  0  0  0  0
    0.1750   -0.4743    2.1833 H   0  0  0  0  0  0  0  0  0  0  0  0
    1.3025    0.8176    1.7769 H   0  0  0  0  0  0  0  0  0  0  0  0
   -0.6346    1.5393    2.3847 C   0  0  0  0  0  0  0  0  0  0  0  0
   -0.4975    2.5167    1.9123 H   0  0  0  0  0  0  0  0  0  0  0  0
   -1.6888    1.2681    2.2825 H   0  0  0  0  0  0  0  0  0  0  0  0
   -0.3113    1.6549    3.8724 C   0  0  0  0  0  0  0  0  0  0  0  0
    0.4285    2.5982    4.2443 O   0  5  0  0  0  0  0  0  0  0  0  0
   -0.8429    0.8123    4.6377 O   0  0  0  0  0  0  0  0  0  0  0  0
    0.9764   -0.3070   -0.6537 C   0  0  0  0  0  0  0  0  0  0  0  0
    2.0780    0.2152   -0.7800 O   0  0  0  0  0  0  0  0  0  0  0  0
    0.6636   -1.3871   -1.4567 N   0  0  0  0  0  0  0  0  0  0  0  0
   -0.1344   -1.9197   -1.1050 H   0  0  0  0  0  0  0  0  0  0  0  0
    1.6670   -2.1025   -2.2311 C   0  0  0  0  0  0  0  0  0  0  0  0
    2.4459   -2.5010   -1.5729 H   0  0  0  0  0  0  0  0  0  0  0  0
    1.2031   -2.9364   -2.7658 H   0  0  0  0  0  0  0  0  0  0  0  0
    2.1304   -1.4368   -2.9663 H   0  0  0  0  0  0  0  0  0  0  0  0
  1  2  1  0  0  0  0
  2  3  1  0  0  0  0
  2  4  1  0  0  0  0
  2  5  1  0  0  0  0
  5  6  2  0  0  0  0
  5  7  1  0  0  0  0
  7  8  1  0  0  0  0
  7  9  1  0  0  0  0
  9 10  1  0  0  0  0
  9 11  1  0  0  0  0
  9 20  1  0  0  0  0
 11 12  1  0  0  0  0
 11 13  1  0  0  0  0
 11 14  1  0  0  0  0
 14 15  1  0  0  0  0
 14 16  1  0  0  0  0
 14 17  1  0  0  0  0
 17 18  1  0  0  0  0
 17 19  2  0  0  0  0
 20 21  2  0  0  0  0
 20 22  1  0  0  0  0
 22 23  1  0  0  0  0
 22 24  1  0  0  0  0
 24 25  1  0  0  0  0
 24 26  1  0  0  0  0
 24 27  1  0  0  0  0
M  CHG  1  18  -1
M  END
$$$$

  -OEChem-01062216073D

 27 26  0     1  0  0  0  0  0999 V2000
   -3.3446   -2.5712    1.5627 H   0  0  0  0  0  0  0  0  0  0  0  0
   -3.2218   -1.5546    1.1787 C   0  0  0  0  0  0  0  0  0  0  0  0
   -3.3861   -0.8506    1.9992 H   0  0  0  0  0  0  0  0  0  0  0  0
   -3.9666   -1.3773    0.3993 H   0  0  0  0  0  0  0  0  0  0  0  0
   -1.8232   -1.3709    0.6185 C   0  0  0  0  0  0  0  0  0  0  0  0
   -1.0706   -2.3268    0.5152 O   0  0  0  0  0  0  0  0  0  0  0  0
   -1.4614   -0.1668    0.0473 N   0  0  0  0  0  0  0  0  0  0  0  0
   -2.1963    0.5288    0.1356 H   0  0  0  0  0  0  0  0  0  0  0  0
   -0.0994    0.4001    0.1973 C   0  0  1  0  0  0  0  0  0  0  0  0
   -0.1164    1.4216   -0.1928 H   0  0  0  0  0  0  0  0  0  0  0  0
    0.2597    0.4963    1.6967 C   0  0  0  0  0  0  0  0  0  0  0  0
    0.1665   -0.4773    2.1890 H   0  0  0  0  0  0  0  0  0  0  0  0
    1.3023    0.8138    1.8058 H   0  0  0  0  0  0  0  0  0  0  0  0
   -0.6411    1.5391    2.3879 C   0  0  0  0  0  0  0  0  0  0  0  0
   -0.4938    2.5175    1.9209 H   0  0  0  0  0  0  0  0  0  0  0  0
   -1.6947    1.2725    2.2699 H   0  0  0  0  0  0  0  0  0  0  0  0
   -0.3396    1.6501    3.8803 C   0  0  0  0  0  0  0  0  0  0  0  0
    0.3909    2.5950    4.2665 O   0  5  0  0  0  0  0  0  0  0  0  0
   -0.8864    0.8076    4.6349 O   0  0  0  0  0  0  0  0  0  0  0  0
    0.9810   -0.3039   -0.6594 C   0  0  0  0  0  0  0  0  0  0  0  0
    2.1540    0.0453   -0.5980 O   0  0  0  0  0  0  0  0  0  0  0  0
    0.5973   -1.1455   -1.6865 N   0  0  0  0  0  0  0  0  0  0  0  0
   -0.2996   -1.5939   -1.5074 H   0  0  0  0  0  0  0  0  0  0  0  0
    1.5624   -1.8689   -2.5012 C   0  0  0  0  0  0  0  0  0  0  0  0
    2.1685   -2.5325   -1.8761 H   0  0  0  0  0  0  0  0  0  0  0  0
    1.0415   -2.4736   -3.2493 H   0  0  0  0  0  0  0  0  0  0  0  0
    2.2248   -1.1711   -3.0236 H   0  0  0  0  0  0  0  0  0  0  0  0
  1  2  1  0  0  0  0
  2  3  1  0  0  0  0
  2  4  1  0  0  0  0
  2  5  1  0  0  0  0
  5  6  2  0  0  0  0
  5  7  1  0  0  0  0
  7  8  1  0  0  0  0
  7  9  1  0  0  0  0
  9 10  1  0  0  0  0
  9 11  1  0  0  0  0
  9 20  1  0  0  0  0
 11 12  1  0  0  0  0
 11 13  1  0  0  0  0
 11 14  1  0  0  0  0
 14 15  1  0  0  0  0
 14 16  1  0  0  0  0
 14 17  1  0  0  0  0
 17 18  1  0  0  0  0
 17 19  2  0  0  0  0
 20 21  2  0  0  0  0
 20 22  1  0  0  0  0
 22 23  1  0  0  0  0
 22 24  1  0  0  0  0
 24 25  1  0  0  0  0
 24 26  1  0  0  0  0
 24 27  1  0  0  0  0
M  CHG  1  18  -1
M  END
$$$$

  -OEChem-01062216073D

 27 26  0     1  0  0  0  0  0999 V2000
   -3.3052   -2.6134    1.5290 H   0  0  0  0  0  0  0  0  0  0  0  0
   -3.1893   -1.5892    1.1635 C   0  0  0  0  0  0  0  0  0  0  0  0
   -3.3617   -0.9008    1.9958 H   0  0  0  0  0  0  0  0  0  0  0  0
   -3.9333   -1.4039    0.3851 H   0  0  0  0  0  0  0  0  0  0  0  0
   -1.7903   -1.3850    0.6112 C   0  0  0  0  0  0  0  0  0  0  0  0
   -1.0211   -2.3282    0.5228 O   0  0  0  0  0  0  0  0  0  0  0  0
   -1.4421   -0.1696    0.0546 N   0  0  0  0  0  0  0  0  0  0  0  0
   -2.1810    0.5192    0.1621 H   0  0  0  0  0  0  0  0  0  0  0  0
   -0.0830    0.3990    0.2134 C   0  0  1  0  0  0  0  0  0  0  0  0
   -0.1000    1.4223   -0.1716 H   0  0  0  0  0  0  0  0  0  0  0  0
    0.2705    0.4966    1.7149 C   0  0  0  0  0  0  0  0  0  0  0  0
    0.1765   -0.4759    2.2085 H   0  0  0  0  0  0  0  0  0  0  0  0
    1.3115    0.8174    1.8303 H   0  0  0  0  0  0  0  0  0  0  0  0
   -0.6385    1.5394    2.3960 C   0  0  0  0  0  0  0  0  0  0  0  0
   -0.4914    2.5169    1.9270 H   0  0  0  0  0  0  0  0  0  0  0  0
   -1.6901    1.2677    2.2698 H   0  0  0  0  0  0  0  0  0  0  0  0
   -0.3506    1.6598    3.8902 C   0  0  0  0  0  0  0  0  0  0  0  0
    0.4597    2.5420    4.2651 O   0  5  0  0  0  0  0  0  0  0  0  0
   -0.9891    0.8958    4.6563 O   0  0  0  0  0  0  0  0  0  0  0  0
    0.9836   -0.3022   -0.6625 C   0  0  0  0  0  0  0  0  0  0  0  0
    2.1820   -0.1716   -0.4437 O   0  0  0  0  0  0  0  0  0  0  0  0
    0.5941   -0.8610   -1.8659 N   0  0  0  0  0  0  0  0  0  0  0  0
   -0.3833   -1.1368   -1.8850 H   0  0  0  0  0  0  0  0  0  0  0  0
    1.5221   -1.5753   -2.7308 C   0  0  0  0  0  0  0  0  0  0  0  0
    1.9616   -2.4255   -2.1992 H   0  0  0  0  0  0  0  0  0  0  0  0
    0.9983   -1.9503   -3.6150 H   0  0  0  0  0  0  0  0  0  0  0  0
    2.3265   -0.9112   -3.0633 H   0  0  0  0  0  0  0  0  0  0  0  0
  1  2  1  0  0  0  0
  2  3  1  0  0  0  0
  2  4  1  0  0  0  0
  2  5  1  0  0  0  0
  5  6  2  0  0  0  0
  5  7  1  0  0  0  0
  7  8  1  0  0  0  0
  7  9  1  0  0  0  0
  9 10  1  0  0  0  0
  9 11  1  0  0  0  0
  9 20  1  0  0  0  0
 11 12  1  0  0  0  0
 11 13  1  0  0  0  0
 11 14  1  0  0  0  0
 14 15  1  0  0  0  0
 14 16  1  0  0  0  0
 14 17  1  0  0  0  0
 17 18  1  0  0  0  0
 17 19  2  0  0  0  0
 20 21  2  0  0  0  0
 20 22  1  0  0  0  0
 22 23  1  0  0  0  0
 22 24  1  0  0  0  0
 24 25  1  0  0  0  0
 24 26  1  0  0  0  0
 24 27  1  0  0  0  0
M  CHG  1  18  -1
M  END
$$$$

  -OEChem-01062216073D

 27 26  0     1  0  0  0  0  0999 V2000
   -3.3132   -2.6669    1.4436 H   0  0  0  0  0  0  0  0  0  0  0  0
   -3.1743   -1.6217    1.1536 C   0  0  0  0  0  0  0  0  0  0  0  0
   -3.3322   -0.9908    2.0329 H   0  0  0  0  0  0  0  0  0  0  0  0
   -3.9137   -1.3651    0.3915 H   0  0  0  0  0  0  0  0  0  0  0  0
   -1.7705   -1.4079    0.6173 C   0  0  0  0  0  0  0  0  0  0  0  0
   -0.9877   -2.3418    0.5616 O   0  0  0  0  0  0  0  0  0  0  0  0
   -1.4299   -0.1890    0.0628 N   0  0  0  0  0  0  0  0  0  0  0  0
   -2.1738    0.4939    0.1720 H   0  0  0  0  0  0  0  0  0  0  0  0
   -0.0752    0.3860    0.2224 C   0  0  1  0  0  0  0  0  0  0  0  0
   -0.0967    1.4072   -0.1671 H   0  0  0  0  0  0  0  0  0  0  0  0
    0.2764    0.5010    1.7228 C   0  0  0  0  0  0  0  0  0  0  0  0
    0.1846   -0.4664    2.2269 H   0  0  0  0  0  0  0  0  0  0  0  0
    1.3158    0.8277    1.8358 H   0  0  0  0  0  0  0  0  0  0  0  0
   -0.6396    1.5484    2.3880 C   0  0  0  0  0  0  0  0  0  0  0  0
   -0.4943    2.5208    1.9078 H   0  0  0  0  0  0  0  0  0  0  0  0
   -1.6894    1.2705    2.2596 H   0  0  0  0  0  0  0  0  0  0  0  0
   -0.3596    1.6918    3.8818 C   0  0  0  0  0  0  0  0  0  0  0  0
    0.5135    2.5197    4.2398 O   0  5  0  0  0  0  0  0  0  0  0  0
   -1.0688    1.0099    4.6631 O   0  0  0  0  0  0  0  0  0  0  0  0
    0.9850   -0.3157   -0.6596 C   0  0  0  0  0  0  0  0  0  0  0  0
    2.1581   -0.4147   -0.3212 O   0  0  0  0  0  0  0  0  0  0  0  0
    0.6598   -0.5861   -1.9766 N   0  0  0  0  0  0  0  0  0  0  0  0
   -0.3364   -0.6586   -2.1550 H   0  0  0  0  0  0  0  0  0  0  0  0
    1.5756   -1.2553   -2.8893 C   0  0  0  0  0  0  0  0  0  0  0  0
    1.8396   -2.2465   -2.5063 H   0  0  0  0  0  0  0  0  0  0  0  0
    1.1073   -1.3737   -3.8708 H   0  0  0  0  0  0  0  0  0  0  0  0
    2.4913   -0.6682   -3.0137 H   0  0  0  0  0  0  0  0  0  0  0  0
  1  2  1  0  0  0  0
  2  3  1  0  0  0  0
  2  4  1  0  0  0  0
  2  5  1  0  0  0  0
  5  6  2  0  0  0  0
  5  7  1  0  0  0  0
  7  8  1  0  0  0  0
  7  9  1  0  0  0  0
  9 10  1  0  0  0  0
  9 11  1  0  0  0  0
  9 20  1  0  0  0  0
 11 12  1  0  0  0  0
 11 13  1  0  0  0  0
 11 14  1  0  0  0  0
 14 15  1  0  0  0  0
 14 16  1  0  0  0  0
 14 17  1  0  0  0  0
 17 18  1  0  0  0  0
 17 19  2  0  0  0  0
 20 21  2  0  0  0  0
 20 22  1  0  0  0  0
 22 23  1  0  0  0  0
 22 24  1  0  0  0  0
 24 25  1  0  0  0  0
 24 26  1  0  0  0  0
 24 27  1  0  0  0  0
M  CHG  1  18  -1
M  END
$$$$

  -OEChem-01062216073D

 27 26  0     1  0  0  0  0  0999 V2000
   -3.3130   -2.6858    1.4397 H   0  0  0  0  0  0  0  0  0  0  0  0
   -3.1813   -1.6440    1.1345 C   0  0  0  0  0  0  0  0  0  0  0  0
   -3.3653   -1.0006    1.9993 H   0  0  0  0  0  0  0  0  0  0  0  0
   -3.9073   -1.4094    0.3526 H   0  0  0  0  0  0  0  0  0  0  0  0
   -1.7694   -1.4221    0.6231 C   0  0  0  0  0  0  0  0  0  0  0  0
   -0.9803   -2.3512    0.5925 O   0  0  0  0  0  0  0  0  0  0  0  0
   -1.4319   -0.2017    0.0696 N   0  0  0  0  0  0  0  0  0  0  0  0
   -2.1811    0.4764    0.1696 H   0  0  0  0  0  0  0  0  0  0  0  0
   -0.0810    0.3806    0.2232 C   0  0  1  0  0  0  0  0  0  0  0  0
   -0.1108    1.4025   -0.1641 H   0  0  0  0  0  0  0  0  0  0  0  0
    0.2811    0.5030    1.7205 C   0  0  0  0  0  0  0  0  0  0  0  0
    0.1982   -0.4635    2.2279 H   0  0  0  0  0  0  0  0  0  0  0  0
    1.3200    0.8348    1.8235 H   0  0  0  0  0  0  0  0  0  0  0  0
   -0.6353    1.5474    2.3898 C   0  0  0  0  0  0  0  0  0  0  0  0
   -0.4994    2.5188    1.9053 H   0  0  0  0  0  0  0  0  0  0  0  0
   -1.6841    1.2620    2.2699 H   0  0  0  0  0  0  0  0  0  0  0  0
   -0.3452    1.6987    3.8809 C   0  0  0  0  0  0  0  0  0  0  0  0
    0.5506    2.5089    4.2231 O   0  5  0  0  0  0  0  0  0  0  0  0
   -1.0694    1.0484    4.6751 O   0  0  0  0  0  0  0  0  0  0  0  0
    0.9772   -0.3167   -0.6650 C   0  0  0  0  0  0  0  0  0  0  0  0
    2.0791   -0.6489   -0.2457 O   0  0  0  0  0  0  0  0  0  0  0  0
    0.7813   -0.3055   -2.0349 N   0  0  0  0  0  0  0  0  0  0  0  0
   -0.1776   -0.1625   -2.3320 H   0  0  0  0  0  0  0  0  0  0  0  0
    1.7116   -0.9265   -2.9675 C   0  0  0  0  0  0  0  0  0  0  0  0
    1.8127   -1.9950   -2.7512 H   0  0  0  0  0  0  0  0  0  0  0  0
    1.3492   -0.8113   -3.9931 H   0  0  0  0  0  0  0  0  0  0  0  0
    2.6976   -0.4559   -2.8960 H   0  0  0  0  0  0  0  0  0  0  0  0
  1  2  1  0  0  0  0
  2  3  1  0  0  0  0
  2  4  1  0  0  0  0
  2  5  1  0  0  0  0
  5  6  2  0  0  0  0
  5  7  1  0  0  0  0
  7  8  1  0  0  0  0
  7  9  1  0  0  0  0
  9 10  1  0  0  0  0
  9 11  1  0  0  0  0
  9 20  1  0  0  0  0
 11 12  1  0  0  0  0
 11 13  1  0  0  0  0
 11 14  1  0  0  0  0
 14 15  1  0  0  0  0
 14 16  1  0  0  0  0
 14 17  1  0  0  0  0
 17 18  1  0  0  0  0
 17 19  2  0  0  0  0
 20 21  2  0  0  0  0
 20 22  1  0  0  0  0
 22 23  1  0  0  0  0
 22 24  1  0  0  0  0
 24 25  1  0  0  0  0
 24 26  1  0  0  0  0
 24 27  1  0  0  0  0
M  CHG  1  18  -1
M  END
$$$$

  -OEChem-01062216073D

 27 26  0     1  0  0  0  0  0999 V2000
   -3.3320   -2.7069    1.4471 H   0  0  0  0  0  0  0  0  0  0  0  0
   -3.2025   -1.6698    1.1250 C   0  0  0  0  0  0  0  0  0  0  0  0
   -3.4107   -1.0118    1.9733 H   0  0  0  0  0  0  0  0  0  0  0  0
   -3.9135   -1.4573    0.3233 H   0  0  0  0  0  0  0  0  0  0  0  0
   -1.7820   -1.4450    0.6391 C   0  0  0  0  0  0  0  0  0  0  0  0
   -0.9885   -2.3700    0.6434 O   0  0  0  0  0  0  0  0  0  0  0  0
   -1.4453   -0.2254    0.0827 N   0  0  0  0  0  0  0  0  0  0  0  0
   -2.1987    0.4492    0.1710 H   0  0  0  0  0  0  0  0  0  0  0  0
   -0.0961    0.3634    0.2194 C   0  0  1  0  0  0  0  0  0  0  0  0
   -0.1404    1.3847   -0.1672 H   0  0  0  0  0  0  0  0  0  0  0  0
    0.2844    0.4996    1.7099 C   0  0  0  0  0  0  0  0  0  0  0  0
    0.2089   -0.4632    2.2258 H   0  0  0  0  0  0  0  0  0  0  0  0
    1.3244    0.8330    1.7957 H   0  0  0  0  0  0  0  0  0  0  0  0
   -0.6283    1.5463    2.3814 C   0  0  0  0  0  0  0  0  0  0  0  0
   -0.5026    2.5143    1.8875 H   0  0  0  0  0  0  0  0  0  0  0  0
   -1.6767    1.2541    2.2753 H   0  0  0  0  0  0  0  0  0  0  0  0
   -0.3223    1.7144    3.8678 C   0  0  0  0  0  0  0  0  0  0  0  0
    0.6446    2.4499    4.1849 O   0  5  0  0  0  0  0  0  0  0  0  0
   -1.1045    1.1631    4.6817 O   0  0  0  0  0  0  0  0  0  0  0  0
    0.9663   -0.3222   -0.6742 C   0  0  0  0  0  0  0  0  0  0  0  0
    1.9578   -0.8800   -0.2211 O   0  0  0  0  0  0  0  0  0  0  0  0
    0.9458   -0.0521   -2.0321 N   0  0  0  0  0  0  0  0  0  0  0  0
    0.0828    0.3332   -2.3981 H   0  0  0  0  0  0  0  0  0  0  0  0
    1.9189   -0.6010   -2.9663 C   0  0  0  0  0  0  0  0  0  0  0  0
    1.8964   -1.6954   -2.9428 H   0  0  0  0  0  0  0  0  0  0  0  0
    1.6908   -0.2704   -3.9838 H   0  0  0  0  0  0  0  0  0  0  0  0
    2.9282   -0.2618   -2.7116 H   0  0  0  0  0  0  0  0  0  0  0  0
  1  2  1  0  0  0  0
  2  3  1  0  0  0  0
  2  4  1  0  0  0  0
  2  5  1  0  0  0  0
  5  6  2  0  0  0  0
  5  7  1  0  0  0  0
  7  8  1  0  0  0  0
  7  9  1  0  0  0  0
  9 10  1  0  0  0  0
  9 11  1  0  0  0  0
  9 20  1  0  0  0  0
 11 12  1  0  0  0  0
 11 13  1  0  0  0  0
 11 14  1  0  0  0  0
 14 15  1  0  0  0  0
 14 16  1  0  0  0  0
 14 17  1  0  0  0  0
 17 18  1  0  0  0  0
 17 19  2  0  0  0  0
 20 21  2  0  0  0  0
 20 22  1  0  0  0  0
 22 23  1  0  0  0  0
 22 24  1  0  0  0  0
 24 25  1  0  0  0  0
 24 26  1  0  0  0  0
 24 27  1  0  0  0  0
M  CHG  1  18  -1
M  END
$$$$

  -OEChem-01062216073D

 27 26  0     1  0  0  0  0  0999 V2000
   -3.3515   -2.6996    1.5132 H   0  0  0  0  0  0  0  0  0  0  0  0
   -3.2339   -1.6857    1.1206 C   0  0  0  0  0  0  0  0  0  0  0  0
   -3.4763   -0.9741    1.9148 H   0  0  0  0  0  0  0  0  0  0  0  0
   -3.9277   -1.5454    0.2885 H   0  0  0  0  0  0  0  0  0  0  0  0
   -1.8058   -1.4660    0.6543 C   0  0  0  0  0  0  0  0  0  0  0  0
   -1.0122   -2.3889    0.7009 O   0  0  0  0  0  0  0  0  0  0  0  0
   -1.4674   -0.2501    0.0899 N   0  0  0  0  0  0  0  0  0  0  0  0
   -2.2256    0.4211    0.1556 H   0  0  0  0  0  0  0  0  0  0  0  0
   -0.1201    0.3479    0.2038 C   0  0  1  0  0  0  0  0  0  0  0  0
   -0.1851    1.3685   -0.1815 H   0  0  0  0  0  0  0  0  0  0  0  0
    0.2854    0.4947    1.6856 C   0  0  0  0  0  0  0  0  0  0  0  0
    0.2236   -0.4661    2.2071 H   0  0  0  0  0  0  0  0  0  0  0  0
    1.3256    0.8325    1.7495 H   0  0  0  0  0  0  0  0  0  0  0  0
   -0.6209    1.5392    2.3693 C   0  0  0  0  0  0  0  0  0  0  0  0
   -0.5090    2.5057    1.8694 H   0  0  0  0  0  0  0  0  0  0  0  0
   -1.6693    1.2405    2.2823 H   0  0  0  0  0  0  0  0  0  0  0  0
   -0.2887    1.7168    3.8490 C   0  0  0  0  0  0  0  0  0  0  0  0
    0.7208    2.4044    4.1396 O   0  5  0  0  0  0  0  0  0  0  0  0
   -1.0911    1.2285    4.6831 O   0  0  0  0  0  0  0  0  0  0  0  0
    0.9513   -0.3231   -0.6921 C   0  0  0  0  0  0  0  0  0  0  0  0
    1.8018   -1.0882   -0.2567 O   0  0  0  0  0  0  0  0  0  0  0  0
    1.1350    0.1654   -1.9756 N   0  0  0  0  0  0  0  0  0  0  0  0
    0.4240    0.7902   -2.3370 H   0  0  0  0  0  0  0  0  0  0  0  0
    2.1796   -0.3086   -2.8731 C   0  0  0  0  0  0  0  0  0  0  0  0
    2.0735   -1.3839   -3.0492 H   0  0  0  0  0  0  0  0  0  0  0  0
    2.1127    0.2091   -3.8344 H   0  0  0  0  0  0  0  0  0  0  0  0
    3.1684   -0.1155   -2.4448 H   0  0  0  0  0  0  0  0  0  0  0  0
  1  2  1  0  0  0  0
  2  3  1  0  0  0  0
  2  4  1  0  0  0  0
  2  5  1  0  0  0  0
  5  6  2  0  0  0  0
  5  7  1  0  0  0  0
  7  8  1  0  0  0  0
  7  9  1  0  0  0  0
  9 10  1  0  0  0  0
  9 11  1  0  0  0  0
  9 20  1  0  0  0  0
 11 12  1  0  0  0  0
 11 13  1  0  0  0  0
 11 14  1  0  0  0  0
 14 15  1  0  0  0  0
 14 16  1  0  0  0  0
 14 17  1  0  0  0  0
 17 18  1  0  0  0  0
 17 19  2  0  0  0  0
 20 21  2  0  0  0  0
 20 22  1  0  0  0  0
 22 23  1  0  0  0  0
 22 24  1  0  0  0  0
 24 25  1  0  0  0  0
 24 26  1  0  0  0  0
 24 27  1  0  0  0  0
M  CHG  1  18  -1
M  END
$$$$

  -OEChem-01062216073D

 27 26  0     1  0  0  0  0  0999 V2000
   -3.4221   -2.7499    1.4581 H   0  0  0  0  0  0  0  0  0  0  0  0
   -3.2976   -1.7599    1.0101 C   0  0  0  0  0  0  0  0  0  0  0  0
   -3.6701   -1.0098    1.7126 H   0  0  0  0  0  0  0  0  0  0  0  0
   -3.8837   -1.7124    0.0894 H   0  0  0  0  0  0  0  0  0  0  0  0
   -1.8320   -1.4998    0.7093 C   0  0  0  0  0  0  0  0  0  0  0  0
   -1.0217   -2.3826    0.9227 O   0  0  0  0  0  0  0  0  0  0  0  0
   -1.4829   -0.2867    0.1436 N   0  0  0  0  0  0  0  0  0  0  0  0
   -2.2560    0.3689    0.1117 H   0  0  0  0  0  0  0  0  0  0  0  0
   -0.1401    0.3284    0.2190 C   0  0  1  0  0  0  0  0  0  0  0  0
   -0.2452    1.3422   -0.1734 H   0  0  0  0  0  0  0  0  0  0  0  0
    0.3172    0.5090    1.6800 C   0  0  0  0  0  0  0  0  0  0  0  0
    0.2825   -0.4422    2.2211 H   0  0  0  0  0  0  0  0  0  0  0  0
    1.3560    0.8565    1.6996 H   0  0  0  0  0  0  0  0  0  0  0  0
   -0.5757    1.5568    2.3763 C   0  0  0  0  0  0  0  0  0  0  0  0
   -0.4939    2.5145    1.8544 H   0  0  0  0  0  0  0  0  0  0  0  0
   -1.6221    1.2415    2.3317 H   0  0  0  0  0  0  0  0  0  0  0  0
   -0.1931    1.7706    3.8395 C   0  0  0  0  0  0  0  0  0  0  0  0
    0.8998    2.3436    4.0737 O   0  5  0  0  0  0  0  0  0  0  0  0
   -1.0345    1.4430    4.7126 O   0  0  0  0  0  0  0  0  0  0  0  0
    0.9356   -0.3152   -0.6931 C   0  0  0  0  0  0  0  0  0  0  0  0
    1.5806   -1.3072   -0.3845 O   0  0  0  0  0  0  0  0  0  0  0  0
    1.3165    0.3565   -1.8443 N   0  0  0  0  0  0  0  0  0  0  0  0
    0.8506    1.2328   -2.0486 H   0  0  0  0  0  0  0  0  0  0  0  0
    2.4119   -0.0748   -2.7020 C   0  0  0  0  0  0  0  0  0  0  0  0
    2.2349   -1.0919   -3.0665 H   0  0  0  0  0  0  0  0  0  0  0  0
    2.4977    0.5915   -3.5654 H   0  0  0  0  0  0  0  0  0  0  0  0
    3.3582   -0.0552   -2.1520 H   0  0  0  0  0  0  0  0  0  0  0  0
  1  2  1  0  0  0  0
  2  3  1  0  0  0  0
  2  4  1  0  0  0  0
  2  5  1  0  0  0  0
  5  6  2  0  0  0  0
  5  7  1  0  0  0  0
  7  8  1  0  0  0  0
  7  9  1  0  0  0  0
  9 10  1  0  0  0  0
  9 11  1  0  0  0  0
  9 20  1  0  0  0  0
 11 12  1  0  0  0  0
 11 13  1  0  0  0  0
 11 14  1  0  0  0  0
 14 15  1  0  0  0  0
 14 16  1  0  0  0  0
 14 17  1  0  0  0  0
 17 18  1  0  0  0  0
 17 19  2  0  0  0  0
 20 21  2  0  0  0  0
 20 22  1  0  0  0  0
 22 23  1  0  0  0  0
 22 24  1  0  0  0  0
 24 25  1  0  0  0  0
 24 26  1  0  0  0  0
 24 27  1  0  0  0  0
M  CHG  1  18  -1
M  END
$$$$

  -OEChem-01062216073D

 27 26  0     1  0  0  0  0  0999 V2000
   -3.4532   -2.8650    1.2658 H   0  0  0  0  0  0  0  0  0  0  0  0
   -3.3133   -1.8859    0.7988 C   0  0  0  0  0  0  0  0  0  0  0  0
   -3.8763   -1.1421    1.3684 H   0  0  0  0  0  0  0  0  0  0  0  0
   -3.6996   -1.9241   -0.2224 H   0  0  0  0  0  0  0  0  0  0  0  0
   -1.8399   -1.5171    0.7840 C   0  0  0  0  0  0  0  0  0  0  0  0
   -1.0390   -2.2954    1.2701 O   0  0  0  0  0  0  0  0  0  0  0  0
   -1.4794   -0.3026    0.2266 N   0  0  0  0  0  0  0  0  0  0  0  0
   -2.2574    0.2953   -0.0268 H   0  0  0  0  0  0  0  0  0  0  0  0
   -0.1430    0.3257    0.2872 C   0  0  1  0  0  0  0  0  0  0  0  0
   -0.2866    1.3278   -0.1224 H   0  0  0  0  0  0  0  0  0  0  0  0
    0.3607    0.5558    1.7242 C   0  0  0  0  0  0  0  0  0  0  0  0
    0.3527   -0.3780    2.2947 H   0  0  0  0  0  0  0  0  0  0  0  0
    1.3965    0.9108    1.6975 H   0  0  0  0  0  0  0  0  0  0  0  0
   -0.5143    1.6159    2.4229 C   0  0  0  0  0  0  0  0  0  0  0  0
   -0.4594    2.5590    1.8721 H   0  0  0  0  0  0  0  0  0  0  0  0
   -1.5582    1.2881    2.4240 H   0  0  0  0  0  0  0  0  0  0  0  0
   -0.0790    1.8754    3.8647 C   0  0  0  0  0  0  0  0  0  0  0  0
    1.0792    2.3299    4.0417 O   0  5  0  0  0  0  0  0  0  0  0  0
   -0.9340    1.7177    4.7708 O   0  0  0  0  0  0  0  0  0  0  0  0
    0.9398   -0.2918   -0.6342 C   0  0  0  0  0  0  0  0  0  0  0  0
    1.1981   -1.4863   -0.6762 O   0  0  0  0  0  0  0  0  0  0  0  0
    1.5304    0.5191   -1.5907 N   0  0  0  0  0  0  0  0  0  0  0  0
    1.4003    1.5193   -1.4829 H   0  0  0  0  0  0  0  0  0  0  0  0
    2.5595    0.0489   -2.5085 C   0  0  0  0  0  0  0  0  0  0  0  0
    2.1793   -0.7743   -3.1221 H   0  0  0  0  0  0  0  0  0  0  0  0
    2.8675    0.8602   -3.1745 H   0  0  0  0  0  0  0  0  0  0  0  0
    3.4370   -0.2986   -1.9535 H   0  0  0  0  0  0  0  0  0  0  0  0
  1  2  1  0  0  0  0
  2  3  1  0  0  0  0
  2  4  1  0  0  0  0
  2  5  1  0  0  0  0
  5  6  2  0  0  0  0
  5  7  1  0  0  0  0
  7  8  1  0  0  0  0
  7  9  1  0  0  0  0
  9 10  1  0  0  0  0
  9 11  1  0  0  0  0
  9 20  1  0  0  0  0
 11 12  1  0  0  0  0
 11 13  1  0  0  0  0
 11 14  1  0  0  0  0
 14 15  1  0  0  0  0
 14 16  1  0  0  0  0
 14 17  1  0  0  0  0
 17 18  1  0  0  0  0
 17 19  2  0  0  0  0
 20 21  2  0  0  0  0
 20 22  1  0  0  0  0
 22 23  1  0  0  0  0
 22 24  1  0  0  0  0
 24 25  1  0  0  0  0
 24 26  1  0  0  0  0
 24 27  1  0  0  0  0
M  CHG  1  18  -1
M  END
$$$$

  -OEChem-01062216073D

 27 26  0     1  0  0  0  0  0999 V2000
   -3.4385   -2.8974    1.2146 H   0  0  0  0  0  0  0  0  0  0  0  0
   -3.2964   -1.9322    0.7203 C   0  0  0  0  0  0  0  0  0  0  0  0
   -3.9305   -1.1897    1.2112 H   0  0  0  0  0  0  0  0  0  0  0  0
   -3.5952   -2.0251   -0.3265 H   0  0  0  0  0  0  0  0  0  0  0  0
   -1.8410   -1.5071    0.8075 C   0  0  0  0  0  0  0  0  0  0  0  0
   -1.0472   -2.2430    1.3692 O   0  0  0  0  0  0  0  0  0  0  0  0
   -1.4802   -0.2926    0.2513 N   0  0  0  0  0  0  0  0  0  0  0  0
   -2.2405    0.2629   -0.1225 H   0  0  0  0  0  0  0  0  0  0  0  0
   -0.1426    0.3296    0.3189 C   0  0  1  0  0  0  0  0  0  0  0  0
   -0.2845    1.3276   -0.1026 H   0  0  0  0  0  0  0  0  0  0  0  0
    0.3702    0.5759    1.7500 C   0  0  0  0  0  0  0  0  0  0  0  0
    0.3621   -0.3499    2.3331 H   0  0  0  0  0  0  0  0  0  0  0  0
    1.4073    0.9258    1.7129 H   0  0  0  0  0  0  0  0  0  0  0  0
   -0.4920    1.6478    2.4445 C   0  0  0  0  0  0  0  0  0  0  0  0
   -0.4370    2.5854    1.8843 H   0  0  0  0  0  0  0  0  0  0  0  0
   -1.5373    1.3251    2.4588 H   0  0  0  0  0  0  0  0  0  0  0  0
   -0.0382    1.9159    3.8793 C   0  0  0  0  0  0  0  0  0  0  0  0
    1.1393    2.3261    4.0389 O   0  5  0  0  0  0  0  0  0  0  0  0
   -0.8898    1.8061    4.7956 O   0  0  0  0  0  0  0  0  0  0  0  0
    0.9380   -0.2935   -0.5996 C   0  0  0  0  0  0  0  0  0  0  0  0
    0.9133   -1.4636   -0.9605 O   0  0  0  0  0  0  0  0  0  0  0  0
    1.7512    0.5664   -1.3203 N   0  0  0  0  0  0  0  0  0  0  0  0
    1.8328    1.5125   -0.9608 H   0  0  0  0  0  0  0  0  0  0  0  0
    2.7500    0.1029   -2.2741 C   0  0  0  0  0  0  0  0  0  0  0  0
    2.2751   -0.4584   -3.0852 H   0  0  0  0  0  0  0  0  0  0  0  0
    3.2774    0.9566   -2.7096 H   0  0  0  0  0  0  0  0  0  0  0  0
    3.4818   -0.5422   -1.7773 H   0  0  0  0  0  0  0  0  0  0  0  0
  1  2  1  0  0  0  0
  2  3  1  0  0  0  0
  2  4  1  0  0  0  0
  2  5  1  0  0  0  0
  5  6  2  0  0  0  0
  5  7  1  0  0  0  0
  7  8  1  0  0  0  0
  7  9  1  0  0  0  0
  9 10  1  0  0  0  0
  9 11  1  0  0  0  0
  9 20  1  0  0  0  0
 11 12  1  0  0  0  0
 11 13  1  0  0  0  0
 11 14  1  0  0  0  0
 14 15  1  0  0  0  0
 14 16  1  0  0  0  0
 14 17  1  0  0  0  0
 17 18  1  0  0  0  0
 17 19  2  0  0  0  0
 20 21  2  0  0  0  0
 20 22  1  0  0  0  0
 22 23  1  0  0  0  0
 22 24  1  0  0  0  0
 24 25  1  0  0  0  0
 24 26  1  0  0  0  0
 24 27  1  0  0  0  0
M  CHG  1  18  -1
M  END
$$$$

  -OEChem-01062216073D

 27 26  0     1  0  0  0  0  0999 V2000
   -3.4226   -2.8942    1.2292 H   0  0  0  0  0  0  0  0  0  0  0  0
   -3.2897   -1.9323    0.7260 C   0  0  0  0  0  0  0  0  0  0  0  0
   -3.9246   -1.1895    1.2153 H   0  0  0  0  0  0  0  0  0  0  0  0
   -3.5957   -2.0352   -0.3179 H   0  0  0  0  0  0  0  0  0  0  0  0
   -1.8361   -1.4983    0.7992 C   0  0  0  0  0  0  0  0  0  0  0  0
   -1.0274   -2.2328    1.3428 O   0  0  0  0  0  0  0  0  0  0  0  0
   -1.4823   -0.2838    0.2400 N   0  0  0  0  0  0  0  0  0  0  0  0
   -2.2403    0.2646   -0.1484 H   0  0  0  0  0  0  0  0  0  0  0  0
   -0.1452    0.3379    0.3135 C   0  0  1  0  0  0  0  0  0  0  0  0
   -0.2781    1.3348   -0.1138 H   0  0  0  0  0  0  0  0  0  0  0  0
    0.3647    0.5821    1.7471 C   0  0  0  0  0  0  0  0  0  0  0  0
    0.3560   -0.3446    2.3283 H   0  0  0  0  0  0  0  0  0  0  0  0
    1.4019    0.9317    1.7142 H   0  0  0  0  0  0  0  0  0  0  0  0
   -0.4953    1.6521    2.4460 C   0  0  0  0  0  0  0  0  0  0  0  0
   -0.4396    2.5920    1.8897 H   0  0  0  0  0  0  0  0  0  0  0  0
   -1.5408    1.3304    2.4604 H   0  0  0  0  0  0  0  0  0  0  0  0
   -0.0366    1.9106    3.8811 C   0  0  0  0  0  0  0  0  0  0  0  0
    1.1555    2.2752    4.0442 O   0  5  0  0  0  0  0  0  0  0  0  0
   -0.8944    1.8333    4.7948 O   0  0  0  0  0  0  0  0  0  0  0  0
    0.9348   -0.2907   -0.5996 C   0  0  0  0  0  0  0  0  0  0  0  0
    0.7596   -1.3480   -1.1953 O   0  0  0  0  0  0  0  0  0  0  0  0
    1.9448    0.5341   -1.0664 N   0  0  0  0  0  0  0  0  0  0  0  0
    2.1271    1.3684   -0.5154 H   0  0  0  0  0  0  0  0  0  0  0  0
    2.9713    0.0848   -1.9967 C   0  0  0  0  0  0  0  0  0  0  0  0
    2.5222   -0.2100   -2.9506 H   0  0  0  0  0  0  0  0  0  0  0  0
    3.6846    0.8922   -2.1865 H   0  0  0  0  0  0  0  0  0  0  0  0
    3.5158   -0.7698   -1.5820 H   0  0  0  0  0  0  0  0  0  0  0  0
  1  2  1  0  0  0  0
  2  3  1  0  0  0  0
  2  4  1  0  0  0  0
  2  5  1  0  0  0  0
  5  6  2  0  0  0  0
  5  7  1  0  0  0  0
  7  8  1  0  0  0  0
  7  9  1  0  0  0  0
  9 10  1  0  0  0  0
  9 11  1  0  0  0  0
  9 20  1  0  0  0  0
 11 12  1  0  0  0  0
 11 13  1  0  0  0  0
 11 14  1  0  0  0  0
 14 15  1  0  0  0  0
 14 16  1  0  0  0  0
 14 17  1  0  0  0  0
 17 18  1  0  0  0  0
 17 19  2  0  0  0  0
 20 21  2  0  0  0  0
 20 22  1  0  0  0  0
 22 23  1  0  0  0  0
 22 24  1  0  0  0  0
 24 25  1  0  0  0  0
 24 26  1  0  0  0  0
 24 27  1  0  0  0  0
M  CHG  1  18  -1
M  END
$$$$

  -OEChem-01062216073D

 27 26  0     1  0  0  0  0  0999 V2000
   -3.3991   -2.8727    1.2554 H   0  0  0  0  0  0  0  0  0  0  0  0
   -3.2766   -1.9044    0.7618 C   0  0  0  0  0  0  0  0  0  0  0  0
   -3.8809   -1.1623    1.2896 H   0  0  0  0  0  0  0  0  0  0  0  0
   -3.6284   -1.9869   -0.2694 H   0  0  0  0  0  0  0  0  0  0  0  0
   -1.8166   -1.4876    0.7781 C   0  0  0  0  0  0  0  0  0  0  0  0
   -0.9889   -2.2408    1.2661 O   0  0  0  0  0  0  0  0  0  0  0  0
   -1.4707   -0.2717    0.2186 N   0  0  0  0  0  0  0  0  0  0  0  0
   -2.2386    0.2956   -0.1207 H   0  0  0  0  0  0  0  0  0  0  0  0
   -0.1359    0.3531    0.3007 C   0  0  1  0  0  0  0  0  0  0  0  0
   -0.2570    1.3521   -0.1255 H   0  0  0  0  0  0  0  0  0  0  0  0
    0.3537    0.5836    1.7455 C   0  0  0  0  0  0  0  0  0  0  0  0
    0.3392   -0.3493    2.3166 H   0  0  0  0  0  0  0  0  0  0  0  0
    1.3894    0.9373    1.7362 H   0  0  0  0  0  0  0  0  0  0  0  0
   -0.5183    1.6432    2.4442 C   0  0  0  0  0  0  0  0  0  0  0  0
   -0.4577    2.5893    1.8991 H   0  0  0  0  0  0  0  0  0  0  0  0
   -1.5631    1.3191    2.4421 H   0  0  0  0  0  0  0  0  0  0  0  0
   -0.0773    1.8843    3.8878 C   0  0  0  0  0  0  0  0  0  0  0  0
    1.1135    2.2428    4.0712 O   0  5  0  0  0  0  0  0  0  0  0  0
   -0.9448    1.7896    4.7903 O   0  0  0  0  0  0  0  0  0  0  0  0
    0.9441   -0.2807   -0.6088 C   0  0  0  0  0  0  0  0  0  0  0  0
    0.6844   -1.1888   -1.3918 O   0  0  0  0  0  0  0  0  0  0  0  0
    2.1151    0.4263   -0.8237 N   0  0  0  0  0  0  0  0  0  0  0  0
    2.3426    1.1333   -0.1293 H   0  0  0  0  0  0  0  0  0  0  0  0
    3.1674   -0.0248   -1.7235 C   0  0  0  0  0  0  0  0  0  0  0  0
    2.7929   -0.0891   -2.7502 H   0  0  0  0  0  0  0  0  0  0  0  0
    4.0035    0.6805   -1.7053 H   0  0  0  0  0  0  0  0  0  0  0  0
    3.5364   -1.0093   -1.4178 H   0  0  0  0  0  0  0  0  0  0  0  0
  1  2  1  0  0  0  0
  2  3  1  0  0  0  0
  2  4  1  0  0  0  0
  2  5  1  0  0  0  0
  5  6  2  0  0  0  0
  5  7  1  0  0  0  0
  7  8  1  0  0  0  0
  7  9  1  0  0  0  0
  9 10  1  0  0  0  0
  9 11  1  0  0  0  0
  9 20  1  0  0  0  0
 11 12  1  0  0  0  0
 11 13  1  0  0  0  0
 11 14  1  0  0  0  0
 14 15  1  0  0  0  0
 14 16  1  0  0  0  0
 14 17  1  0  0  0  0
 17 18  1  0  0  0  0
 17 19  2  0  0  0  0
 20 21  2  0  0  0  0
 20 22  1  0  0  0  0
 22 23  1  0  0  0  0
 22 24  1  0  0  0  0
 24 25  1  0  0  0  0
 24 26  1  0  0  0  0
 24 27  1  0  0  0  0
M  CHG  1  18  -1
M  END
$$$$

  -OEChem-01062216073D

 27 26  0     1  0  0  0  0  0999 V2000
   -3.3800   -2.8752    1.2734 H   0  0  0  0  0  0  0  0  0  0  0  0
   -3.2661   -1.8880    0.8168 C   0  0  0  0  0  0  0  0  0  0  0  0
   -3.7778   -1.1524    1.4424 H   0  0  0  0  0  0  0  0  0  0  0  0
   -3.7274   -1.9011   -0.1736 H   0  0  0  0  0  0  0  0  0  0  0  0
   -1.7947   -1.5319    0.6987 C   0  0  0  0  0  0  0  0  0  0  0  0
   -0.9560   -2.3707    0.9866 O   0  0  0  0  0  0  0  0  0  0  0  0
   -1.4490   -0.2998    0.1772 N   0  0  0  0  0  0  0  0  0  0  0  0
   -2.2281    0.3003   -0.0668 H   0  0  0  0  0  0  0  0  0  0  0  0
   -0.1185    0.3369    0.2756 C   0  0  1  0  0  0  0  0  0  0  0  0
   -0.2965    1.4030    0.1131 H   0  0  0  0  0  0  0  0  0  0  0  0
    0.5374    0.2631    1.6744 C   0  0  0  0  0  0  0  0  0  0  0  0
    0.6174   -0.7693    2.0240 H   0  0  0  0  0  0  0  0  0  0  0  0
    1.5553    0.6610    1.6312 H   0  0  0  0  0  0  0  0  0  0  0  0
   -0.2602    1.1075    2.6859 C   0  0  0  0  0  0  0  0  0  0  0  0
   -0.2761    2.1523    2.3630 H   0  0  0  0  0  0  0  0  0  0  0  0
   -1.2938    0.7515    2.7275 H   0  0  0  0  0  0  0  0  0  0  0  0
    0.3441    1.0435    4.0892 C   0  0  0  0  0  0  0  0  0  0  0  0
    1.5632    1.3296    4.2045 O   0  5  0  0  0  0  0  0  0  0  0  0
   -0.4273    0.7929    5.0475 O   0  0  0  0  0  0  0  0  0  0  0  0
    0.8331   -0.0212   -0.8914 C   0  0  0  0  0  0  0  0  0  0  0  0
    0.4132   -0.5430   -1.9200 O   0  0  0  0  0  0  0  0  0  0  0  0
    2.1118    0.5086   -0.9161 N   0  0  0  0  0  0  0  0  0  0  0  0
    2.4604    0.8804   -0.0359 H   0  0  0  0  0  0  0  0  0  0  0  0
    3.0621    0.2572   -1.9900 C   0  0  0  0  0  0  0  0  0  0  0  0
    2.6784    0.6430   -2.9399 H   0  0  0  0  0  0  0  0  0  0  0  0
    4.0120    0.7550   -1.7738 H   0  0  0  0  0  0  0  0  0  0  0  0
    3.2480   -0.8169   -2.0922 H   0  0  0  0  0  0  0  0  0  0  0  0
  1  2  1  0  0  0  0
  2  3  1  0  0  0  0
  2  4  1  0  0  0  0
  2  5  1  0  0  0  0
  5  6  2  0  0  0  0
  5  7  1  0  0  0  0
  7  8  1  0  0  0  0
  7  9  1  0  0  0  0
  9 10  1  0  0  0  0
  9 11  1  0  0  0  0
  9 20  1  0  0  0  0
 11 12  1  0  0  0  0
 11 13  1  0  0  0  0
 11 14  1  0  0  0  0
 14 15  1  0  0  0  0
 14 16  1  0  0  0  0
 14 17  1  0  0  0  0
 17 18  1  0  0  0  0
 17 19  2  0  0  0  0
 20 21  2  0  0  0  0
 20 22  1  0  0  0  0
 22 23  1  0  0  0  0
 22 24  1  0  0  0  0
 24 25  1  0  0  0  0
 24 26  1  0  0  0  0
 24 27  1  0  0  0  0
M  CHG  1  18  -1
M  END
$$$$

  -OEChem-01062216073D

 27 26  0     1  0  0  0  0  0999 V2000
   -3.3502   -2.8688    1.2649 H   0  0  0  0  0  0  0  0  0  0  0  0
   -3.2412   -1.8741    0.8234 C   0  0  0  0  0  0  0  0  0  0  0  0
   -3.7411   -1.1477    1.4693 H   0  0  0  0  0  0  0  0  0  0  0  0
   -3.7186   -1.8689   -0.1595 H   0  0  0  0  0  0  0  0  0  0  0  0
   -1.7712   -1.5185    0.6879 C   0  0  0  0  0  0  0  0  0  0  0  0
   -0.9269   -2.3624    0.9442 O   0  0  0  0  0  0  0  0  0  0  0  0
   -1.4296   -0.2838    0.1716 N   0  0  0  0  0  0  0  0  0  0  0  0
   -2.2110    0.3207   -0.0543 H   0  0  0  0  0  0  0  0  0  0  0  0
   -0.1037    0.3589    0.2873 C   0  0  1  0  0  0  0  0  0  0  0  0
   -0.2760    1.4262    0.1260 H   0  0  0  0  0  0  0  0  0  0  0  0
    0.5300    0.2743    1.6974 C   0  0  0  0  0  0  0  0  0  0  0  0
    0.6120   -0.7608    2.0388 H   0  0  0  0  0  0  0  0  0  0  0  0
    1.5442    0.6829    1.6764 H   0  0  0  0  0  0  0  0  0  0  0  0
   -0.2855    1.1056    2.7054 C   0  0  0  0  0  0  0  0  0  0  0  0
   -0.2992    2.1534    2.3925 H   0  0  0  0  0  0  0  0  0  0  0  0
   -1.3184    0.7460    2.7276 H   0  0  0  0  0  0  0  0  0  0  0  0
    0.2966    1.0295    4.1180 C   0  0  0  0  0  0  0  0  0  0  0  0
    1.5204    1.2837    4.2550 O   0  5  0  0  0  0  0  0  0  0  0  0
   -0.4962    0.7925    5.0623 O   0  0  0  0  0  0  0  0  0  0  0  0
    0.8468   -0.0067   -0.8790 C   0  0  0  0  0  0  0  0  0  0  0  0
    0.3973   -0.3097   -1.9806 O   0  0  0  0  0  0  0  0  0  0  0  0
    2.2049    0.2414   -0.7829 N   0  0  0  0  0  0  0  0  0  0  0  0
    2.5628    0.4317    0.1500 H   0  0  0  0  0  0  0  0  0  0  0  0
    3.1534   -0.0521   -1.8475 C   0  0  0  0  0  0  0  0  0  0  0  0
    2.9096    0.5214   -2.7475 H   0  0  0  0  0  0  0  0  0  0  0  0
    4.1657    0.2164   -1.5315 H   0  0  0  0  0  0  0  0  0  0  0  0
    3.1368   -1.1194   -2.0909 H   0  0  0  0  0  0  0  0  0  0  0  0
  1  2  1  0  0  0  0
  2  3  1  0  0  0  0
  2  4  1  0  0  0  0
  2  5  1  0  0  0  0
  5  6  2  0  0  0  0
  5  7  1  0  0  0  0
  7  8  1  0  0  0  0
  7  9  1  0  0  0  0
  9 10  1  0  0  0  0
  9 11  1  0  0  0  0
  9 20  1  0  0  0  0
 11 12  1  0  0  0  0
 11 13  1  0  0  0  0
 11 14  1  0  0  0  0
 14 15  1  0  0  0  0
 14 16  1  0  0  0  0
 14 17  1  0  0  0  0
 17 18  1  0  0  0  0
 17 19  2  0  0  0  0
 20 21  2  0  0  0  0
 20 22  1  0  0  0  0
 22 23  1  0  0  0  0
 22 24  1  0  0  0  0
 24 25  1  0  0  0  0
 24 26  1  0  0  0  0
 24 27  1  0  0  0  0
M  CHG  1  18  -1
M  END
$$$$

  -OEChem-01062216073D

 27 26  0     1  0  0  0  0  0999 V2000
   -3.3192   -2.8602    1.2686 H   0  0  0  0  0  0  0  0  0  0  0  0
   -3.2194   -1.8604    0.8368 C   0  0  0  0  0  0  0  0  0  0  0  0
   -3.7013   -1.1413    1.5040 H   0  0  0  0  0  0  0  0  0  0  0  0
   -3.7215   -1.8422   -0.1335 H   0  0  0  0  0  0  0  0  0  0  0  0
   -1.7526   -1.5057    0.6695 C   0  0  0  0  0  0  0  0  0  0  0  0
   -0.9021   -2.3536    0.8905 O   0  0  0  0  0  0  0  0  0  0  0  0
   -1.4165   -0.2682    0.1568 N   0  0  0  0  0  0  0  0  0  0  0  0
   -2.2013    0.3441   -0.0347 H   0  0  0  0  0  0  0  0  0  0  0  0
   -0.0945    0.3777    0.2924 C   0  0  1  0  0  0  0  0  0  0  0  0
   -0.2615    1.4464    0.1326 H   0  0  0  0  0  0  0  0  0  0  0  0
    0.5213    0.2847    1.7093 C   0  0  0  0  0  0  0  0  0  0  0  0
    0.6059   -0.7525    2.0444 H   0  0  0  0  0  0  0  0  0  0  0  0
    1.5325    0.7021    1.6991 H   0  0  0  0  0  0  0  0  0  0  0  0
   -0.3076    1.1050    2.7150 C   0  0  0  0  0  0  0  0  0  0  0  0
   -0.3196    2.1553    2.4109 H   0  0  0  0  0  0  0  0  0  0  0  0
   -1.3401    0.7435    2.7229 H   0  0  0  0  0  0  0  0  0  0  0  0
    0.2595    1.0174    4.1331 C   0  0  0  0  0  0  0  0  0  0  0  0
    1.4872    1.2427    4.2847 O   0  5  0  0  0  0  0  0  0  0  0  0
   -0.5478    0.7896    5.0673 O   0  0  0  0  0  0  0  0  0  0  0  0
    0.8603    0.0066   -0.8677 C   0  0  0  0  0  0  0  0  0  0  0  0
    0.4319   -0.0778   -2.0153 O   0  0  0  0  0  0  0  0  0  0  0  0
    2.2297   -0.0469   -0.6767 N   0  0  0  0  0  0  0  0  0  0  0  0
    2.5488   -0.0486    0.2893 H   0  0  0  0  0  0  0  0  0  0  0  0
    3.1750   -0.3976   -1.7262 C   0  0  0  0  0  0  0  0  0  0  0  0
    3.1100    0.3152   -2.5545 H   0  0  0  0  0  0  0  0  0  0  0  0
    4.1958   -0.3774   -1.3333 H   0  0  0  0  0  0  0  0  0  0  0  0
    2.9685   -1.4032   -2.1060 H   0  0  0  0  0  0  0  0  0  0  0  0
  1  2  1  0  0  0  0
  2  3  1  0  0  0  0
  2  4  1  0  0  0  0
  2  5  1  0  0  0  0
  5  6  2  0  0  0  0
  5  7  1  0  0  0  0
  7  8  1  0  0  0  0
  7  9  1  0  0  0  0
  9 10  1  0  0  0  0
  9 11  1  0  0  0  0
  9 20  1  0  0  0  0
 11 12  1  0  0  0  0
 11 13  1  0  0  0  0
 11 14  1  0  0  0  0
 14 15  1  0  0  0  0
 14 16  1  0  0  0  0
 14 17  1  0  0  0  0
 17 18  1  0  0  0  0
 17 19  2  0  0  0  0
 20 21  2  0  0  0  0
 20 22  1  0  0  0  0
 22 23  1  0  0  0  0
 22 24  1  0  0  0  0
 24 25  1  0  0  0  0
 24 26  1  0  0  0  0
 24 27  1  0  0  0  0
M  CHG  1  18  -1
M  END
$$$$

  -OEChem-01062216073D

 27 26  0     1  0  0  0  0  0999 V2000
   -3.3000   -2.8390    1.2868 H   0  0  0  0  0  0  0  0  0  0  0  0
   -3.2045   -1.8369    0.8596 C   0  0  0  0  0  0  0  0  0  0  0  0
   -3.6599   -1.1190    1.5466 H   0  0  0  0  0  0  0  0  0  0  0  0
   -3.7349   -1.8069   -0.0952 H   0  0  0  0  0  0  0  0  0  0  0  0
   -1.7405   -1.4926    0.6523 C   0  0  0  0  0  0  0  0  0  0  0  0
   -0.8884   -2.3470    0.8416 O   0  0  0  0  0  0  0  0  0  0  0  0
   -1.4067   -0.2558    0.1372 N   0  0  0  0  0  0  0  0  0  0  0  0
   -2.1923    0.3639   -0.0268 H   0  0  0  0  0  0  0  0  0  0  0  0
   -0.0873    0.3906    0.2895 C   0  0  1  0  0  0  0  0  0  0  0  0
   -0.2478    1.4602    0.1292 H   0  0  0  0  0  0  0  0  0  0  0  0
    0.5155    0.2881    1.7111 C   0  0  0  0  0  0  0  0  0  0  0  0
    0.5988   -0.7510    2.0404 H   0  0  0  0  0  0  0  0  0  0  0  0
    1.5270    0.7071    1.7072 H   0  0  0  0  0  0  0  0  0  0  0  0
   -0.3229    1.0997    2.7159 C   0  0  0  0  0  0  0  0  0  0  0  0
   -0.3351    2.1524    2.4198 H   0  0  0  0  0  0  0  0  0  0  0  0
   -1.3546    0.7361    2.7123 H   0  0  0  0  0  0  0  0  0  0  0  0
    0.2322    1.0015    4.1381 C   0  0  0  0  0  0  0  0  0  0  0  0
    1.4545    1.2418    4.3056 O   0  5  0  0  0  0  0  0  0  0  0  0
   -0.5797    0.7409    5.0599 O   0  0  0  0  0  0  0  0  0  0  0  0
    0.8739    0.0101   -0.8592 C   0  0  0  0  0  0  0  0  0  0  0  0
    0.5130    0.1371   -2.0257 O   0  0  0  0  0  0  0  0  0  0  0  0
    2.1855   -0.3470   -0.6059 N   0  0  0  0  0  0  0  0  0  0  0  0
    2.4189   -0.5308    0.3673 H   0  0  0  0  0  0  0  0  0  0  0  0
    3.1245   -0.7500   -1.6415 C   0  0  0  0  0  0  0  0  0  0  0  0
    3.2576    0.0541   -2.3723 H   0  0  0  0  0  0  0  0  0  0  0  0
    4.0981   -0.9761   -1.1970 H   0  0  0  0  0  0  0  0  0  0  0  0
    2.7618   -1.6439   -2.1588 H   0  0  0  0  0  0  0  0  0  0  0  0
  1  2  1  0  0  0  0
  2  3  1  0  0  0  0
  2  4  1  0  0  0  0
  2  5  1  0  0  0  0
  5  6  2  0  0  0  0
  5  7  1  0  0  0  0
  7  8  1  0  0  0  0
  7  9  1  0  0  0  0
  9 10  1  0  0  0  0
  9 11  1  0  0  0  0
  9 20  1  0  0  0  0
 11 12  1  0  0  0  0
 11 13  1  0  0  0  0
 11 14  1  0  0  0  0
 14 15  1  0  0  0  0
 14 16  1  0  0  0  0
 14 17  1  0  0  0  0
 17 18  1  0  0  0  0
 17 19  2  0  0  0  0
 20 21  2  0  0  0  0
 20 22  1  0  0  0  0
 22 23  1  0  0  0  0
 22 24  1  0  0  0  0
 24 25  1  0  0  0  0
 24 26  1  0  0  0  0
 24 27  1  0  0  0  0
M  CHG  1  18  -1
M  END
$$$$

  -OEChem-01062216073D

 27 26  0     1  0  0  0  0  0999 V2000
   -3.2853   -2.8183    1.3025 H   0  0  0  0  0  0  0  0  0  0  0  0
   -3.1919   -1.8156    0.8757 C   0  0  0  0  0  0  0  0  0  0  0  0
   -3.6298   -1.0971    1.5736 H   0  0  0  0  0  0  0  0  0  0  0  0
   -3.7409   -1.7795   -0.0684 H   0  0  0  0  0  0  0  0  0  0  0  0
   -1.7302   -1.4796    0.6404 C   0  0  0  0  0  0  0  0  0  0  0  0
   -0.8775   -2.3394    0.8032 O   0  0  0  0  0  0  0  0  0  0  0  0
   -1.3975   -0.2438    0.1223 N   0  0  0  0  0  0  0  0  0  0  0  0
   -2.1830    0.3831   -0.0133 H   0  0  0  0  0  0  0  0  0  0  0  0
   -0.0791    0.4001    0.2885 C   0  0  1  0  0  0  0  0  0  0  0  0
   -0.2331    1.4711    0.1287 H   0  0  0  0  0  0  0  0  0  0  0  0
    0.5134    0.2897    1.7129 C   0  0  0  0  0  0  0  0  0  0  0  0
    0.5906   -0.7505    2.0401 H   0  0  0  0  0  0  0  0  0  0  0  0
    1.5275    0.7036    1.7126 H   0  0  0  0  0  0  0  0  0  0  0  0
   -0.3320    1.0973    2.7145 C   0  0  0  0  0  0  0  0  0  0  0  0
   -0.3396    2.1515    2.4231 H   0  0  0  0  0  0  0  0  0  0  0  0
   -1.3649    0.7370    2.7015 H   0  0  0  0  0  0  0  0  0  0  0  0
    0.2133    0.9902    4.1392 C   0  0  0  0  0  0  0  0  0  0  0  0
    1.4228    1.2761    4.3252 O   0  5  0  0  0  0  0  0  0  0  0  0
   -0.5945    0.6673    5.0447 O   0  0  0  0  0  0  0  0  0  0  0  0
    0.8887    0.0118   -0.8488 C   0  0  0  0  0  0  0  0  0  0  0  0
    0.6329    0.3359   -2.0047 O   0  0  0  0  0  0  0  0  0  0  0  0
    2.0795   -0.6359   -0.5785 N   0  0  0  0  0  0  0  0  0  0  0  0
    2.1822   -0.9981    0.3669 H   0  0  0  0  0  0  0  0  0  0  0  0
    2.9975   -1.0935   -1.6098 C   0  0  0  0  0  0  0  0  0  0  0  0
    3.3301   -0.2529   -2.2273 H   0  0  0  0  0  0  0  0  0  0  0  0
    3.8778   -1.5527   -1.1504 H   0  0  0  0  0  0  0  0  0  0  0  0
    2.5117   -1.8357   -2.2513 H   0  0  0  0  0  0  0  0  0  0  0  0
  1  2  1  0  0  0  0
  2  3  1  0  0  0  0
  2  4  1  0  0  0  0
  2  5  1  0  0  0  0
  5  6  2  0  0  0  0
  5  7  1  0  0  0  0
  7  8  1  0  0  0  0
  7  9  1  0  0  0  0
  9 10  1  0  0  0  0
  9 11  1  0  0  0  0
  9 20  1  0  0  0  0
 11 12  1  0  0  0  0
 11 13  1  0  0  0  0
 11 14  1  0  0  0  0
 14 15  1  0  0  0  0
 14 16  1  0  0  0  0
 14 17  1  0  0  0  0
 17 18  1  0  0  0  0
 17 19  2  0  0  0  0
 20 21  2  0  0  0  0
 20 22  1  0  0  0  0
 22 23  1  0  0  0  0
 22 24  1  0  0  0  0
 24 25  1  0  0  0  0
 24 26  1  0  0  0  0
 24 27  1  0  0  0  0
M  CHG  1  18  -1
M  END
$$$$

  -OEChem-01062216073D

 27 26  0     1  0  0  0  0  0999 V2000
   -3.2537   -2.8286    1.2512 H   0  0  0  0  0  0  0  0  0  0  0  0
   -3.1632   -1.7993    0.8930 C   0  0  0  0  0  0  0  0  0  0  0  0
   -3.5635   -1.1267    1.6561 H   0  0  0  0  0  0  0  0  0  0  0  0
   -3.7483   -1.6906   -0.0234 H   0  0  0  0  0  0  0  0  0  0  0  0
   -1.7074   -1.4636    0.6242 C   0  0  0  0  0  0  0  0  0  0  0  0
   -0.8500   -2.3260    0.7519 O   0  0  0  0  0  0  0  0  0  0  0  0
   -1.3809   -0.2274    0.1028 N   0  0  0  0  0  0  0  0  0  0  0  0
   -2.1666    0.4068    0.0073 H   0  0  0  0  0  0  0  0  0  0  0  0
   -0.0635    0.4121    0.2884 C   0  0  1  0  0  0  0  0  0  0  0  0
   -0.2093    1.4846    0.1286 H   0  0  0  0  0  0  0  0  0  0  0  0
    0.5142    0.2938    1.7177 C   0  0  0  0  0  0  0  0  0  0  0  0
    0.5847   -0.7475    2.0433 H   0  0  0  0  0  0  0  0  0  0  0  0
    1.5308    0.7022    1.7265 H   0  0  0  0  0  0  0  0  0  0  0  0
   -0.3425    1.0995    2.7117 C   0  0  0  0  0  0  0  0  0  0  0  0
   -0.3446    2.1549    2.4249 H   0  0  0  0  0  0  0  0  0  0  0  0
   -1.3760    0.7422    2.6846 H   0  0  0  0  0  0  0  0  0  0  0  0
    0.1855    0.9860    4.1421 C   0  0  0  0  0  0  0  0  0  0  0  0
    1.3672    1.3530    4.3591 O   0  5  0  0  0  0  0  0  0  0  0  0
   -0.6092    0.5692    5.0208 O   0  0  0  0  0  0  0  0  0  0  0  0
    0.9094    0.0125   -0.8374 C   0  0  0  0  0  0  0  0  0  0  0  0
    0.8021    0.5185   -1.9504 O   0  0  0  0  0  0  0  0  0  0  0  0
    1.9190   -0.8986   -0.5958 N   0  0  0  0  0  0  0  0  0  0  0  0
    1.8272   -1.4247    0.2715 H   0  0  0  0  0  0  0  0  0  0  0  0
    2.7913   -1.4169   -1.6379 C   0  0  0  0  0  0  0  0  0  0  0  0
    3.3296   -0.5995   -2.1286 H   0  0  0  0  0  0  0  0  0  0  0  0
    3.5261   -2.1016   -1.2046 H   0  0  0  0  0  0  0  0  0  0  0  0
    2.2086   -1.9599   -2.3888 H   0  0  0  0  0  0  0  0  0  0  0  0
  1  2  1  0  0  0  0
  2  3  1  0  0  0  0
  2  4  1  0  0  0  0
  2  5  1  0  0  0  0
  5  6  2  0  0  0  0
  5  7  1  0  0  0  0
  7  8  1  0  0  0  0
  7  9  1  0  0  0  0
  9 10  1  0  0  0  0
  9 11  1  0  0  0  0
  9 20  1  0  0  0  0
 11 12  1  0  0  0  0
 11 13  1  0  0  0  0
 11 14  1  0  0  0  0
 14 15  1  0  0  0  0
 14 16  1  0  0  0  0
 14 17  1  0  0  0  0
 17 18  1  0  0  0  0
 17 19  2  0  0  0  0
 20 21  2  0  0  0  0
 20 22  1  0  0  0  0
 22 23  1  0  0  0  0
 22 24  1  0  0  0  0
 24 25  1  0  0  0  0
 24 26  1  0  0  0  0
 24 27  1  0  0  0  0
M  CHG  1  18  -1
M  END
$$$$

  -OEChem-01062216073D

 27 26  0     1  0  0  0  0  0999 V2000
   -3.2259   -2.8003    1.2976 H   0  0  0  0  0  0  0  0  0  0  0  0
   -3.1408   -1.7725    0.9339 C   0  0  0  0  0  0  0  0  0  0  0  0
   -3.5038   -1.0956    1.7119 H   0  0  0  0  0  0  0  0  0  0  0  0
   -3.7618   -1.6598    0.0421 H   0  0  0  0  0  0  0  0  0  0  0  0
   -1.6937   -1.4507    0.6069 C   0  0  0  0  0  0  0  0  0  0  0  0
   -0.8389   -2.3224    0.6905 O   0  0  0  0  0  0  0  0  0  0  0  0
   -1.3697   -0.2170    0.0769 N   0  0  0  0  0  0  0  0  0  0  0  0
   -2.1535    0.4246    0.0184 H   0  0  0  0  0  0  0  0  0  0  0  0
   -0.0510    0.4160    0.2790 C   0  0  1  0  0  0  0  0  0  0  0  0
   -0.1862    1.4902    0.1194 H   0  0  0  0  0  0  0  0  0  0  0  0
    0.5118    0.2867    1.7126 C   0  0  0  0  0  0  0  0  0  0  0  0
    0.5748   -0.7562    2.0340 H   0  0  0  0  0  0  0  0  0  0  0  0
    1.5304    0.6893    1.7329 H   0  0  0  0  0  0  0  0  0  0  0  0
   -0.3537    1.0912    2.6997 C   0  0  0  0  0  0  0  0  0  0  0  0
   -0.3488    2.1479    2.4174 H   0  0  0  0  0  0  0  0  0  0  0  0
   -1.3886    0.7391    2.6599 H   0  0  0  0  0  0  0  0  0  0  0  0
    0.1578    0.9678    4.1345 C   0  0  0  0  0  0  0  0  0  0  0  0
    1.3007    1.4219    4.3887 O   0  5  0  0  0  0  0  0  0  0  0  0
   -0.6130    0.4499    4.9799 O   0  0  0  0  0  0  0  0  0  0  0  0
    0.9302    0.0017   -0.8323 C   0  0  0  0  0  0  0  0  0  0  0  0
    1.0153    0.6600   -1.8642 O   0  0  0  0  0  0  0  0  0  0  0  0
    1.7118   -1.1237   -0.6638 N   0  0  0  0  0  0  0  0  0  0  0  0
    1.4022   -1.7428    0.0866 H   0  0  0  0  0  0  0  0  0  0  0  0
    2.5492   -1.6742   -1.7178 C   0  0  0  0  0  0  0  0  0  0  0  0
    3.2801   -0.9316   -2.0539 H   0  0  0  0  0  0  0  0  0  0  0  0
    3.0923   -2.5479   -1.3458 H   0  0  0  0  0  0  0  0  0  0  0  0
    1.9367   -1.9809   -2.5716 H   0  0  0  0  0  0  0  0  0  0  0  0
  1  2  1  0  0  0  0
  2  3  1  0  0  0  0
  2  4  1  0  0  0  0
  2  5  1  0  0  0  0
  5  6  2  0  0  0  0
  5  7  1  0  0  0  0
  7  8  1  0  0  0  0
  7  9  1  0  0  0  0
  9 10  1  0  0  0  0
  9 11  1  0  0  0  0
  9 20  1  0  0  0  0
 11 12  1  0  0  0  0
 11 13  1  0  0  0  0
 11 14  1  0  0  0  0
 14 15  1  0  0  0  0
 14 16  1  0  0  0  0
 14 17  1  0  0  0  0
 17 18  1  0  0  0  0
 17 19  2  0  0  0  0
 20 21  2  0  0  0  0
 20 22  1  0  0  0  0
 22 23  1  0  0  0  0
 22 24  1  0  0  0  0
 24 25  1  0  0  0  0
 24 26  1  0  0  0  0
 24 27  1  0  0  0  0
M  CHG  1  18  -1
M  END
$$$$

  -OEChem-01062216073D

 27 26  0     1  0  0  0  0  0999 V2000
   -3.2523   -2.7720    1.3277 H   0  0  0  0  0  0  0  0  0  0  0  0
   -3.1525   -1.7424    0.9729 C   0  0  0  0  0  0  0  0  0  0  0  0
   -3.4782   -1.0659    1.7675 H   0  0  0  0  0  0  0  0  0  0  0  0
   -3.7942   -1.6052    0.0994 H   0  0  0  0  0  0  0  0  0  0  0  0
   -1.7076   -1.4502    0.6114 C   0  0  0  0  0  0  0  0  0  0  0  0
   -0.8687   -2.3397    0.6687 O   0  0  0  0  0  0  0  0  0  0  0  0
   -1.3732   -0.2247    0.0686 N   0  0  0  0  0  0  0  0  0  0  0  0
   -2.1522    0.4243    0.0264 H   0  0  0  0  0  0  0  0  0  0  0  0
   -0.0510    0.4054    0.2675 C   0  0  1  0  0  0  0  0  0  0  0  0
   -0.1812    1.4797    0.1042 H   0  0  0  0  0  0  0  0  0  0  0  0
    0.5080    0.2713    1.7010 C   0  0  0  0  0  0  0  0  0  0  0  0
    0.5665   -0.7733    2.0189 H   0  0  0  0  0  0  0  0  0  0  0  0
    1.5284    0.6694    1.7249 H   0  0  0  0  0  0  0  0  0  0  0  0
   -0.3574    1.0781    2.6863 C   0  0  0  0  0  0  0  0  0  0  0  0
   -0.3473    2.1351    2.4053 H   0  0  0  0  0  0  0  0  0  0  0  0
   -1.3940    0.7316    2.6440 H   0  0  0  0  0  0  0  0  0  0  0  0
    0.1502    0.9502    4.1216 C   0  0  0  0  0  0  0  0  0  0  0  0
    1.2638    1.4616    4.3954 O   0  5  0  0  0  0  0  0  0  0  0  0
   -0.5962    0.3694    4.9479 O   0  0  0  0  0  0  0  0  0  0  0  0
    0.9385   -0.0216   -0.8310 C   0  0  0  0  0  0  0  0  0  0  0  0
    1.2148    0.7370   -1.7544 O   0  0  0  0  0  0  0  0  0  0  0  0
    1.4813   -1.2899   -0.7914 N   0  0  0  0  0  0  0  0  0  0  0  0
    1.0221   -1.9282   -0.1360 H   0  0  0  0  0  0  0  0  0  0  0  0
    2.3018   -1.8450   -1.8556 C   0  0  0  0  0  0  0  0  0  0  0  0
    3.1834   -1.2184   -2.0252 H   0  0  0  0  0  0  0  0  0  0  0  0
    2.6404   -2.8486   -1.5818 H   0  0  0  0  0  0  0  0  0  0  0  0
    1.7289   -1.9112   -2.7858 H   0  0  0  0  0  0  0  0  0  0  0  0
  1  2  1  0  0  0  0
  2  3  1  0  0  0  0
  2  4  1  0  0  0  0
  2  5  1  0  0  0  0
  5  6  2  0  0  0  0
  5  7  1  0  0  0  0
  7  8  1  0  0  0  0
  7  9  1  0  0  0  0
  9 10  1  0  0  0  0
  9 11  1  0  0  0  0
  9 20  1  0  0  0  0
 11 12  1  0  0  0  0
 11 13  1  0  0  0  0
 11 14  1  0  0  0  0
 14 15  1  0  0  0  0
 14 16  1  0  0  0  0
 14 17  1  0  0  0  0
 17 18  1  0  0  0  0
 17 19  2  0  0  0  0
 20 21  2  0  0  0  0
 20 22  1  0  0  0  0
 22 23  1  0  0  0  0
 22 24  1  0  0  0  0
 24 25  1  0  0  0  0
 24 26  1  0  0  0  0
 24 27  1  0  0  0  0
M  CHG  1  18  -1
M  END
$$$$

  -OEChem-01062216073D

 27 26  0     1  0  0  0  0  0999 V2000
   -3.3031   -2.7275    1.3979 H   0  0  0  0  0  0  0  0  0  0  0  0
   -3.1882   -1.7037    1.0311 C   0  0  0  0  0  0  0  0  0  0  0  0
   -3.4738   -1.0126    1.8288 H   0  0  0  0  0  0  0  0  0  0  0  0
   -3.8517   -1.5574    0.1754 H   0  0  0  0  0  0  0  0  0  0  0  0
   -1.7475   -1.4506    0.6260 C   0  0  0  0  0  0  0  0  0  0  0  0
   -0.9335   -2.3636    0.6583 O   0  0  0  0  0  0  0  0  0  0  0  0
   -1.3983   -0.2362    0.0670 N   0  0  0  0  0  0  0  0  0  0  0  0
   -2.1703    0.4219    0.0348 H   0  0  0  0  0  0  0  0  0  0  0  0
   -0.0694    0.3904    0.2461 C   0  0  1  0  0  0  0  0  0  0  0  0
   -0.1959    1.4649    0.0809 H   0  0  0  0  0  0  0  0  0  0  0  0
    0.4958    0.2484    1.6754 C   0  0  0  0  0  0  0  0  0  0  0  0
    0.5499   -0.7984    1.9873 H   0  0  0  0  0  0  0  0  0  0  0  0
    1.5186    0.6405    1.6949 H   0  0  0  0  0  0  0  0  0  0  0  0
   -0.3594    1.0572    2.6683 C   0  0  0  0  0  0  0  0  0  0  0  0
   -0.3453    2.1150    2.3903 H   0  0  0  0  0  0  0  0  0  0  0  0
   -1.3978    0.7164    2.6307 H   0  0  0  0  0  0  0  0  0  0  0  0
    0.1537    0.9221    4.1012 C   0  0  0  0  0  0  0  0  0  0  0  0
    1.2698    1.4286    4.3738 O   0  5  0  0  0  0  0  0  0  0  0  0
   -0.5926    0.3407    4.9276 O   0  0  0  0  0  0  0  0  0  0  0  0
    0.9255   -0.0463   -0.8457 C   0  0  0  0  0  0  0  0  0  0  0  0
    1.3861    0.7708   -1.6355 O   0  0  0  0  0  0  0  0  0  0  0  0
    1.2373   -1.3832   -0.9848 N   0  0  0  0  0  0  0  0  0  0  0  0
    0.7139   -2.0222   -0.3787 H   0  0  0  0  0  0  0  0  0  0  0  0
    2.0782   -1.9223   -2.0407 C   0  0  0  0  0  0  0  0  0  0  0  0
    3.0699   -1.4595   -2.0128 H   0  0  0  0  0  0  0  0  0  0  0  0
    2.1972   -3.0018   -1.9094 H   0  0  0  0  0  0  0  0  0  0  0  0
    1.6271   -1.7378   -3.0207 H   0  0  0  0  0  0  0  0  0  0  0  0
  1  2  1  0  0  0  0
  2  3  1  0  0  0  0
  2  4  1  0  0  0  0
  2  5  1  0  0  0  0
  5  6  2  0  0  0  0
  5  7  1  0  0  0  0
  7  8  1  0  0  0  0
  7  9  1  0  0  0  0
  9 10  1  0  0  0  0
  9 11  1  0  0  0  0
  9 20  1  0  0  0  0
 11 12  1  0  0  0  0
 11 13  1  0  0  0  0
 11 14  1  0  0  0  0
 14 15  1  0  0  0  0
 14 16  1  0  0  0  0
 14 17  1  0  0  0  0
 17 18  1  0  0  0  0
 17 19  2  0  0  0  0
 20 21  2  0  0  0  0
 20 22  1  0  0  0  0
 22 23  1  0  0  0  0
 22 24  1  0  0  0  0
 24 25  1  0  0  0  0
 24 26  1  0  0  0  0
 24 27  1  0  0  0  0
M  CHG  1  18  -1
M  END
$$$$

  -OEChem-01062216073D

 27 26  0     1  0  0  0  0  0999 V2000
   -3.3306   -2.6948    1.5002 H   0  0  0  0  0  0  0  0  0  0  0  0
   -3.2242   -1.6826    1.0998 C   0  0  0  0  0  0  0  0  0  0  0  0
   -3.4805   -0.9682    1.8869 H   0  0  0  0  0  0  0  0  0  0  0  0
   -3.9152   -1.5579    0.2628 H   0  0  0  0  0  0  0  0  0  0  0  0
   -1.7970   -1.4491    0.6388 C   0  0  0  0  0  0  0  0  0  0  0  0
   -1.0014   -2.3781    0.6200 O   0  0  0  0  0  0  0  0  0  0  0  0
   -1.4505   -0.2386    0.0693 N   0  0  0  0  0  0  0  0  0  0  0  0
   -2.2161    0.4278    0.0716 H   0  0  0  0  0  0  0  0  0  0  0  0
   -0.1117    0.3799    0.2156 C   0  0  1  0  0  0  0  0  0  0  0  0
   -0.2348    1.4554    0.0551 H   0  0  0  0  0  0  0  0  0  0  0  0
    0.4770    0.2266    1.6343 C   0  0  0  0  0  0  0  0  0  0  0  0
    0.5274   -0.8224    1.9398 H   0  0  0  0  0  0  0  0  0  0  0  0
    1.5036    0.6095    1.6380 H   0  0  0  0  0  0  0  0  0  0  0  0
   -0.3539    1.0390    2.6457 C   0  0  0  0  0  0  0  0  0  0  0  0
   -0.3323    2.0976    2.3714 H   0  0  0  0  0  0  0  0  0  0  0  0
   -1.3965    0.7099    2.6232 H   0  0  0  0  0  0  0  0  0  0  0  0
    0.1779    0.8966    4.0714 C   0  0  0  0  0  0  0  0  0  0  0  0
    1.3248    1.3430    4.3194 O   0  5  0  0  0  0  0  0  0  0  0  0
   -0.5878    0.3736    4.9190 O   0  0  0  0  0  0  0  0  0  0  0  0
    0.8688   -0.0563   -0.8917 C   0  0  0  0  0  0  0  0  0  0  0  0
    1.5206    0.7770   -1.5108 O   0  0  0  0  0  0  0  0  0  0  0  0
    0.9526   -1.3862   -1.2511 N   0  0  0  0  0  0  0  0  0  0  0  0
    0.4134   -2.0335   -0.6685 H   0  0  0  0  0  0  0  0  0  0  0  0
    1.8847   -1.9114   -2.2353 C   0  0  0  0  0  0  0  0  0  0  0  0
    2.9164   -1.7134   -1.9280 H   0  0  0  0  0  0  0  0  0  0  0  0
    1.7531   -2.9928   -2.3347 H   0  0  0  0  0  0  0  0  0  0  0  0
    1.7101   -1.4502   -3.2124 H   0  0  0  0  0  0  0  0  0  0  0  0
  1  2  1  0  0  0  0
  2  3  1  0  0  0  0
  2  4  1  0  0  0  0
  2  5  1  0  0  0  0
  5  6  2  0  0  0  0
  5  7  1  0  0  0  0
  7  8  1  0  0  0  0
  7  9  1  0  0  0  0
  9 10  1  0  0  0  0
  9 11  1  0  0  0  0
  9 20  1  0  0  0  0
 11 12  1  0  0  0  0
 11 13  1  0  0  0  0
 11 14  1  0  0  0  0
 14 15  1  0  0  0  0
 14 16  1  0  0  0  0
 14 17  1  0  0  0  0
 17 18  1  0  0  0  0
 17 19  2  0  0  0  0
 20 21  2  0  0  0  0
 20 22  1  0  0  0  0
 22 23  1  0  0  0  0
 22 24  1  0  0  0  0
 24 25  1  0  0  0  0
 24 26  1  0  0  0  0
 24 27  1  0  0  0  0
M  CHG  1  18  -1
M  END
$$$$

  -OEChem-01062216073D

 27 26  0     1  0  0  0  0  0999 V2000
   -3.3449   -2.6938    1.4915 H   0  0  0  0  0  0  0  0  0  0  0  0
   -3.2199   -1.6579    1.1639 C   0  0  0  0  0  0  0  0  0  0  0  0
   -3.3978   -0.9985    2.0177 H   0  0  0  0  0  0  0  0  0  0  0  0
   -3.9547   -1.4421    0.3847 H   0  0  0  0  0  0  0  0  0  0  0  0
   -1.8141   -1.4418    0.6339 C   0  0  0  0  0  0  0  0  0  0  0  0
   -1.0411   -2.3847    0.5383 O   0  0  0  0  0  0  0  0  0  0  0  0
   -1.4711   -0.2326    0.0611 N   0  0  0  0  0  0  0  0  0  0  0  0
   -2.2281    0.4421    0.1057 H   0  0  0  0  0  0  0  0  0  0  0  0
   -0.1252    0.3746    0.1989 C   0  0  1  0  0  0  0  0  0  0  0  0
   -0.2392    1.4514    0.0402 H   0  0  0  0  0  0  0  0  0  0  0  0
    0.4610    0.2122    1.6175 C   0  0  0  0  0  0  0  0  0  0  0  0
    0.4979   -0.8385    1.9200 H   0  0  0  0  0  0  0  0  0  0  0  0
    1.4918    0.5835    1.6249 H   0  0  0  0  0  0  0  0  0  0  0  0
   -0.3636    1.0329    2.6276 C   0  0  0  0  0  0  0  0  0  0  0  0
   -0.3311    2.0914    2.3538 H   0  0  0  0  0  0  0  0  0  0  0  0
   -1.4099    0.7161    2.6050 H   0  0  0  0  0  0  0  0  0  0  0  0
    0.1654    0.8822    4.0527 C   0  0  0  0  0  0  0  0  0  0  0  0
    1.2571    1.4332    4.3362 O   0  5  0  0  0  0  0  0  0  0  0  0
   -0.5493    0.2426    4.8641 O   0  0  0  0  0  0  0  0  0  0  0  0
    0.8514   -0.0624   -0.9131 C   0  0  0  0  0  0  0  0  0  0  0  0
    1.6727    0.7278   -1.3634 O   0  0  0  0  0  0  0  0  0  0  0  0
    0.7235   -1.3075   -1.4962 N   0  0  0  0  0  0  0  0  0  0  0  0
    0.1289   -1.9588   -0.9761 H   0  0  0  0  0  0  0  0  0  0  0  0
    1.6618   -1.8361   -2.4732 C   0  0  0  0  0  0  0  0  0  0  0  0
    2.6690   -1.8862   -2.0473 H   0  0  0  0  0  0  0  0  0  0  0  0
    1.3606   -2.8438   -2.7743 H   0  0  0  0  0  0  0  0  0  0  0  0
    1.6842   -1.2012   -3.3648 H   0  0  0  0  0  0  0  0  0  0  0  0
  1  2  1  0  0  0  0
  2  3  1  0  0  0  0
  2  4  1  0  0  0  0
  2  5  1  0  0  0  0
  5  6  2  0  0  0  0
  5  7  1  0  0  0  0
  7  8  1  0  0  0  0
  7  9  1  0  0  0  0
  9 10  1  0  0  0  0
  9 11  1  0  0  0  0
  9 20  1  0  0  0  0
 11 12  1  0  0  0  0
 11 13  1  0  0  0  0
 11 14  1  0  0  0  0
 14 15  1  0  0  0  0
 14 16  1  0  0  0  0
 14 17  1  0  0  0  0
 17 18  1  0  0  0  0
 17 19  2  0  0  0  0
 20 21  2  0  0  0  0
 20 22  1  0  0  0  0
 22 23  1  0  0  0  0
 22 24  1  0  0  0  0
 24 25  1  0  0  0  0
 24 26  1  0  0  0  0
 24 27  1  0  0  0  0
M  CHG  1  18  -1
M  END
$$$$

  -OEChem-01062216073D

 27 26  0     1  0  0  0  0  0999 V2000
   -3.3189   -2.6896    1.5114 H   0  0  0  0  0  0  0  0  0  0  0  0
   -3.1857   -1.6418    1.2286 C   0  0  0  0  0  0  0  0  0  0  0  0
   -3.2899   -1.0231    2.1243 H   0  0  0  0  0  0  0  0  0  0  0  0
   -3.9623   -1.3667    0.5111 H   0  0  0  0  0  0  0  0  0  0  0  0
   -1.8109   -1.4343    0.6197 C   0  0  0  0  0  0  0  0  0  0  0  0
   -1.0645   -2.3847    0.4347 O   0  0  0  0  0  0  0  0  0  0  0  0
   -1.4790   -0.2240    0.0454 N   0  0  0  0  0  0  0  0  0  0  0  0
   -2.2296    0.4537    0.1332 H   0  0  0  0  0  0  0  0  0  0  0  0
   -0.1303    0.3777    0.1856 C   0  0  1  0  0  0  0  0  0  0  0  0
   -0.2372    1.4552    0.0290 H   0  0  0  0  0  0  0  0  0  0  0  0
    0.4461    0.2045    1.6077 C   0  0  0  0  0  0  0  0  0  0  0  0
    0.4745   -0.8485    1.9040 H   0  0  0  0  0  0  0  0  0  0  0  0
    1.4790    0.5697    1.6260 H   0  0  0  0  0  0  0  0  0  0  0  0
   -0.3821    1.0257    2.6145 C   0  0  0  0  0  0  0  0  0  0  0  0
   -0.3429    2.0851    2.3444 H   0  0  0  0  0  0  0  0  0  0  0  0
   -1.4300    0.7158    2.5850 H   0  0  0  0  0  0  0  0  0  0  0  0
    0.1360    0.8648    4.0418 C   0  0  0  0  0  0  0  0  0  0  0  0
    1.1573    1.5141    4.3740 O   0  5  0  0  0  0  0  0  0  0  0  0
   -0.5209    0.1158    4.8070 O   0  0  0  0  0  0  0  0  0  0  0  0
    0.8460   -0.0603   -0.9274 C   0  0  0  0  0  0  0  0  0  0  0  0
    1.8137    0.6347   -1.2131 O   0  0  0  0  0  0  0  0  0  0  0  0
    0.5415   -1.1487   -1.7216 N   0  0  0  0  0  0  0  0  0  0  0  0
   -0.1311   -1.7882   -1.2920 H   0  0  0  0  0  0  0  0  0  0  0  0
    1.4552   -1.6774   -2.7224 C   0  0  0  0  0  0  0  0  0  0  0  0
    2.3802   -2.0226   -2.2496 H   0  0  0  0  0  0  0  0  0  0  0  0
    0.9927   -2.5212   -3.2425 H   0  0  0  0  0  0  0  0  0  0  0  0
    1.7005   -0.9093   -3.4629 H   0  0  0  0  0  0  0  0  0  0  0  0
  1  2  1  0  0  0  0
  2  3  1  0  0  0  0
  2  4  1  0  0  0  0
  2  5  1  0  0  0  0
  5  6  2  0  0  0  0
  5  7  1  0  0  0  0
  7  8  1  0  0  0  0
  7  9  1  0  0  0  0
  9 10  1  0  0  0  0
  9 11  1  0  0  0  0
  9 20  1  0  0  0  0
 11 12  1  0  0  0  0
 11 13  1  0  0  0  0
 11 14  1  0  0  0  0
 14 15  1  0  0  0  0
 14 16  1  0  0  0  0
 14 17  1  0  0  0  0
 17 18  1  0  0  0  0
 17 19  2  0  0  0  0
 20 21  2  0  0  0  0
 20 22  1  0  0  0  0
 22 23  1  0  0  0  0
 22 24  1  0  0  0  0
 24 25  1  0  0  0  0
 24 26  1  0  0  0  0
 24 27  1  0  0  0  0
M  CHG  1  18  -1
M  END
$$$$

  -OEChem-01062216073D

 27 26  0     1  0  0  0  0  0999 V2000
   -3.2847   -2.6917    1.5346 H   0  0  0  0  0  0  0  0  0  0  0  0
   -3.1607   -1.6432    1.2500 C   0  0  0  0  0  0  0  0  0  0  0  0
   -3.2470   -1.0263    2.1486 H   0  0  0  0  0  0  0  0  0  0  0  0
   -3.9534   -1.3697    0.5498 H   0  0  0  0  0  0  0  0  0  0  0  0
   -1.7999   -1.4328    0.6115 C   0  0  0  0  0  0  0  0  0  0  0  0
   -1.0698   -2.3844    0.3792 O   0  0  0  0  0  0  0  0  0  0  0  0
   -1.4714   -0.2187    0.0442 N   0  0  0  0  0  0  0  0  0  0  0  0
   -2.2151    0.4625    0.1616 H   0  0  0  0  0  0  0  0  0  0  0  0
   -0.1177    0.3714    0.1899 C   0  0  1  0  0  0  0  0  0  0  0  0
   -0.2142    1.4500    0.0349 H   0  0  0  0  0  0  0  0  0  0  0  0
    0.4448    0.1928    1.6179 C   0  0  0  0  0  0  0  0  0  0  0  0
    0.4601   -0.8602    1.9153 H   0  0  0  0  0  0  0  0  0  0  0  0
    1.4805    0.5486    1.6481 H   0  0  0  0  0  0  0  0  0  0  0  0
   -0.3869    1.0246    2.6142 C   0  0  0  0  0  0  0  0  0  0  0  0
   -0.3344    2.0829    2.3419 H   0  0  0  0  0  0  0  0  0  0  0  0
   -1.4376    0.7258    2.5744 H   0  0  0  0  0  0  0  0  0  0  0  0
    0.1111    0.8637    4.0485 C   0  0  0  0  0  0  0  0  0  0  0  0
    1.0951    1.5526    4.4125 O   0  5  0  0  0  0  0  0  0  0  0  0
   -0.5298    0.0764    4.7886 O   0  0  0  0  0  0  0  0  0  0  0  0
    0.8517   -0.0671   -0.9307 C   0  0  0  0  0  0  0  0  0  0  0  0
    1.9398    0.4793   -1.0660 O   0  0  0  0  0  0  0  0  0  0  0  0
    0.4096   -0.9269   -1.9183 N   0  0  0  0  0  0  0  0  0  0  0  0
   -0.3712   -1.5103   -1.6177 H   0  0  0  0  0  0  0  0  0  0  0  0
    1.2817   -1.4346   -2.9667 C   0  0  0  0  0  0  0  0  0  0  0  0
    2.1124   -1.9997   -2.5320 H   0  0  0  0  0  0  0  0  0  0  0  0
    0.7198   -2.0960   -3.6327 H   0  0  0  0  0  0  0  0  0  0  0  0
    1.6873   -0.6101   -3.5620 H   0  0  0  0  0  0  0  0  0  0  0  0
  1  2  1  0  0  0  0
  2  3  1  0  0  0  0
  2  4  1  0  0  0  0
  2  5  1  0  0  0  0
  5  6  2  0  0  0  0
  5  7  1  0  0  0  0
  7  8  1  0  0  0  0
  7  9  1  0  0  0  0
  9 10  1  0  0  0  0
  9 11  1  0  0  0  0
  9 20  1  0  0  0  0
 11 12  1  0  0  0  0
 11 13  1  0  0  0  0
 11 14  1  0  0  0  0
 14 15  1  0  0  0  0
 14 16  1  0  0  0  0
 14 17  1  0  0  0  0
 17 18  1  0  0  0  0
 17 19  2  0  0  0  0
 20 21  2  0  0  0  0
 20 22  1  0  0  0  0
 22 23  1  0  0  0  0
 22 24  1  0  0  0  0
 24 25  1  0  0  0  0
 24 26  1  0  0  0  0
 24 27  1  0  0  0  0
M  CHG  1  18  -1
M  END
$$$$

  -OEChem-01062216073D

 27 26  0     1  0  0  0  0  0999 V2000
   -3.2827   -2.7173    1.4913 H   0  0  0  0  0  0  0  0  0  0  0  0
   -3.1369   -1.6579    1.2626 C   0  0  0  0  0  0  0  0  0  0  0  0
   -3.1818   -1.0904    2.1963 H   0  0  0  0  0  0  0  0  0  0  0  0
   -3.9403   -1.3247    0.6015 H   0  0  0  0  0  0  0  0  0  0  0  0
   -1.7873   -1.4464    0.6009 C   0  0  0  0  0  0  0  0  0  0  0  0
   -1.0549   -2.3953    0.3698 O   0  0  0  0  0  0  0  0  0  0  0  0
   -1.4664   -0.2248    0.0444 N   0  0  0  0  0  0  0  0  0  0  0  0
   -2.2077    0.4543    0.1874 H   0  0  0  0  0  0  0  0  0  0  0  0
   -0.1111    0.3601    0.1921 C   0  0  1  0  0  0  0  0  0  0  0  0
   -0.2070    1.4388    0.0403 H   0  0  0  0  0  0  0  0  0  0  0  0
    0.4469    0.1843    1.6238 C   0  0  0  0  0  0  0  0  0  0  0  0
    0.4568   -0.8677    1.9251 H   0  0  0  0  0  0  0  0  0  0  0  0
    1.4834    0.5361    1.6595 H   0  0  0  0  0  0  0  0  0  0  0  0
   -0.3867    1.0245    2.6120 C   0  0  0  0  0  0  0  0  0  0  0  0
   -0.3304    2.0809    2.3330 H   0  0  0  0  0  0  0  0  0  0  0  0
   -1.4380    0.7283    2.5687 H   0  0  0  0  0  0  0  0  0  0  0  0
    0.1017    0.8713    4.0504 C   0  0  0  0  0  0  0  0  0  0  0  0
    1.0412    1.6094    4.4351 O   0  5  0  0  0  0  0  0  0  0  0  0
   -0.5088    0.0466    4.7751 O   0  0  0  0  0  0  0  0  0  0  0  0
    0.8499   -0.0683   -0.9403 C   0  0  0  0  0  0  0  0  0  0  0  0
    2.0253    0.2761   -0.9402 O   0  0  0  0  0  0  0  0  0  0  0  0
    0.3311   -0.6450   -2.0844 N   0  0  0  0  0  0  0  0  0  0  0  0
   -0.5680   -1.0962   -1.9354 H   0  0  0  0  0  0  0  0  0  0  0  0
    1.1733   -1.1324   -3.1669 C   0  0  0  0  0  0  0  0  0  0  0  0
    1.8379   -1.9242   -2.8063 H   0  0  0  0  0  0  0  0  0  0  0  0
    0.5526   -1.5372   -3.9716 H   0  0  0  0  0  0  0  0  0  0  0  0
    1.7810   -0.3195   -3.5775 H   0  0  0  0  0  0  0  0  0  0  0  0
  1  2  1  0  0  0  0
  2  3  1  0  0  0  0
  2  4  1  0  0  0  0
  2  5  1  0  0  0  0
  5  6  2  0  0  0  0
  5  7  1  0  0  0  0
  7  8  1  0  0  0  0
  7  9  1  0  0  0  0
  9 10  1  0  0  0  0
  9 11  1  0  0  0  0
  9 20  1  0  0  0  0
 11 12  1  0  0  0  0
 11 13  1  0  0  0  0
 11 14  1  0  0  0  0
 14 15  1  0  0  0  0
 14 16  1  0  0  0  0
 14 17  1  0  0  0  0
 17 18  1  0  0  0  0
 17 19  2  0  0  0  0
 20 21  2  0  0  0  0
 20 22  1  0  0  0  0
 22 23  1  0  0  0  0
 22 24  1  0  0  0  0
 24 25  1  0  0  0  0
 24 26  1  0  0  0  0
 24 27  1  0  0  0  0
M  CHG  1  18  -1
M  END
$$$$

  -OEChem-01062216073D

 27 26  0     1  0  0  0  0  0999 V2000
   -3.2398   -2.7246    1.5418 H   0  0  0  0  0  0  0  0  0  0  0  0
   -3.1313   -1.6806    1.2346 C   0  0  0  0  0  0  0  0  0  0  0  0
   -3.2324   -1.0461    2.1194 H   0  0  0  0  0  0  0  0  0  0  0  0
   -3.9249   -1.4358    0.5251 H   0  0  0  0  0  0  0  0  0  0  0  0
   -1.7705   -1.4610    0.5983 C   0  0  0  0  0  0  0  0  0  0  0  0
   -1.0246   -2.4060    0.3989 O   0  0  0  0  0  0  0  0  0  0  0  0
   -1.4506   -0.2331    0.0526 N   0  0  0  0  0  0  0  0  0  0  0  0
   -2.1924    0.4432    0.2058 H   0  0  0  0  0  0  0  0  0  0  0  0
   -0.0948    0.3494    0.2015 C   0  0  1  0  0  0  0  0  0  0  0  0
   -0.1895    1.4285    0.0525 H   0  0  0  0  0  0  0  0  0  0  0  0
    0.4600    0.1771    1.6353 C   0  0  0  0  0  0  0  0  0  0  0  0
    0.4680   -0.8735    1.9409 H   0  0  0  0  0  0  0  0  0  0  0  0
    1.4966    0.5292    1.6739 H   0  0  0  0  0  0  0  0  0  0  0  0
   -0.3772    1.0235    2.6157 C   0  0  0  0  0  0  0  0  0  0  0  0
   -0.3178    2.0786    2.3326 H   0  0  0  0  0  0  0  0  0  0  0  0
   -1.4287    0.7283    2.5675 H   0  0  0  0  0  0  0  0  0  0  0  0
    0.1023    0.8790    4.0580 C   0  0  0  0  0  0  0  0  0  0  0  0
    1.0786    1.5769    4.4263 O   0  5  0  0  0  0  0  0  0  0  0  0
   -0.5553    0.1106    4.8034 O   0  0  0  0  0  0  0  0  0  0  0  0
    0.8542   -0.0737   -0.9436 C   0  0  0  0  0  0  0  0  0  0  0  0
    2.0711    0.0260   -0.8478 O   0  0  0  0  0  0  0  0  0  0  0  0
    0.3148   -0.3389   -2.1890 N   0  0  0  0  0  0  0  0  0  0  0  0
   -0.6673   -0.5959   -2.1672 H   0  0  0  0  0  0  0  0  0  0  0  0
    1.1223   -0.7875   -3.3143 C   0  0  0  0  0  0  0  0  0  0  0  0
    1.6163   -1.7347   -3.0754 H   0  0  0  0  0  0  0  0  0  0  0  0
    0.4908   -0.9357   -4.1950 H   0  0  0  0  0  0  0  0  0  0  0  0
    1.8856   -0.0421   -3.5600 H   0  0  0  0  0  0  0  0  0  0  0  0
  1  2  1  0  0  0  0
  2  3  1  0  0  0  0
  2  4  1  0  0  0  0
  2  5  1  0  0  0  0
  5  6  2  0  0  0  0
  5  7  1  0  0  0  0
  7  8  1  0  0  0  0
  7  9  1  0  0  0  0
  9 10  1  0  0  0  0
  9 11  1  0  0  0  0
  9 20  1  0  0  0  0
 11 12  1  0  0  0  0
 11 13  1  0  0  0  0
 11 14  1  0  0  0  0
 14 15  1  0  0  0  0
 14 16  1  0  0  0  0
 14 17  1  0  0  0  0
 17 18  1  0  0  0  0
 17 19  2  0  0  0  0
 20 21  2  0  0  0  0
 20 22  1  0  0  0  0
 22 23  1  0  0  0  0
 22 24  1  0  0  0  0
 24 25  1  0  0  0  0
 24 26  1  0  0  0  0
 24 27  1  0  0  0  0
M  CHG  1  18  -1
M  END
$$$$

  -OEChem-01062216073D

 27 26  0     1  0  0  0  0  0999 V2000
   -3.2583   -2.7608    1.4693 H   0  0  0  0  0  0  0  0  0  0  0  0
   -3.1358   -1.7091    1.1953 C   0  0  0  0  0  0  0  0  0  0  0  0
   -3.2569   -1.0988    2.0945 H   0  0  0  0  0  0  0  0  0  0  0  0
   -3.9086   -1.4397    0.4716 H   0  0  0  0  0  0  0  0  0  0  0  0
   -1.7576   -1.4801    0.6015 C   0  0  0  0  0  0  0  0  0  0  0  0
   -0.9968   -2.4201    0.4412 O   0  0  0  0  0  0  0  0  0  0  0  0
   -1.4382   -0.2494    0.0612 N   0  0  0  0  0  0  0  0  0  0  0  0
   -2.1849    0.4226    0.2073 H   0  0  0  0  0  0  0  0  0  0  0  0
   -0.0857    0.3375    0.2085 C   0  0  1  0  0  0  0  0  0  0  0  0
   -0.1857    1.4157    0.0589 H   0  0  0  0  0  0  0  0  0  0  0  0
    0.4733    0.1787    1.6425 C   0  0  0  0  0  0  0  0  0  0  0  0
    0.4854   -0.8695    1.9562 H   0  0  0  0  0  0  0  0  0  0  0  0
    1.5087    0.5349    1.6758 H   0  0  0  0  0  0  0  0  0  0  0  0
   -0.3668    1.0304    2.6164 C   0  0  0  0  0  0  0  0  0  0  0  0
   -0.3121    2.0828    2.3231 H   0  0  0  0  0  0  0  0  0  0  0  0
   -1.4167    0.7288    2.5708 H   0  0  0  0  0  0  0  0  0  0  0  0
    0.1117    0.9044    4.0610 C   0  0  0  0  0  0  0  0  0  0  0  0
    1.1030    1.5901    4.4119 O   0  5  0  0  0  0  0  0  0  0  0  0
   -0.5643    0.1728    4.8265 O   0  0  0  0  0  0  0  0  0  0  0  0
    0.8549   -0.0828   -0.9441 C   0  0  0  0  0  0  0  0  0  0  0  0
    2.0596   -0.2380   -0.7892 O   0  0  0  0  0  0  0  0  0  0  0  0
    0.3641   -0.0380   -2.2368 N   0  0  0  0  0  0  0  0  0  0  0  0
   -0.6471   -0.0773   -2.3069 H   0  0  0  0  0  0  0  0  0  0  0  0
    1.1551   -0.4349   -3.3931 C   0  0  0  0  0  0  0  0  0  0  0  0
    1.4697   -1.4794   -3.2999 H   0  0  0  0  0  0  0  0  0  0  0  0
    0.5636   -0.3294   -4.3071 H   0  0  0  0  0  0  0  0  0  0  0  0
    2.0448    0.1966   -3.4840 H   0  0  0  0  0  0  0  0  0  0  0  0
  1  2  1  0  0  0  0
  2  3  1  0  0  0  0
  2  4  1  0  0  0  0
  2  5  1  0  0  0  0
  5  6  2  0  0  0  0
  5  7  1  0  0  0  0
  7  8  1  0  0  0  0
  7  9  1  0  0  0  0
  9 10  1  0  0  0  0
  9 11  1  0  0  0  0
  9 20  1  0  0  0  0
 11 12  1  0  0  0  0
 11 13  1  0  0  0  0
 11 14  1  0  0  0  0
 14 15  1  0  0  0  0
 14 16  1  0  0  0  0
 14 17  1  0  0  0  0
 17 18  1  0  0  0  0
 17 19  2  0  0  0  0
 20 21  2  0  0  0  0
 20 22  1  0  0  0  0
 22 23  1  0  0  0  0
 22 24  1  0  0  0  0
 24 25  1  0  0  0  0
 24 26  1  0  0  0  0
 24 27  1  0  0  0  0
M  CHG  1  18  -1
M  END
$$$$

  -OEChem-01062216073D

 27 26  0     1  0  0  0  0  0999 V2000
   -3.2704   -2.7835    1.4480 H   0  0  0  0  0  0  0  0  0  0  0  0
   -3.1478   -1.7327    1.1707 C   0  0  0  0  0  0  0  0  0  0  0  0
   -3.2938   -1.1174    2.0627 H   0  0  0  0  0  0  0  0  0  0  0  0
   -3.9047   -1.4726    0.4271 H   0  0  0  0  0  0  0  0  0  0  0  0
   -1.7572   -1.4989    0.6079 C   0  0  0  0  0  0  0  0  0  0  0  0
   -0.9859   -2.4354    0.4853 O   0  0  0  0  0  0  0  0  0  0  0  0
   -1.4382   -0.2674    0.0681 N   0  0  0  0  0  0  0  0  0  0  0  0
   -2.1909    0.4001    0.2012 H   0  0  0  0  0  0  0  0  0  0  0  0
   -0.0893    0.3268    0.2084 C   0  0  1  0  0  0  0  0  0  0  0  0
   -0.1973    1.4046    0.0606 H   0  0  0  0  0  0  0  0  0  0  0  0
    0.4800    0.1798    1.6386 C   0  0  0  0  0  0  0  0  0  0  0  0
    0.4993   -0.8664    1.9582 H   0  0  0  0  0  0  0  0  0  0  0  0
    1.5137    0.5415    1.6613 H   0  0  0  0  0  0  0  0  0  0  0  0
   -0.3597    1.0324    2.6126 C   0  0  0  0  0  0  0  0  0  0  0  0
   -0.3148    2.0834    2.3127 H   0  0  0  0  0  0  0  0  0  0  0  0
   -1.4077    0.7228    2.5734 H   0  0  0  0  0  0  0  0  0  0  0  0
    0.1268    0.9205    4.0559 C   0  0  0  0  0  0  0  0  0  0  0  0
    1.1577    1.5614    4.3764 O   0  5  0  0  0  0  0  0  0  0  0  0
   -0.5836    0.2566    4.8514 O   0  0  0  0  0  0  0  0  0  0  0  0
    0.8486   -0.0887   -0.9485 C   0  0  0  0  0  0  0  0  0  0  0  0
    1.9880   -0.4982   -0.7667 O   0  0  0  0  0  0  0  0  0  0  0  0
    0.4774    0.2450   -2.2396 N   0  0  0  0  0  0  0  0  0  0  0  0
   -0.5054    0.4547   -2.3719 H   0  0  0  0  0  0  0  0  0  0  0  0
    1.2818   -0.0897   -3.4064 C   0  0  0  0  0  0  0  0  0  0  0  0
    1.4205   -1.1735   -3.4769 H   0  0  0  0  0  0  0  0  0  0  0  0
    0.7849    0.2578   -4.3169 H   0  0  0  0  0  0  0  0  0  0  0  0
    2.2640    0.3901   -3.3456 H   0  0  0  0  0  0  0  0  0  0  0  0
  1  2  1  0  0  0  0
  2  3  1  0  0  0  0
  2  4  1  0  0  0  0
  2  5  1  0  0  0  0
  5  6  2  0  0  0  0
  5  7  1  0  0  0  0
  7  8  1  0  0  0  0
  7  9  1  0  0  0  0
  9 10  1  0  0  0  0
  9 11  1  0  0  0  0
  9 20  1  0  0  0  0
 11 12  1  0  0  0  0
 11 13  1  0  0  0  0
 11 14  1  0  0  0  0
 14 15  1  0  0  0  0
 14 16  1  0  0  0  0
 14 17  1  0  0  0  0
 17 18  1  0  0  0  0
 17 19  2  0  0  0  0
 20 21  2  0  0  0  0
 20 22  1  0  0  0  0
 22 23  1  0  0  0  0
 22 24  1  0  0  0  0
 24 25  1  0  0  0  0
 24 26  1  0  0  0  0
 24 27  1  0  0  0  0
M  CHG  1  18  -1
M  END
$$$$

  -OEChem-01062216073D

 27 26  0     1  0  0  0  0  0999 V2000
   -3.2861   -2.7846    1.4773 H   0  0  0  0  0  0  0  0  0  0  0  0
   -3.1743   -1.7475    1.1484 C   0  0  0  0  0  0  0  0  0  0  0  0
   -3.3582   -1.0895    2.0020 H   0  0  0  0  0  0  0  0  0  0  0  0
   -3.9126   -1.5417    0.3699 H   0  0  0  0  0  0  0  0  0  0  0  0
   -1.7720   -1.5157    0.6150 C   0  0  0  0  0  0  0  0  0  0  0  0
   -0.9943   -2.4509    0.5351 O   0  0  0  0  0  0  0  0  0  0  0  0
   -1.4502   -0.2849    0.0744 N   0  0  0  0  0  0  0  0  0  0  0  0
   -2.2089    0.3794    0.1842 H   0  0  0  0  0  0  0  0  0  0  0  0
   -0.1044    0.3168    0.2029 C   0  0  1  0  0  0  0  0  0  0  0  0
   -0.2251    1.3936    0.0592 H   0  0  0  0  0  0  0  0  0  0  0  0
    0.4824    0.1813    1.6263 C   0  0  0  0  0  0  0  0  0  0  0  0
    0.5101   -0.8634    1.9507 H   0  0  0  0  0  0  0  0  0  0  0  0
    1.5150    0.5469    1.6326 H   0  0  0  0  0  0  0  0  0  0  0  0
   -0.3508    1.0333    2.6063 C   0  0  0  0  0  0  0  0  0  0  0  0
   -0.3172    2.0829    2.3002 H   0  0  0  0  0  0  0  0  0  0  0  0
   -1.3965    0.7147    2.5812 H   0  0  0  0  0  0  0  0  0  0  0  0
    0.1539    0.9328    4.0444 C   0  0  0  0  0  0  0  0  0  0  0  0
    1.1983    1.5645    4.3391 O   0  5  0  0  0  0  0  0  0  0  0  0
   -0.5549    0.2938    4.8615 O   0  0  0  0  0  0  0  0  0  0  0  0
    0.8367   -0.0889   -0.9553 C   0  0  0  0  0  0  0  0  0  0  0  0
    1.8578   -0.7422   -0.7866 O   0  0  0  0  0  0  0  0  0  0  0  0
    0.6448    0.4974   -2.1952 N   0  0  0  0  0  0  0  0  0  0  0  0
   -0.2399    0.9695   -2.3406 H   0  0  0  0  0  0  0  0  0  0  0  0
    1.4892    0.2167   -3.3482 C   0  0  0  0  0  0  0  0  0  0  0  0
    1.4721   -0.8526   -3.5832 H   0  0  0  0  0  0  0  0  0  0  0  0
    1.1305    0.7702   -4.2209 H   0  0  0  0  0  0  0  0  0  0  0  0
    2.5225    0.5190   -3.1485 H   0  0  0  0  0  0  0  0  0  0  0  0
  1  2  1  0  0  0  0
  2  3  1  0  0  0  0
  2  4  1  0  0  0  0
  2  5  1  0  0  0  0
  5  6  2  0  0  0  0
  5  7  1  0  0  0  0
  7  8  1  0  0  0  0
  7  9  1  0  0  0  0
  9 10  1  0  0  0  0
  9 11  1  0  0  0  0
  9 20  1  0  0  0  0
 11 12  1  0  0  0  0
 11 13  1  0  0  0  0
 11 14  1  0  0  0  0
 14 15  1  0  0  0  0
 14 16  1  0  0  0  0
 14 17  1  0  0  0  0
 17 18  1  0  0  0  0
 17 19  2  0  0  0  0
 20 21  2  0  0  0  0
 20 22  1  0  0  0  0
 22 23  1  0  0  0  0
 22 24  1  0  0  0  0
 24 25  1  0  0  0  0
 24 26  1  0  0  0  0
 24 27  1  0  0  0  0
M  CHG  1  18  -1
M  END
$$$$

  -OEChem-01062216073D

 27 26  0     1  0  0  0  0  0999 V2000
   -3.3257   -2.8112    1.4754 H   0  0  0  0  0  0  0  0  0  0  0  0
   -3.2205   -1.7880    1.1033 C   0  0  0  0  0  0  0  0  0  0  0  0
   -3.4692   -1.0954    1.9119 H   0  0  0  0  0  0  0  0  0  0  0  0
   -3.9171   -1.6392    0.2749 H   0  0  0  0  0  0  0  0  0  0  0  0
   -1.7958   -1.5441    0.6382 C   0  0  0  0  0  0  0  0  0  0  0  0
   -1.0012   -2.4676    0.6421 O   0  0  0  0  0  0  0  0  0  0  0  0
   -1.4710   -0.3143    0.0954 N   0  0  0  0  0  0  0  0  0  0  0  0
   -2.2389    0.3448    0.1589 H   0  0  0  0  0  0  0  0  0  0  0  0
   -0.1274    0.2967    0.1994 C   0  0  1  0  0  0  0  0  0  0  0  0
   -0.2706    1.3706    0.0572 H   0  0  0  0  0  0  0  0  0  0  0  0
    0.4913    0.1842    1.6096 C   0  0  0  0  0  0  0  0  0  0  0  0
    0.5316   -0.8562    1.9463 H   0  0  0  0  0  0  0  0  0  0  0  0
    1.5219    0.5543    1.5872 H   0  0  0  0  0  0  0  0  0  0  0  0
   -0.3265    1.0421    2.5978 C   0  0  0  0  0  0  0  0  0  0  0  0
   -0.3067    2.0883    2.2791 H   0  0  0  0  0  0  0  0  0  0  0  0
   -1.3699    0.7145    2.5982 H   0  0  0  0  0  0  0  0  0  0  0  0
    0.2094    0.9661    4.0262 C   0  0  0  0  0  0  0  0  0  0  0  0
    1.3184    1.5080    4.2580 O   0  5  0  0  0  0  0  0  0  0  0  0
   -0.5358    0.4529    4.8976 O   0  0  0  0  0  0  0  0  0  0  0  0
    0.8153   -0.0917   -0.9646 C   0  0  0  0  0  0  0  0  0  0  0  0
    1.6578   -0.9743   -0.8762 O   0  0  0  0  0  0  0  0  0  0  0  0
    0.8319    0.7004   -2.1015 N   0  0  0  0  0  0  0  0  0  0  0  0
    0.1468    1.4443   -2.1612 H   0  0  0  0  0  0  0  0  0  0  0  0
    1.7411    0.4852   -3.2189 C   0  0  0  0  0  0  0  0  0  0  0  0
    1.6029   -0.5171   -3.6372 H   0  0  0  0  0  0  0  0  0  0  0  0
    1.5483    1.2188   -4.0071 H   0  0  0  0  0  0  0  0  0  0  0  0
    2.7805    0.5926   -2.8921 H   0  0  0  0  0  0  0  0  0  0  0  0
  1  2  1  0  0  0  0
  2  3  1  0  0  0  0
  2  4  1  0  0  0  0
  2  5  1  0  0  0  0
  5  6  2  0  0  0  0
  5  7  1  0  0  0  0
  7  8  1  0  0  0  0
  7  9  1  0  0  0  0
  9 10  1  0  0  0  0
  9 11  1  0  0  0  0
  9 20  1  0  0  0  0
 11 12  1  0  0  0  0
 11 13  1  0  0  0  0
 11 14  1  0  0  0  0
 14 15  1  0  0  0  0
 14 16  1  0  0  0  0
 14 17  1  0  0  0  0
 17 18  1  0  0  0  0
 17 19  2  0  0  0  0
 20 21  2  0  0  0  0
 20 22  1  0  0  0  0
 22 23  1  0  0  0  0
 22 24  1  0  0  0  0
 24 25  1  0  0  0  0
 24 26  1  0  0  0  0
 24 27  1  0  0  0  0
M  CHG  1  18  -1
M  END
$$$$

  -OEChem-01062216073D

 27 26  0     1  0  0  0  0  0999 V2000
   -3.3870   -2.8436    1.4094 H   0  0  0  0  0  0  0  0  0  0  0  0
   -3.2764   -1.8422    0.9837 C   0  0  0  0  0  0  0  0  0  0  0  0
   -3.6450   -1.1124    1.7091 H   0  0  0  0  0  0  0  0  0  0  0  0
   -3.8752   -1.7779    0.0723 H   0  0  0  0  0  0  0  0  0  0  0  0
   -1.8166   -1.5652    0.6701 C   0  0  0  0  0  0  0  0  0  0  0  0
   -1.0018   -2.4560    0.8308 O   0  0  0  0  0  0  0  0  0  0  0  0
   -1.4799   -0.3348    0.1340 N   0  0  0  0  0  0  0  0  0  0  0  0
   -2.2610    0.3100    0.0979 H   0  0  0  0  0  0  0  0  0  0  0  0
   -0.1416    0.2904    0.2178 C   0  0  1  0  0  0  0  0  0  0  0  0
   -0.3172    1.3588    0.0748 H   0  0  0  0  0  0  0  0  0  0  0  0
    0.5172    0.2065    1.6101 C   0  0  0  0  0  0  0  0  0  0  0  0
    0.5815   -0.8283    1.9587 H   0  0  0  0  0  0  0  0  0  0  0  0
    1.5415    0.5898    1.5528 H   0  0  0  0  0  0  0  0  0  0  0  0
   -0.2822    1.0647    2.6126 C   0  0  0  0  0  0  0  0  0  0  0  0
   -0.2882    2.1071    2.2814 H   0  0  0  0  0  0  0  0  0  0  0  0
   -1.3195    0.7194    2.6473 H   0  0  0  0  0  0  0  0  0  0  0  0
    0.2979    1.0147    4.0255 C   0  0  0  0  0  0  0  0  0  0  0  0
    1.4505    1.4861    4.1920 O   0  5  0  0  0  0  0  0  0  0  0  0
   -0.4506    0.6061    4.9477 O   0  0  0  0  0  0  0  0  0  0  0  0
    0.8043   -0.0732   -0.9521 C   0  0  0  0  0  0  0  0  0  0  0  0
    1.3633   -1.1561   -1.0514 O   0  0  0  0  0  0  0  0  0  0  0  0
    1.0473    0.8703   -1.9379 N   0  0  0  0  0  0  0  0  0  0  0  0
    0.6634    1.7976   -1.7973 H   0  0  0  0  0  0  0  0  0  0  0  0
    1.9780    0.6565   -3.0376 C   0  0  0  0  0  0  0  0  0  0  0  0
    1.6831   -0.2196   -3.6243 H   0  0  0  0  0  0  0  0  0  0  0  0
    1.9844    1.5279   -3.6989 H   0  0  0  0  0  0  0  0  0  0  0  0
    2.9924    0.5021   -2.6558 H   0  0  0  0  0  0  0  0  0  0  0  0
  1  2  1  0  0  0  0
  2  3  1  0  0  0  0
  2  4  1  0  0  0  0
  2  5  1  0  0  0  0
  5  6  2  0  0  0  0
  5  7  1  0  0  0  0
  7  8  1  0  0  0  0
  7  9  1  0  0  0  0
  9 10  1  0  0  0  0
  9 11  1  0  0  0  0
  9 20  1  0  0  0  0
 11 12  1  0  0  0  0
 11 13  1  0  0  0  0
 11 14  1  0  0  0  0
 14 15  1  0  0  0  0
 14 16  1  0  0  0  0
 14 17  1  0  0  0  0
 17 18  1  0  0  0  0
 17 19  2  0  0  0  0
 20 21  2  0  0  0  0
 20 22  1  0  0  0  0
 22 23  1  0  0  0  0
 22 24  1  0  0  0  0
 24 25  1  0  0  0  0
 24 26  1  0  0  0  0
 24 27  1  0  0  0  0
M  CHG  1  18  -1
M  END
$$$$

  -OEChem-01062216073D

 27 26  0     1  0  0  0  0  0999 V2000
   -3.4310   -2.8872    1.2874 H   0  0  0  0  0  0  0  0  0  0  0  0
   -3.3006   -1.9007    0.8333 C   0  0  0  0  0  0  0  0  0  0  0  0
   -3.7945   -1.1576    1.4645 H   0  0  0  0  0  0  0  0  0  0  0  0
   -3.7686   -1.9021   -0.1539 H   0  0  0  0  0  0  0  0  0  0  0  0
   -1.8230   -1.5719    0.7081 C   0  0  0  0  0  0  0  0  0  0  0  0
   -1.0065   -2.4151    1.0354 O   0  0  0  0  0  0  0  0  0  0  0  0
   -1.4700   -0.3421    0.1808 N   0  0  0  0  0  0  0  0  0  0  0  0
   -2.2529    0.2737   -0.0046 H   0  0  0  0  0  0  0  0  0  0  0  0
   -0.1347    0.2881    0.2609 C   0  0  1  0  0  0  0  0  0  0  0  0
   -0.3320    1.3515    0.1089 H   0  0  0  0  0  0  0  0  0  0  0  0
    0.5489    0.2336    1.6418 C   0  0  0  0  0  0  0  0  0  0  0  0
    0.6308   -0.7942    2.0057 H   0  0  0  0  0  0  0  0  0  0  0  0
    1.5683    0.6257    1.5592 H   0  0  0  0  0  0  0  0  0  0  0  0
   -0.2369    1.1004    2.6468 C   0  0  0  0  0  0  0  0  0  0  0  0
   -0.2589    2.1374    2.3005 H   0  0  0  0  0  0  0  0  0  0  0  0
   -1.2698    0.7442    2.7066 H   0  0  0  0  0  0  0  0  0  0  0  0
    0.3737    1.0758    4.0476 C   0  0  0  0  0  0  0  0  0  0  0  0
    1.5605    1.4727    4.1637 O   0  5  0  0  0  0  0  0  0  0  0  0
   -0.3769    0.7693    5.0066 O   0  0  0  0  0  0  0  0  0  0  0  0
    0.8156   -0.0629   -0.9089 C   0  0  0  0  0  0  0  0  0  0  0  0
    1.0085   -1.2102   -1.2881 O   0  0  0  0  0  0  0  0  0  0  0  0
    1.3017    0.9634   -1.7031 N   0  0  0  0  0  0  0  0  0  0  0  0
    1.2281    1.9031   -1.3278 H   0  0  0  0  0  0  0  0  0  0  0  0
    2.1804    0.7384   -2.8429 C   0  0  0  0  0  0  0  0  0  0  0  0
    1.6860    0.1078   -3.5890 H   0  0  0  0  0  0  0  0  0  0  0  0
    2.4371    1.6919   -3.3139 H   0  0  0  0  0  0  0  0  0  0  0  0
    3.1055    0.2487   -2.5218 H   0  0  0  0  0  0  0  0  0  0  0  0
  1  2  1  0  0  0  0
  2  3  1  0  0  0  0
  2  4  1  0  0  0  0
  2  5  1  0  0  0  0
  5  6  2  0  0  0  0
  5  7  1  0  0  0  0
  7  8  1  0  0  0  0
  7  9  1  0  0  0  0
  9 10  1  0  0  0  0
  9 11  1  0  0  0  0
  9 20  1  0  0  0  0
 11 12  1  0  0  0  0
 11 13  1  0  0  0  0
 11 14  1  0  0  0  0
 14 15  1  0  0  0  0
 14 16  1  0  0  0  0
 14 17  1  0  0  0  0
 17 18  1  0  0  0  0
 17 19  2  0  0  0  0
 20 21  2  0  0  0  0
 20 22  1  0  0  0  0
 22 23  1  0  0  0  0
 22 24  1  0  0  0  0
 24 25  1  0  0  0  0
 24 26  1  0  0  0  0
 24 27  1  0  0  0  0
M  CHG  1  18  -1
M  END
$$$$

  -OEChem-01062216073D

 27 26  0     1  0  0  0  0  0999 V2000
   -3.4500   -2.9034    1.2405 H   0  0  0  0  0  0  0  0  0  0  0  0
   -3.3128   -1.9254    0.7703 C   0  0  0  0  0  0  0  0  0  0  0  0
   -3.8613   -1.1788    1.3501 H   0  0  0  0  0  0  0  0  0  0  0  0
   -3.7172   -1.9617   -0.2441 H   0  0  0  0  0  0  0  0  0  0  0  0
   -1.8376   -1.5660    0.7281 C   0  0  0  0  0  0  0  0  0  0  0  0
   -1.0236   -2.3849    1.1196 O   0  0  0  0  0  0  0  0  0  0  0  0
   -1.4771   -0.3394    0.2001 N   0  0  0  0  0  0  0  0  0  0  0  0
   -2.2500    0.2526   -0.0795 H   0  0  0  0  0  0  0  0  0  0  0  0
   -0.1400    0.2864    0.2768 C   0  0  1  0  0  0  0  0  0  0  0  0
   -0.3398    1.3483    0.1148 H   0  0  0  0  0  0  0  0  0  0  0  0
    0.5581    0.2443    1.6506 C   0  0  0  0  0  0  0  0  0  0  0  0
    0.6449   -0.7800    2.0225 H   0  0  0  0  0  0  0  0  0  0  0  0
    1.5768    0.6344    1.5530 H   0  0  0  0  0  0  0  0  0  0  0  0
   -0.2108    1.1186    2.6603 C   0  0  0  0  0  0  0  0  0  0  0  0
   -0.2371    2.1535    2.3077 H   0  0  0  0  0  0  0  0  0  0  0  0
   -1.2425    0.7627    2.7383 H   0  0  0  0  0  0  0  0  0  0  0  0
    0.4241    1.0994    4.0510 C   0  0  0  0  0  0  0  0  0  0  0  0
    1.6303    1.4437    4.1354 O   0  5  0  0  0  0  0  0  0  0  0  0
   -0.3204    0.8502    5.0310 O   0  0  0  0  0  0  0  0  0  0  0  0
    0.8120   -0.0652   -0.8902 C   0  0  0  0  0  0  0  0  0  0  0  0
    0.7459   -1.1272   -1.4974 O   0  0  0  0  0  0  0  0  0  0  0  0
    1.5412    0.9583   -1.4732 N   0  0  0  0  0  0  0  0  0  0  0  0
    1.6693    1.7930   -0.9090 H   0  0  0  0  0  0  0  0  0  0  0  0
    2.4272    0.7529   -2.6109 C   0  0  0  0  0  0  0  0  0  0  0  0
    1.8632    0.3900   -3.4762 H   0  0  0  0  0  0  0  0  0  0  0  0
    2.9096    1.6956   -2.8854 H   0  0  0  0  0  0  0  0  0  0  0  0
    3.2048    0.0232   -2.3631 H   0  0  0  0  0  0  0  0  0  0  0  0
  1  2  1  0  0  0  0
  2  3  1  0  0  0  0
  2  4  1  0  0  0  0
  2  5  1  0  0  0  0
  5  6  2  0  0  0  0
  5  7  1  0  0  0  0
  7  8  1  0  0  0  0
  7  9  1  0  0  0  0
  9 10  1  0  0  0  0
  9 11  1  0  0  0  0
  9 20  1  0  0  0  0
 11 12  1  0  0  0  0
 11 13  1  0  0  0  0
 11 14  1  0  0  0  0
 14 15  1  0  0  0  0
 14 16  1  0  0  0  0
 14 17  1  0  0  0  0
 17 18  1  0  0  0  0
 17 19  2  0  0  0  0
 20 21  2  0  0  0  0
 20 22  1  0  0  0  0
 22 23  1  0  0  0  0
 22 24  1  0  0  0  0
 24 25  1  0  0  0  0
 24 26  1  0  0  0  0
 24 27  1  0  0  0  0
M  CHG  1  18  -1
M  END
$$$$

  -OEChem-01062216073D

 27 26  0     1  0  0  0  0  0999 V2000
   -3.4382   -2.9026    1.2384 H   0  0  0  0  0  0  0  0  0  0  0  0
   -3.3075   -1.9169    0.7828 C   0  0  0  0  0  0  0  0  0  0  0  0
   -3.8426   -1.1790    1.3857 H   0  0  0  0  0  0  0  0  0  0  0  0
   -3.7312   -1.9342   -0.2242 H   0  0  0  0  0  0  0  0  0  0  0  0
   -1.8326   -1.5603    0.7188 C   0  0  0  0  0  0  0  0  0  0  0  0
   -1.0104   -2.3847    1.0826 O   0  0  0  0  0  0  0  0  0  0  0  0
   -1.4747   -0.3335    0.1909 N   0  0  0  0  0  0  0  0  0  0  0  0
   -2.2466    0.2592   -0.0903 H   0  0  0  0  0  0  0  0  0  0  0  0
   -0.1373    0.2901    0.2720 C   0  0  1  0  0  0  0  0  0  0  0  0
   -0.3305    1.3524    0.1038 H   0  0  0  0  0  0  0  0  0  0  0  0
    0.5520    0.2463    1.6514 C   0  0  0  0  0  0  0  0  0  0  0  0
    0.6324   -0.7783    2.0236 H   0  0  0  0  0  0  0  0  0  0  0  0
    1.5725    0.6328    1.5623 H   0  0  0  0  0  0  0  0  0  0  0  0
   -0.2170    1.1209    2.6604 C   0  0  0  0  0  0  0  0  0  0  0  0
   -0.2367    2.1569    2.3111 H   0  0  0  0  0  0  0  0  0  0  0  0
   -1.2508    0.7705    2.7349 H   0  0  0  0  0  0  0  0  0  0  0  0
    0.4165    1.0933    4.0517 C   0  0  0  0  0  0  0  0  0  0  0  0
    1.6275    1.4203    4.1360 O   0  5  0  0  0  0  0  0  0  0  0  0
   -0.3294    0.8478    5.0314 O   0  0  0  0  0  0  0  0  0  0  0  0
    0.8179   -0.0622   -0.8917 C   0  0  0  0  0  0  0  0  0  0  0  0
    0.5821   -0.9715   -1.6797 O   0  0  0  0  0  0  0  0  0  0  0  0
    1.7714    0.8719   -1.2604 N   0  0  0  0  0  0  0  0  0  0  0  0
    2.0156    1.5608   -0.5541 H   0  0  0  0  0  0  0  0  0  0  0  0
    2.6825    0.6782   -2.3800 C   0  0  0  0  0  0  0  0  0  0  0  0
    2.1239    0.5731   -3.3158 H   0  0  0  0  0  0  0  0  0  0  0  0
    3.3506    1.5394   -2.4729 H   0  0  0  0  0  0  0  0  0  0  0  0
    3.2906   -0.2193   -2.2273 H   0  0  0  0  0  0  0  0  0  0  0  0
  1  2  1  0  0  0  0
  2  3  1  0  0  0  0
  2  4  1  0  0  0  0
  2  5  1  0  0  0  0
  5  6  2  0  0  0  0
  5  7  1  0  0  0  0
  7  8  1  0  0  0  0
  7  9  1  0  0  0  0
  9 10  1  0  0  0  0
  9 11  1  0  0  0  0
  9 20  1  0  0  0  0
 11 12  1  0  0  0  0
 11 13  1  0  0  0  0
 11 14  1  0  0  0  0
 14 15  1  0  0  0  0
 14 16  1  0  0  0  0
 14 17  1  0  0  0  0
 17 18  1  0  0  0  0
 17 19  2  0  0  0  0
 20 21  2  0  0  0  0
 20 22  1  0  0  0  0
 22 23  1  0  0  0  0
 22 24  1  0  0  0  0
 24 25  1  0  0  0  0
 24 26  1  0  0  0  0
 24 27  1  0  0  0  0
M  CHG  1  18  -1
M  END
$$$$

  -OEChem-01062216073D

 27 26  0     1  0  0  0  0  0999 V2000
   -3.4138   -2.8878    1.2598 H   0  0  0  0  0  0  0  0  0  0  0  0
   -3.2900   -1.9062    0.7936 C   0  0  0  0  0  0  0  0  0  0  0  0
   -3.8209   -1.1636    1.3945 H   0  0  0  0  0  0  0  0  0  0  0  0
   -3.7230   -1.9340   -0.2092 H   0  0  0  0  0  0  0  0  0  0  0  0
   -1.8171   -1.5462    0.7119 C   0  0  0  0  0  0  0  0  0  0  0  0
   -0.9862   -2.3748    1.0464 O   0  0  0  0  0  0  0  0  0  0  0  0
   -1.4658   -0.3170    0.1864 N   0  0  0  0  0  0  0  0  0  0  0  0
   -2.2408    0.2756   -0.0871 H   0  0  0  0  0  0  0  0  0  0  0  0
   -0.1318    0.3135    0.2727 C   0  0  1  0  0  0  0  0  0  0  0  0
   -0.3183    1.3777    0.1076 H   0  0  0  0  0  0  0  0  0  0  0  0
    0.5474    0.2553    1.6592 C   0  0  0  0  0  0  0  0  0  0  0  0
    0.6299   -0.7732    2.0200 H   0  0  0  0  0  0  0  0  0  0  0  0
    1.5668    0.6470    1.5889 H   0  0  0  0  0  0  0  0  0  0  0  0
   -0.2321    1.1142    2.6730 C   0  0  0  0  0  0  0  0  0  0  0  0
   -0.2529    2.1543    2.3361 H   0  0  0  0  0  0  0  0  0  0  0  0
   -1.2652    0.7594    2.7359 H   0  0  0  0  0  0  0  0  0  0  0  0
    0.3928    1.0694    4.0677 C   0  0  0  0  0  0  0  0  0  0  0  0
    1.6089    1.3748    4.1615 O   0  5  0  0  0  0  0  0  0  0  0  0
   -0.3619    0.8243    5.0406 O   0  0  0  0  0  0  0  0  0  0  0  0
    0.8197   -0.0408   -0.8939 C   0  0  0  0  0  0  0  0  0  0  0  0
    0.4693   -0.7675   -1.8183 O   0  0  0  0  0  0  0  0  0  0  0  0
    1.9590    0.7241   -1.0767 N   0  0  0  0  0  0  0  0  0  0  0  0
    2.2718    1.2574   -0.2694 H   0  0  0  0  0  0  0  0  0  0  0  0
    2.8974    0.5062   -2.1685 C   0  0  0  0  0  0  0  0  0  0  0  0
    2.4059    0.6622   -3.1343 H   0  0  0  0  0  0  0  0  0  0  0  0
    3.7332    1.2078   -2.0901 H   0  0  0  0  0  0  0  0  0  0  0  0
    3.2947   -0.5134   -2.1331 H   0  0  0  0  0  0  0  0  0  0  0  0
  1  2  1  0  0  0  0
  2  3  1  0  0  0  0
  2  4  1  0  0  0  0
  2  5  1  0  0  0  0
  5  6  2  0  0  0  0
  5  7  1  0  0  0  0
  7  8  1  0  0  0  0
  7  9  1  0  0  0  0
  9 10  1  0  0  0  0
  9 11  1  0  0  0  0
  9 20  1  0  0  0  0
 11 12  1  0  0  0  0
 11 13  1  0  0  0  0
 11 14  1  0  0  0  0
 14 15  1  0  0  0  0
 14 16  1  0  0  0  0
 14 17  1  0  0  0  0
 17 18  1  0  0  0  0
 17 19  2  0  0  0  0
 20 21  2  0  0  0  0
 20 22  1  0  0  0  0
 22 23  1  0  0  0  0
 22 24  1  0  0  0  0
 24 25  1  0  0  0  0
 24 26  1  0  0  0  0
 24 27  1  0  0  0  0
M  CHG  1  18  -1
M  END
$$$$

  -OEChem-01062216073D

 27 26  0     1  0  0  0  0  0999 V2000
   -3.5013   -2.8926    1.1102 H   0  0  0  0  0  0  0  0  0  0  0  0
   -3.3270   -1.9122    0.6576 C   0  0  0  0  0  0  0  0  0  0  0  0
   -3.9134   -1.1670    1.2008 H   0  0  0  0  0  0  0  0  0  0  0  0
   -3.6572   -1.9398   -0.3837 H   0  0  0  0  0  0  0  0  0  0  0  0
   -1.8517   -1.5577    0.7243 C   0  0  0  0  0  0  0  0  0  0  0  0
   -1.0657   -2.4029    1.1153 O   0  0  0  0  0  0  0  0  0  0  0  0
   -1.4517   -0.3335    0.2228 N   0  0  0  0  0  0  0  0  0  0  0  0
   -2.1781    0.1943   -0.2480 H   0  0  0  0  0  0  0  0  0  0  0  0
   -0.1208    0.3109    0.3050 C   0  0  1  0  0  0  0  0  0  0  0  0
   -0.3336    1.3777    0.4114 H   0  0  0  0  0  0  0  0  0  0  0  0
    0.7559   -0.0141    1.5385 C   0  0  0  0  0  0  0  0  0  0  0  0
    0.9236   -1.0895    1.6364 H   0  0  0  0  0  0  0  0  0  0  0  0
    1.7420    0.4444    1.4232 H   0  0  0  0  0  0  0  0  0  0  0  0
    0.1263    0.5555    2.8244 C   0  0  0  0  0  0  0  0  0  0  0  0
    0.0356    1.6419    2.7391 H   0  0  0  0  0  0  0  0  0  0  0  0
   -0.8778    0.1412    2.9530 H   0  0  0  0  0  0  0  0  0  0  0  0
    0.9559    0.2354    4.0706 C   0  0  0  0  0  0  0  0  0  0  0  0
    2.1983    0.4231    4.0021 O   0  5  0  0  0  0  0  0  0  0  0  0
    0.3386   -0.0844    5.1163 O   0  0  0  0  0  0  0  0  0  0  0  0
    0.6507    0.2476   -1.0348 C   0  0  0  0  0  0  0  0  0  0  0  0
    0.0799   -0.0680   -2.0752 O   0  0  0  0  0  0  0  0  0  0  0  0
    1.9153    0.8011   -1.1348 N   0  0  0  0  0  0  0  0  0  0  0  0
    2.3927    0.9961   -0.2576 H   0  0  0  0  0  0  0  0  0  0  0  0
    2.6869    0.8264   -2.3691 C   0  0  0  0  0  0  0  0  0  0  0  0
    2.1568    1.3931   -3.1413 H   0  0  0  0  0  0  0  0  0  0  0  0
    3.6557    1.3041   -2.1958 H   0  0  0  0  0  0  0  0  0  0  0  0
    2.8608   -0.1916   -2.7321 H   0  0  0  0  0  0  0  0  0  0  0  0
  1  2  1  0  0  0  0
  2  3  1  0  0  0  0
  2  4  1  0  0  0  0
  2  5  1  0  0  0  0
  5  6  2  0  0  0  0
  5  7  1  0  0  0  0
  7  8  1  0  0  0  0
  7  9  1  0  0  0  0
  9 10  1  0  0  0  0
  9 11  1  0  0  0  0
  9 20  1  0  0  0  0
 11 12  1  0  0  0  0
 11 13  1  0  0  0  0
 11 14  1  0  0  0  0
 14 15  1  0  0  0  0
 14 16  1  0  0  0  0
 14 17  1  0  0  0  0
 17 18  1  0  0  0  0
 17 19  2  0  0  0  0
 20 21  2  0  0  0  0
 20 22  1  0  0  0  0
 22 23  1  0  0  0  0
 22 24  1  0  0  0  0
 24 25  1  0  0  0  0
 24 26  1  0  0  0  0
 24 27  1  0  0  0  0
M  CHG  1  18  -1
M  END
$$$$

  -OEChem-01062216073D

 27 26  0     1  0  0  0  0  0999 V2000
   -3.4628   -2.8873    1.1360 H   0  0  0  0  0  0  0  0  0  0  0  0
   -3.3020   -1.8960    0.7028 C   0  0  0  0  0  0  0  0  0  0  0  0
   -3.8469   -1.1608    1.3002 H   0  0  0  0  0  0  0  0  0  0  0  0
   -3.6916   -1.8889   -0.3180 H   0  0  0  0  0  0  0  0  0  0  0  0
   -1.8208   -1.5599    0.6955 C   0  0  0  0  0  0  0  0  0  0  0  0
   -1.0209   -2.4246    1.0097 O   0  0  0  0  0  0  0  0  0  0  0  0
   -1.4293   -0.3304    0.2009 N   0  0  0  0  0  0  0  0  0  0  0  0
   -2.1757    0.2308   -0.1942 H   0  0  0  0  0  0  0  0  0  0  0  0
   -0.1043    0.3222    0.3042 C   0  0  1  0  0  0  0  0  0  0  0  0
   -0.3171    1.3893    0.4099 H   0  0  0  0  0  0  0  0  0  0  0  0
    0.7469   -0.0117    1.5542 C   0  0  0  0  0  0  0  0  0  0  0  0
    0.9199   -1.0868    1.6466 H   0  0  0  0  0  0  0  0  0  0  0  0
    1.7305    0.4581    1.4668 H   0  0  0  0  0  0  0  0  0  0  0  0
    0.0886    0.5451    2.8313 C   0  0  0  0  0  0  0  0  0  0  0  0
   -0.0028    1.6319    2.7534 H   0  0  0  0  0  0  0  0  0  0  0  0
   -0.9169    0.1275    2.9351 H   0  0  0  0  0  0  0  0  0  0  0  0
    0.8910    0.2160    4.0929 C   0  0  0  0  0  0  0  0  0  0  0  0
    2.1377    0.3806    4.0486 O   0  5  0  0  0  0  0  0  0  0  0  0
    0.2479   -0.0988    5.1245 O   0  0  0  0  0  0  0  0  0  0  0  0
    0.6731    0.2588   -1.0330 C   0  0  0  0  0  0  0  0  0  0  0  0
    0.0680    0.1650   -2.0976 O   0  0  0  0  0  0  0  0  0  0  0  0
    2.0306    0.5231   -1.0818 N   0  0  0  0  0  0  0  0  0  0  0  0
    2.5209    0.5378   -0.1903 H   0  0  0  0  0  0  0  0  0  0  0  0
    2.8128    0.5026   -2.3095 C   0  0  0  0  0  0  0  0  0  0  0  0
    2.4448    1.2579   -3.0113 H   0  0  0  0  0  0  0  0  0  0  0  0
    3.8624    0.7190   -2.0889 H   0  0  0  0  0  0  0  0  0  0  0  0
    2.7538   -0.4821   -2.7845 H   0  0  0  0  0  0  0  0  0  0  0  0
  1  2  1  0  0  0  0
  2  3  1  0  0  0  0
  2  4  1  0  0  0  0
  2  5  1  0  0  0  0
  5  6  2  0  0  0  0
  5  7  1  0  0  0  0
  7  8  1  0  0  0  0
  7  9  1  0  0  0  0
  9 10  1  0  0  0  0
  9 11  1  0  0  0  0
  9 20  1  0  0  0  0
 11 12  1  0  0  0  0
 11 13  1  0  0  0  0
 11 14  1  0  0  0  0
 14 15  1  0  0  0  0
 14 16  1  0  0  0  0
 14 17  1  0  0  0  0
 17 18  1  0  0  0  0
 17 19  2  0  0  0  0
 20 21  2  0  0  0  0
 20 22  1  0  0  0  0
 22 23  1  0  0  0  0
 22 24  1  0  0  0  0
 24 25  1  0  0  0  0
 24 26  1  0  0  0  0
 24 27  1  0  0  0  0
M  CHG  1  18  -1
M  END
$$$$

  -OEChem-01062216073D

 27 26  0     1  0  0  0  0  0999 V2000
   -3.4392   -2.8738    1.1645 H   0  0  0  0  0  0  0  0  0  0  0  0
   -3.2872   -1.8816    0.7302 C   0  0  0  0  0  0  0  0  0  0  0  0
   -3.8064   -1.1456    1.3492 H   0  0  0  0  0  0  0  0  0  0  0  0
   -3.7117   -1.8672   -0.2765 H   0  0  0  0  0  0  0  0  0  0  0  0
   -1.8051   -1.5554    0.6740 C   0  0  0  0  0  0  0  0  0  0  0  0
   -0.9981   -2.4304    0.9387 O   0  0  0  0  0  0  0  0  0  0  0  0
   -1.4186   -0.3240    0.1814 N   0  0  0  0  0  0  0  0  0  0  0  0
   -2.1747    0.2583   -0.1616 H   0  0  0  0  0  0  0  0  0  0  0  0
   -0.0972    0.3308    0.3039 C   0  0  1  0  0  0  0  0  0  0  0  0
   -0.3083    1.3984    0.4076 H   0  0  0  0  0  0  0  0  0  0  0  0
    0.7375   -0.0079    1.5634 C   0  0  0  0  0  0  0  0  0  0  0  0
    0.9141   -1.0826    1.6525 H   0  0  0  0  0  0  0  0  0  0  0  0
    1.7190    0.4689    1.4875 H   0  0  0  0  0  0  0  0  0  0  0  0
    0.0651    0.5393    2.8371 C   0  0  0  0  0  0  0  0  0  0  0  0
   -0.0263    1.6266    2.7654 H   0  0  0  0  0  0  0  0  0  0  0  0
   -0.9413    0.1205    2.9279 H   0  0  0  0  0  0  0  0  0  0  0  0
    0.8555    0.2015    4.1045 C   0  0  0  0  0  0  0  0  0  0  0  0
    2.1061    0.3344    4.0674 O   0  5  0  0  0  0  0  0  0  0  0  0
    0.1994   -0.0989    5.1321 O   0  0  0  0  0  0  0  0  0  0  0  0
    0.6883    0.2618   -1.0268 C   0  0  0  0  0  0  0  0  0  0  0  0
    0.0954    0.3909   -2.0945 O   0  0  0  0  0  0  0  0  0  0  0  0
    2.0709    0.2178   -1.0470 N   0  0  0  0  0  0  0  0  0  0  0  0
    2.5307    0.0461   -0.1555 H   0  0  0  0  0  0  0  0  0  0  0  0
    2.8596    0.1502   -2.2682 C   0  0  0  0  0  0  0  0  0  0  0  0
    2.6752    1.0301   -2.8928 H   0  0  0  0  0  0  0  0  0  0  0  0
    3.9257    0.1173   -2.0245 H   0  0  0  0  0  0  0  0  0  0  0  0
    2.6056   -0.7493   -2.8381 H   0  0  0  0  0  0  0  0  0  0  0  0
  1  2  1  0  0  0  0
  2  3  1  0  0  0  0
  2  4  1  0  0  0  0
  2  5  1  0  0  0  0
  5  6  2  0  0  0  0
  5  7  1  0  0  0  0
  7  8  1  0  0  0  0
  7  9  1  0  0  0  0
  9 10  1  0  0  0  0
  9 11  1  0  0  0  0
  9 20  1  0  0  0  0
 11 12  1  0  0  0  0
 11 13  1  0  0  0  0
 11 14  1  0  0  0  0
 14 15  1  0  0  0  0
 14 16  1  0  0  0  0
 14 17  1  0  0  0  0
 17 18  1  0  0  0  0
 17 19  2  0  0  0  0
 20 21  2  0  0  0  0
 20 22  1  0  0  0  0
 22 23  1  0  0  0  0
 22 24  1  0  0  0  0
 24 25  1  0  0  0  0
 24 26  1  0  0  0  0
 24 27  1  0  0  0  0
M  CHG  1  18  -1
M  END
$$$$

  -OEChem-01062216073D

 27 26  0     1  0  0  0  0  0999 V2000
   -3.3951   -2.8594    1.2236 H   0  0  0  0  0  0  0  0  0  0  0  0
   -3.2606   -1.8562    0.8095 C   0  0  0  0  0  0  0  0  0  0  0  0
   -3.7116   -1.1328    1.4933 H   0  0  0  0  0  0  0  0  0  0  0  0
   -3.7671   -1.8012   -0.1570 H   0  0  0  0  0  0  0  0  0  0  0  0
   -1.7826   -1.5529    0.6394 C   0  0  0  0  0  0  0  0  0  0  0  0
   -0.9686   -2.4464    0.8053 O   0  0  0  0  0  0  0  0  0  0  0  0
   -1.4101   -0.3191    0.1426 N   0  0  0  0  0  0  0  0  0  0  0  0
   -2.1829    0.2957   -0.0877 H   0  0  0  0  0  0  0  0  0  0  0  0
   -0.0903    0.3340    0.2832 C   0  0  1  0  0  0  0  0  0  0  0  0
   -0.2978    1.4028    0.3850 H   0  0  0  0  0  0  0  0  0  0  0  0
    0.7220   -0.0137    1.5539 C   0  0  0  0  0  0  0  0  0  0  0  0
    0.8923   -1.0897    1.6435 H   0  0  0  0  0  0  0  0  0  0  0  0
    1.7065    0.4607    1.4907 H   0  0  0  0  0  0  0  0  0  0  0  0
    0.0276    0.5309    2.8170 C   0  0  0  0  0  0  0  0  0  0  0  0
   -0.0565    1.6189    2.7480 H   0  0  0  0  0  0  0  0  0  0  0  0
   -0.9826    0.1177    2.8872 H   0  0  0  0  0  0  0  0  0  0  0  0
    0.7920    0.1856    4.0976 C   0  0  0  0  0  0  0  0  0  0  0  0
    2.0411    0.3327    4.0933 O   0  5  0  0  0  0  0  0  0  0  0  0
    0.1149   -0.1484    5.1009 O   0  0  0  0  0  0  0  0  0  0  0  0
    0.7109    0.2623   -1.0354 C   0  0  0  0  0  0  0  0  0  0  0  0
    0.1815    0.6044   -2.0889 O   0  0  0  0  0  0  0  0  0  0  0  0
    2.0487   -0.0881   -1.0468 N   0  0  0  0  0  0  0  0  0  0  0  0
    2.4323   -0.4342   -0.1700 H   0  0  0  0  0  0  0  0  0  0  0  0
    2.8437   -0.2055   -2.2597 C   0  0  0  0  0  0  0  0  0  0  0  0
    2.8788    0.7519   -2.7895 H   0  0  0  0  0  0  0  0  0  0  0  0
    3.8676   -0.4988   -2.0095 H   0  0  0  0  0  0  0  0  0  0  0  0
    2.4171   -0.9639   -2.9239 H   0  0  0  0  0  0  0  0  0  0  0  0
  1  2  1  0  0  0  0
  2  3  1  0  0  0  0
  2  4  1  0  0  0  0
  2  5  1  0  0  0  0
  5  6  2  0  0  0  0
  5  7  1  0  0  0  0
  7  8  1  0  0  0  0
  7  9  1  0  0  0  0
  9 10  1  0  0  0  0
  9 11  1  0  0  0  0
  9 20  1  0  0  0  0
 11 12  1  0  0  0  0
 11 13  1  0  0  0  0
 11 14  1  0  0  0  0
 14 15  1  0  0  0  0
 14 16  1  0  0  0  0
 14 17  1  0  0  0  0
 17 18  1  0  0  0  0
 17 19  2  0  0  0  0
 20 21  2  0  0  0  0
 20 22  1  0  0  0  0
 22 23  1  0  0  0  0
 22 24  1  0  0  0  0
 24 25  1  0  0  0  0
 24 26  1  0  0  0  0
 24 27  1  0  0  0  0
M  CHG  1  18  -1
M  END
$$$$

  -OEChem-01062216073D

 27 26  0     1  0  0  0  0  0999 V2000
   -3.3733   -2.8328    1.2706 H   0  0  0  0  0  0  0  0  0  0  0  0
   -3.2485   -1.8350    0.8406 C   0  0  0  0  0  0  0  0  0  0  0  0
   -3.6760   -1.1020    1.5295 H   0  0  0  0  0  0  0  0  0  0  0  0
   -3.7843   -1.7894   -0.1104 H   0  0  0  0  0  0  0  0  0  0  0  0
   -1.7754   -1.5398    0.6220 C   0  0  0  0  0  0  0  0  0  0  0  0
   -0.9614   -2.4412    0.7411 O   0  0  0  0  0  0  0  0  0  0  0  0
   -1.4078   -0.3063    0.1216 N   0  0  0  0  0  0  0  0  0  0  0  0
   -2.1838    0.3216   -0.0579 H   0  0  0  0  0  0  0  0  0  0  0  0
   -0.0883    0.3429    0.2769 C   0  0  1  0  0  0  0  0  0  0  0  0
   -0.2909    1.4129    0.3791 H   0  0  0  0  0  0  0  0  0  0  0  0
    0.7155   -0.0146    1.5496 C   0  0  0  0  0  0  0  0  0  0  0  0
    0.8806   -1.0917    1.6353 H   0  0  0  0  0  0  0  0  0  0  0  0
    1.7031    0.4553    1.4882 H   0  0  0  0  0  0  0  0  0  0  0  0
    0.0150    0.5220    2.8128 C   0  0  0  0  0  0  0  0  0  0  0  0
   -0.0666    1.6106    2.7510 H   0  0  0  0  0  0  0  0  0  0  0  0
   -0.9965    0.1108    2.8745 H   0  0  0  0  0  0  0  0  0  0  0  0
    0.7709    0.1663    4.0958 C   0  0  0  0  0  0  0  0  0  0  0  0
    2.0205    0.3055    4.1011 O   0  5  0  0  0  0  0  0  0  0  0  0
    0.0856   -0.1768    5.0906 O   0  0  0  0  0  0  0  0  0  0  0  0
    0.7230    0.2636   -1.0321 C   0  0  0  0  0  0  0  0  0  0  0  0
    0.2916    0.7984   -2.0491 O   0  0  0  0  0  0  0  0  0  0  0  0
    1.9475   -0.3763   -1.0741 N   0  0  0  0  0  0  0  0  0  0  0  0
    2.2189   -0.8841   -0.2346 H   0  0  0  0  0  0  0  0  0  0  0  0
    2.7314   -0.5445   -2.2879 C   0  0  0  0  0  0  0  0  0  0  0  0
    2.9597    0.4286   -2.7342 H   0  0  0  0  0  0  0  0  0  0  0  0
    3.6750   -1.0481   -2.0580 H   0  0  0  0  0  0  0  0  0  0  0  0
    2.1821   -1.1495   -3.0162 H   0  0  0  0  0  0  0  0  0  0  0  0
  1  2  1  0  0  0  0
  2  3  1  0  0  0  0
  2  4  1  0  0  0  0
  2  5  1  0  0  0  0
  5  6  2  0  0  0  0
  5  7  1  0  0  0  0
  7  8  1  0  0  0  0
  7  9  1  0  0  0  0
  9 10  1  0  0  0  0
  9 11  1  0  0  0  0
  9 20  1  0  0  0  0
 11 12  1  0  0  0  0
 11 13  1  0  0  0  0
 11 14  1  0  0  0  0
 14 15  1  0  0  0  0
 14 16  1  0  0  0  0
 14 17  1  0  0  0  0
 17 18  1  0  0  0  0
 17 19  2  0  0  0  0
 20 21  2  0  0  0  0
 20 22  1  0  0  0  0
 22 23  1  0  0  0  0
 22 24  1  0  0  0  0
 24 25  1  0  0  0  0
 24 26  1  0  0  0  0
 24 27  1  0  0  0  0
M  CHG  1  18  -1
M  END
$$$$

  -OEChem-01062216073D

 27 26  0     1  0  0  0  0  0999 V2000
   -3.3288   -2.8079    1.3255 H   0  0  0  0  0  0  0  0  0  0  0  0
   -3.2191   -1.8068    0.8993 C   0  0  0  0  0  0  0  0  0  0  0  0
   -3.5955   -1.0774    1.6210 H   0  0  0  0  0  0  0  0  0  0  0  0
   -3.8112   -1.7440   -0.0168 H   0  0  0  0  0  0  0  0  0  0  0  0
   -1.7588   -1.5247    0.5954 C   0  0  0  0  0  0  0  0  0  0  0  0
   -0.9467   -2.4355    0.6398 O   0  0  0  0  0  0  0  0  0  0  0  0
   -1.4017   -0.2906    0.0895 N   0  0  0  0  0  0  0  0  0  0  0  0
   -2.1801    0.3499   -0.0237 H   0  0  0  0  0  0  0  0  0  0  0  0
   -0.0818    0.3525    0.2630 C   0  0  1  0  0  0  0  0  0  0  0  0
   -0.2784    1.4239    0.3662 H   0  0  0  0  0  0  0  0  0  0  0  0
    0.7064   -0.0179    1.5412 C   0  0  0  0  0  0  0  0  0  0  0  0
    0.8636   -1.0961    1.6249 H   0  0  0  0  0  0  0  0  0  0  0  0
    1.6984    0.4441    1.4902 H   0  0  0  0  0  0  0  0  0  0  0  0
   -0.0084    0.5139    2.7980 C   0  0  0  0  0  0  0  0  0  0  0  0
   -0.0830    1.6035    2.7425 H   0  0  0  0  0  0  0  0  0  0  0  0
   -1.0234    0.1090    2.8454 H   0  0  0  0  0  0  0  0  0  0  0  0
    0.7320    0.1449    4.0854 C   0  0  0  0  0  0  0  0  0  0  0  0
    1.9669    0.3727    4.1391 O   0  5  0  0  0  0  0  0  0  0  0  0
    0.0461   -0.3094    5.0343 O   0  0  0  0  0  0  0  0  0  0  0  0
    0.7431    0.2661   -1.0339 C   0  0  0  0  0  0  0  0  0  0  0  0
    0.4582    0.9787   -1.9913 O   0  0  0  0  0  0  0  0  0  0  0  0
    1.7915   -0.6275   -1.1357 N   0  0  0  0  0  0  0  0  0  0  0  0
    1.8901   -1.2869   -0.3662 H   0  0  0  0  0  0  0  0  0  0  0  0
    2.5479   -0.8485   -2.3580 C   0  0  0  0  0  0  0  0  0  0  0  0
    2.9917    0.0890   -2.7081 H   0  0  0  0  0  0  0  0  0  0  0  0
    3.3549   -1.5642   -2.1750 H   0  0  0  0  0  0  0  0  0  0  0  0
    1.8975   -1.2484   -3.1423 H   0  0  0  0  0  0  0  0  0  0  0  0
  1  2  1  0  0  0  0
  2  3  1  0  0  0  0
  2  4  1  0  0  0  0
  2  5  1  0  0  0  0
  5  6  2  0  0  0  0
  5  7  1  0  0  0  0
  7  8  1  0  0  0  0
  7  9  1  0  0  0  0
  9 10  1  0  0  0  0
  9 11  1  0  0  0  0
  9 20  1  0  0  0  0
 11 12  1  0  0  0  0
 11 13  1  0  0  0  0
 11 14  1  0  0  0  0
 14 15  1  0  0  0  0
 14 16  1  0  0  0  0
 14 17  1  0  0  0  0
 17 18  1  0  0  0  0
 17 19  2  0  0  0  0
 20 21  2  0  0  0  0
 20 22  1  0  0  0  0
 22 23  1  0  0  0  0
 22 24  1  0  0  0  0
 24 25  1  0  0  0  0
 24 26  1  0  0  0  0
 24 27  1  0  0  0  0
M  CHG  1  18  -1
M  END
$$$$

  -OEChem-01062216073D

 27 26  0     1  0  0  0  0  0999 V2000
   -3.2755   -2.8140    1.3190 H   0  0  0  0  0  0  0  0  0  0  0  0
   -3.1738   -1.7870    0.9569 C   0  0  0  0  0  0  0  0  0  0  0  0
   -3.4802   -1.1045    1.7539 H   0  0  0  0  0  0  0  0  0  0  0  0
   -3.8295   -1.6486    0.0939 H   0  0  0  0  0  0  0  0  0  0  0  0
   -1.7330   -1.5091    0.5676 C   0  0  0  0  0  0  0  0  0  0  0  0
   -0.9247   -2.4251    0.5292 O   0  0  0  0  0  0  0  0  0  0  0  0
   -1.3895   -0.2739    0.0559 N   0  0  0  0  0  0  0  0  0  0  0  0
   -2.1673    0.3756    0.0098 H   0  0  0  0  0  0  0  0  0  0  0  0
   -0.0687    0.3604    0.2515 C   0  0  1  0  0  0  0  0  0  0  0  0
   -0.2561    1.4337    0.3545 H   0  0  0  0  0  0  0  0  0  0  0  0
    0.7007   -0.0214    1.5373 C   0  0  0  0  0  0  0  0  0  0  0  0
    0.8507   -1.1007    1.6188 H   0  0  0  0  0  0  0  0  0  0  0  0
    1.6964    0.4343    1.5007 H   0  0  0  0  0  0  0  0  0  0  0  0
   -0.0335    0.5101    2.7837 C   0  0  0  0  0  0  0  0  0  0  0  0
   -0.1015    1.6004    2.7312 H   0  0  0  0  0  0  0  0  0  0  0  0
   -1.0517    0.1124    2.8125 H   0  0  0  0  0  0  0  0  0  0  0  0
    0.6823    0.1330    4.0819 C   0  0  0  0  0  0  0  0  0  0  0  0
    1.8963    0.4375    4.1922 O   0  5  0  0  0  0  0  0  0  0  0  0
   -0.0048   -0.4108    4.9818 O   0  0  0  0  0  0  0  0  0  0  0  0
    0.7655    0.2622   -1.0360 C   0  0  0  0  0  0  0  0  0  0  0  0
    0.6743    1.1226   -1.9057 O   0  0  0  0  0  0  0  0  0  0  0  0
    1.5815   -0.8343   -1.2311 N   0  0  0  0  0  0  0  0  0  0  0  0
    1.4570   -1.5944   -0.5630 H   0  0  0  0  0  0  0  0  0  0  0  0
    2.2943   -1.0949   -2.4717 C   0  0  0  0  0  0  0  0  0  0  0  0
    2.9545   -0.2568   -2.7172 H   0  0  0  0  0  0  0  0  0  0  0  0
    2.9058   -1.9962   -2.3696 H   0  0  0  0  0  0  0  0  0  0  0  0
    1.5877   -1.2436   -3.2944 H   0  0  0  0  0  0  0  0  0  0  0  0
  1  2  1  0  0  0  0
  2  3  1  0  0  0  0
  2  4  1  0  0  0  0
  2  5  1  0  0  0  0
  5  6  2  0  0  0  0
  5  7  1  0  0  0  0
  7  8  1  0  0  0  0
  7  9  1  0  0  0  0
  9 10  1  0  0  0  0
  9 11  1  0  0  0  0
  9 20  1  0  0  0  0
 11 12  1  0  0  0  0
 11 13  1  0  0  0  0
 11 14  1  0  0  0  0
 14 15  1  0  0  0  0
 14 16  1  0  0  0  0
 14 17  1  0  0  0  0
 17 18  1  0  0  0  0
 17 19  2  0  0  0  0
 20 21  2  0  0  0  0
 20 22  1  0  0  0  0
 22 23  1  0  0  0  0
 22 24  1  0  0  0  0
 24 25  1  0  0  0  0
 24 26  1  0  0  0  0
 24 27  1  0  0  0  0
M  CHG  1  18  -1
M  END
$$$$

  -OEChem-01062216073D

 27 26  0     1  0  0  0  0  0999 V2000
   -3.2366   -2.7972    1.3570 H   0  0  0  0  0  0  0  0  0  0  0  0
   -3.1428   -1.7653    1.0074 C   0  0  0  0  0  0  0  0  0  0  0  0
   -3.4020   -1.0936    1.8298 H   0  0  0  0  0  0  0  0  0  0  0  0
   -3.8389   -1.6062    0.1806 H   0  0  0  0  0  0  0  0  0  0  0  0
   -1.7204   -1.4952    0.5521 C   0  0  0  0  0  0  0  0  0  0  0  0
   -0.9233   -2.4166    0.4441 O   0  0  0  0  0  0  0  0  0  0  0  0
   -1.3853   -0.2629    0.0293 N   0  0  0  0  0  0  0  0  0  0  0  0
   -2.1616    0.3905    0.0246 H   0  0  0  0  0  0  0  0  0  0  0  0
   -0.0641    0.3674    0.2386 C   0  0  1  0  0  0  0  0  0  0  0  0
   -0.2441    1.4422    0.3393 H   0  0  0  0  0  0  0  0  0  0  0  0
    0.6934   -0.0259    1.5271 C   0  0  0  0  0  0  0  0  0  0  0  0
    0.8384   -1.1068    1.6005 H   0  0  0  0  0  0  0  0  0  0  0  0
    1.6912    0.4258    1.5023 H   0  0  0  0  0  0  0  0  0  0  0  0
   -0.0509    0.4997    2.7699 C   0  0  0  0  0  0  0  0  0  0  0  0
   -0.1145    1.5905    2.7236 H   0  0  0  0  0  0  0  0  0  0  0  0
   -1.0709    0.1066    2.7887 H   0  0  0  0  0  0  0  0  0  0  0  0
    0.6522    0.1114    4.0708 C   0  0  0  0  0  0  0  0  0  0  0  0
    1.8385    0.4915    4.2316 O   0  5  0  0  0  0  0  0  0  0  0  0
   -0.0199   -0.5213    4.9226 O   0  0  0  0  0  0  0  0  0  0  0  0
    0.7765    0.2514   -1.0412 C   0  0  0  0  0  0  0  0  0  0  0  0
    0.8974    1.2009   -1.8080 O   0  0  0  0  0  0  0  0  0  0  0  0
    1.3275   -0.9745   -1.3554 N   0  0  0  0  0  0  0  0  0  0  0  0
    1.0181   -1.7526   -0.7698 H   0  0  0  0  0  0  0  0  0  0  0  0
    2.0066   -1.2555   -2.6098 C   0  0  0  0  0  0  0  0  0  0  0  0
    2.8485   -0.5701   -2.7506 H   0  0  0  0  0  0  0  0  0  0  0  0
    2.3925   -2.2792   -2.6053 H   0  0  0  0  0  0  0  0  0  0  0  0
    1.3153   -1.1463   -3.4513 H   0  0  0  0  0  0  0  0  0  0  0  0
  1  2  1  0  0  0  0
  2  3  1  0  0  0  0
  2  4  1  0  0  0  0
  2  5  1  0  0  0  0
  5  6  2  0  0  0  0
  5  7  1  0  0  0  0
  7  8  1  0  0  0  0
  7  9  1  0  0  0  0
  9 10  1  0  0  0  0
  9 11  1  0  0  0  0
  9 20  1  0  0  0  0
 11 12  1  0  0  0  0
 11 13  1  0  0  0  0
 11 14  1  0  0  0  0
 14 15  1  0  0  0  0
 14 16  1  0  0  0  0
 14 17  1  0  0  0  0
 17 18  1  0  0  0  0
 17 19  2  0  0  0  0
 20 21  2  0  0  0  0
 20 22  1  0  0  0  0
 22 23  1  0  0  0  0
 22 24  1  0  0  0  0
 24 25  1  0  0  0  0
 24 26  1  0  0  0  0
 24 27  1  0  0  0  0
M  CHG  1  18  -1
M  END
$$$$

  -OEChem-01062216073D

 27 26  0     1  0  0  0  0  0999 V2000
   -3.2190   -2.7715    1.4418 H   0  0  0  0  0  0  0  0  0  0  0  0
   -3.1363   -1.7450    1.0739 C   0  0  0  0  0  0  0  0  0  0  0  0
   -3.3566   -1.0615    1.8981 H   0  0  0  0  0  0  0  0  0  0  0  0
   -3.8675   -1.5931    0.2764 H   0  0  0  0  0  0  0  0  0  0  0  0
   -1.7337   -1.4896    0.5531 C   0  0  0  0  0  0  0  0  0  0  0  0
   -0.9599   -2.4211    0.3800 O   0  0  0  0  0  0  0  0  0  0  0  0
   -1.4033   -0.2626    0.0158 N   0  0  0  0  0  0  0  0  0  0  0  0
   -2.1762    0.3945    0.0416 H   0  0  0  0  0  0  0  0  0  0  0  0
   -0.0788    0.3667    0.2196 C   0  0  1  0  0  0  0  0  0  0  0  0
   -0.2522    1.4428    0.3187 H   0  0  0  0  0  0  0  0  0  0  0  0
    0.6781   -0.0361    1.5047 C   0  0  0  0  0  0  0  0  0  0  0  0
    0.8169   -1.1186    1.5708 H   0  0  0  0  0  0  0  0  0  0  0  0
    1.6782    0.4109    1.4822 H   0  0  0  0  0  0  0  0  0  0  0  0
   -0.0636    0.4863    2.7504 C   0  0  0  0  0  0  0  0  0  0  0  0
   -0.1231    1.5776    2.7097 H   0  0  0  0  0  0  0  0  0  0  0  0
   -1.0853    0.0980    2.7690 H   0  0  0  0  0  0  0  0  0  0  0  0
    0.6398    0.0878    4.0477 C   0  0  0  0  0  0  0  0  0  0  0  0
    1.8082    0.5084    4.2345 O   0  5  0  0  0  0  0  0  0  0  0  0
   -0.0162   -0.5984    4.8702 O   0  0  0  0  0  0  0  0  0  0  0  0
    0.7634    0.2373   -1.0580 C   0  0  0  0  0  0  0  0  0  0  0  0
    1.1033    1.2239   -1.7014 O   0  0  0  0  0  0  0  0  0  0  0  0
    1.0445   -1.0307   -1.5246 N   0  0  0  0  0  0  0  0  0  0  0  0
    0.6239   -1.7987   -0.9950 H   0  0  0  0  0  0  0  0  0  0  0  0
    1.7366   -1.3085   -2.7720 C   0  0  0  0  0  0  0  0  0  0  0  0
    2.7234   -0.8343   -2.7746 H   0  0  0  0  0  0  0  0  0  0  0  0
    1.8713   -2.3875   -2.8928 H   0  0  0  0  0  0  0  0  0  0  0  0
    1.1585   -0.9317   -3.6216 H   0  0  0  0  0  0  0  0  0  0  0  0
  1  2  1  0  0  0  0
  2  3  1  0  0  0  0
  2  4  1  0  0  0  0
  2  5  1  0  0  0  0
  5  6  2  0  0  0  0
  5  7  1  0  0  0  0
  7  8  1  0  0  0  0
  7  9  1  0  0  0  0
  9 10  1  0  0  0  0
  9 11  1  0  0  0  0
  9 20  1  0  0  0  0
 11 12  1  0  0  0  0
 11 13  1  0  0  0  0
 11 14  1  0  0  0  0
 14 15  1  0  0  0  0
 14 16  1  0  0  0  0
 14 17  1  0  0  0  0
 17 18  1  0  0  0  0
 17 19  2  0  0  0  0
 20 21  2  0  0  0  0
 20 22  1  0  0  0  0
 22 23  1  0  0  0  0
 22 24  1  0  0  0  0
 24 25  1  0  0  0  0
 24 26  1  0  0  0  0
 24 27  1  0  0  0  0
M  CHG  1  18  -1
M  END
$$$$

  -OEChem-01062216073D

 27 26  0     1  0  0  0  0  0999 V2000
   -3.2420   -2.7761    1.4822 H   0  0  0  0  0  0  0  0  0  0  0  0
   -3.1537   -1.7393    1.1456 C   0  0  0  0  0  0  0  0  0  0  0  0
   -3.3234   -1.0799    2.0009 H   0  0  0  0  0  0  0  0  0  0  0  0
   -3.9157   -1.5464    0.3866 H   0  0  0  0  0  0  0  0  0  0  0  0
   -1.7702   -1.4926    0.5722 C   0  0  0  0  0  0  0  0  0  0  0  0
   -1.0174   -2.4301    0.3482 O   0  0  0  0  0  0  0  0  0  0  0  0
   -1.4501   -0.2683    0.0237 N   0  0  0  0  0  0  0  0  0  0  0  0
   -2.2199    0.3905    0.0801 H   0  0  0  0  0  0  0  0  0  0  0  0
   -0.1202    0.3628    0.1959 C   0  0  1  0  0  0  0  0  0  0  0  0
   -0.2912    1.4390    0.2982 H   0  0  0  0  0  0  0  0  0  0  0  0
    0.6568   -0.0458    1.4669 C   0  0  0  0  0  0  0  0  0  0  0  0
    0.7923   -1.1292    1.5269 H   0  0  0  0  0  0  0  0  0  0  0  0
    1.6580    0.3975    1.4286 H   0  0  0  0  0  0  0  0  0  0  0  0
   -0.0628    0.4769    2.7260 C   0  0  0  0  0  0  0  0  0  0  0  0
   -0.1170    1.5687    2.6873 H   0  0  0  0  0  0  0  0  0  0  0  0
   -1.0863    0.0948    2.7604 H   0  0  0  0  0  0  0  0  0  0  0  0
    0.6574    0.0748    4.0130 C   0  0  0  0  0  0  0  0  0  0  0  0
    1.8304    0.4886    4.1846 O   0  5  0  0  0  0  0  0  0  0  0  0
    0.0080   -0.6070    4.8444 O   0  0  0  0  0  0  0  0  0  0  0  0
    0.7047    0.2342   -1.0952 C   0  0  0  0  0  0  0  0  0  0  0  0
    1.2575    1.2058   -1.5976 O   0  0  0  0  0  0  0  0  0  0  0  0
    0.7262   -0.9855   -1.7421 N   0  0  0  0  0  0  0  0  0  0  0  0
    0.2758   -1.7555   -1.2404 H   0  0  0  0  0  0  0  0  0  0  0  0
    1.5079   -1.2622   -2.9359 C   0  0  0  0  0  0  0  0  0  0  0  0
    2.5756   -1.1374   -2.7298 H   0  0  0  0  0  0  0  0  0  0  0  0
    1.3351   -2.2907   -3.2666 H   0  0  0  0  0  0  0  0  0  0  0  0
    1.2213   -0.5851   -3.7469 H   0  0  0  0  0  0  0  0  0  0  0  0
  1  2  1  0  0  0  0
  2  3  1  0  0  0  0
  2  4  1  0  0  0  0
  2  5  1  0  0  0  0
  5  6  2  0  0  0  0
  5  7  1  0  0  0  0
  7  8  1  0  0  0  0
  7  9  1  0  0  0  0
  9 10  1  0  0  0  0
  9 11  1  0  0  0  0
  9 20  1  0  0  0  0
 11 12  1  0  0  0  0
 11 13  1  0  0  0  0
 11 14  1  0  0  0  0
 14 15  1  0  0  0  0
 14 16  1  0  0  0  0
 14 17  1  0  0  0  0
 17 18  1  0  0  0  0
 17 19  2  0  0  0  0
 20 21  2  0  0  0  0
 20 22  1  0  0  0  0
 22 23  1  0  0  0  0
 22 24  1  0  0  0  0
 24 25  1  0  0  0  0
 24 26  1  0  0  0  0
 24 27  1  0  0  0  0
M  CHG  1  18  -1
M  END
$$$$

  -OEChem-01062216073D

 27 26  0     1  0  0  0  0  0999 V2000
   -3.2200   -2.7529    1.5740 H   0  0  0  0  0  0  0  0  0  0  0  0
   -3.1485   -1.7250    1.2073 C   0  0  0  0  0  0  0  0  0  0  0  0
   -3.2897   -1.0451    2.0515 H   0  0  0  0  0  0  0  0  0  0  0  0
   -3.9384   -1.5537    0.4723 H   0  0  0  0  0  0  0  0  0  0  0  0
   -1.7876   -1.4903    0.5775 C   0  0  0  0  0  0  0  0  0  0  0  0
   -1.0658   -2.4346    0.2916 O   0  0  0  0  0  0  0  0  0  0  0  0
   -1.4729   -0.2677    0.0232 N   0  0  0  0  0  0  0  0  0  0  0  0
   -2.2363    0.3949    0.1119 H   0  0  0  0  0  0  0  0  0  0  0  0
   -0.1375    0.3588    0.1805 C   0  0  1  0  0  0  0  0  0  0  0  0
   -0.3024    1.4356    0.2831 H   0  0  0  0  0  0  0  0  0  0  0  0
    0.6388   -0.0565    1.4501 C   0  0  0  0  0  0  0  0  0  0  0  0
    0.7624   -1.1418    1.5084 H   0  0  0  0  0  0  0  0  0  0  0  0
    1.6447    0.3762    1.4108 H   0  0  0  0  0  0  0  0  0  0  0  0
   -0.0741    0.4738    2.7106 C   0  0  0  0  0  0  0  0  0  0  0  0
   -0.1190    1.5659    2.6716 H   0  0  0  0  0  0  0  0  0  0  0  0
   -1.1011    0.1026    2.7493 H   0  0  0  0  0  0  0  0  0  0  0  0
    0.6460    0.0648    3.9950 C   0  0  0  0  0  0  0  0  0  0  0  0
    1.7832    0.5505    4.2118 O   0  5  0  0  0  0  0  0  0  0  0  0
    0.0300   -0.6991    4.7791 O   0  0  0  0  0  0  0  0  0  0  0  0
    0.6855    0.2327   -1.1147 C   0  0  0  0  0  0  0  0  0  0  0  0
    1.4345    1.1311   -1.4791 O   0  0  0  0  0  0  0  0  0  0  0  0
    0.4724   -0.8579   -1.9353 N   0  0  0  0  0  0  0  0  0  0  0  0
   -0.0538   -1.6181   -1.4982 H   0  0  0  0  0  0  0  0  0  0  0  0
    1.2655   -1.1371   -3.1217 C   0  0  0  0  0  0  0  0  0  0  0  0
    2.3135   -1.2984   -2.8503 H   0  0  0  0  0  0  0  0  0  0  0  0
    0.8912   -2.0368   -3.6189 H   0  0  0  0  0  0  0  0  0  0  0  0
    1.2061   -0.3030   -3.8283 H   0  0  0  0  0  0  0  0  0  0  0  0
  1  2  1  0  0  0  0
  2  3  1  0  0  0  0
  2  4  1  0  0  0  0
  2  5  1  0  0  0  0
  5  6  2  0  0  0  0
  5  7  1  0  0  0  0
  7  8  1  0  0  0  0
  7  9  1  0  0  0  0
  9 10  1  0  0  0  0
  9 11  1  0  0  0  0
  9 20  1  0  0  0  0
 11 12  1  0  0  0  0
 11 13  1  0  0  0  0
 11 14  1  0  0  0  0
 14 15  1  0  0  0  0
 14 16  1  0  0  0  0
 14 17  1  0  0  0  0
 17 18  1  0  0  0  0
 17 19  2  0  0  0  0
 20 21  2  0  0  0  0
 20 22  1  0  0  0  0
 22 23  1  0  0  0  0
 22 24  1  0  0  0  0
 24 25  1  0  0  0  0
 24 26  1  0  0  0  0
 24 27  1  0  0  0  0
M  CHG  1  18  -1
M  END
$$$$

  -OEChem-01062216073D

 27 26  0     1  0  0  0  0  0999 V2000
   -3.2037   -2.7329    1.6513 H   0  0  0  0  0  0  0  0  0  0  0  0
   -3.1464   -1.7183    1.2468 C   0  0  0  0  0  0  0  0  0  0  0  0
   -3.2783   -1.0098    2.0687 H   0  0  0  0  0  0  0  0  0  0  0  0
   -3.9501   -1.5783    0.5201 H   0  0  0  0  0  0  0  0  0  0  0  0
   -1.7980   -1.4970    0.5858 C   0  0  0  0  0  0  0  0  0  0  0  0
   -1.0998   -2.4487    0.2715 O   0  0  0  0  0  0  0  0  0  0  0  0
   -1.4827   -0.2753    0.0297 N   0  0  0  0  0  0  0  0  0  0  0  0
   -2.2398    0.3914    0.1397 H   0  0  0  0  0  0  0  0  0  0  0  0
   -0.1422    0.3459    0.1753 C   0  0  1  0  0  0  0  0  0  0  0  0
   -0.3027    1.4234    0.2772 H   0  0  0  0  0  0  0  0  0  0  0  0
    0.6299   -0.0726    1.4469 C   0  0  0  0  0  0  0  0  0  0  0  0
    0.7424   -1.1590    1.5082 H   0  0  0  0  0  0  0  0  0  0  0  0
    1.6399    0.3504    1.4090 H   0  0  0  0  0  0  0  0  0  0  0  0
   -0.0799    0.4689    2.7044 C   0  0  0  0  0  0  0  0  0  0  0  0
   -0.1151    1.5612    2.6617 H   0  0  0  0  0  0  0  0  0  0  0  0
   -1.1101    0.1072    2.7439 H   0  0  0  0  0  0  0  0  0  0  0  0
    0.6337    0.0587    3.9916 C   0  0  0  0  0  0  0  0  0  0  0  0
    1.7612    0.5590    4.2245 O   0  5  0  0  0  0  0  0  0  0  0  0
    0.0190   -0.7184    4.7641 O   0  0  0  0  0  0  0  0  0  0  0  0
    0.6825    0.2260   -1.1219 C   0  0  0  0  0  0  0  0  0  0  0  0
    1.5945    1.0075   -1.3622 O   0  0  0  0  0  0  0  0  0  0  0  0
    0.2783   -0.6621   -2.1005 N   0  0  0  0  0  0  0  0  0  0  0  0
   -0.3510   -1.3904   -1.7613 H   0  0  0  0  0  0  0  0  0  0  0  0
    1.0448   -0.9094   -3.3119 C   0  0  0  0  0  0  0  0  0  0  0  0
    2.0332   -1.3089   -3.0632 H   0  0  0  0  0  0  0  0  0  0  0  0
    0.5239   -1.6352   -3.9432 H   0  0  0  0  0  0  0  0  0  0  0  0
    1.1696    0.0164   -3.8827 H   0  0  0  0  0  0  0  0  0  0  0  0
  1  2  1  0  0  0  0
  2  3  1  0  0  0  0
  2  4  1  0  0  0  0
  2  5  1  0  0  0  0
  5  6  2  0  0  0  0
  5  7  1  0  0  0  0
  7  8  1  0  0  0  0
  7  9  1  0  0  0  0
  9 10  1  0  0  0  0
  9 11  1  0  0  0  0
  9 20  1  0  0  0  0
 11 12  1  0  0  0  0
 11 13  1  0  0  0  0
 11 14  1  0  0  0  0
 14 15  1  0  0  0  0
 14 16  1  0  0  0  0
 14 17  1  0  0  0  0
 17 18  1  0  0  0  0
 17 19  2  0  0  0  0
 20 21  2  0  0  0  0
 20 22  1  0  0  0  0
 22 23  1  0  0  0  0
 22 24  1  0  0  0  0
 24 25  1  0  0  0  0
 24 26  1  0  0  0  0
 24 27  1  0  0  0  0
M  CHG  1  18  -1
M  END
$$$$

  -OEChem-01062216073D

 27 26  0     1  0  0  0  0  0999 V2000
   -3.2038   -2.7533    1.6409 H   0  0  0  0  0  0  0  0  0  0  0  0
   -3.1331   -1.7274    1.2685 C   0  0  0  0  0  0  0  0  0  0  0  0
   -3.2344   -1.0440    2.1157 H   0  0  0  0  0  0  0  0  0  0  0  0
   -3.9478   -1.5477    0.5633 H   0  0  0  0  0  0  0  0  0  0  0  0
   -1.7935   -1.5116    0.5878 C   0  0  0  0  0  0  0  0  0  0  0  0
   -1.1040   -2.4669    0.2684 O   0  0  0  0  0  0  0  0  0  0  0  0
   -1.4806   -0.2855    0.0379 N   0  0  0  0  0  0  0  0  0  0  0  0
   -2.2315    0.3832    0.1765 H   0  0  0  0  0  0  0  0  0  0  0  0
   -0.1345    0.3278    0.1734 C   0  0  1  0  0  0  0  0  0  0  0  0
   -0.2914    1.4054    0.2772 H   0  0  0  0  0  0  0  0  0  0  0  0
    0.6327   -0.0894    1.4502 C   0  0  0  0  0  0  0  0  0  0  0  0
    0.7334   -1.1765    1.5209 H   0  0  0  0  0  0  0  0  0  0  0  0
    1.6475    0.3223    1.4148 H   0  0  0  0  0  0  0  0  0  0  0  0
   -0.0780    0.4713    2.6993 C   0  0  0  0  0  0  0  0  0  0  0  0
   -0.1035    1.5635    2.6447 H   0  0  0  0  0  0  0  0  0  0  0  0
   -1.1116    0.1199    2.7377 H   0  0  0  0  0  0  0  0  0  0  0  0
    0.6233    0.0683    3.9950 C   0  0  0  0  0  0  0  0  0  0  0  0
    1.7098    0.6308    4.2756 O   0  5  0  0  0  0  0  0  0  0  0  0
    0.0340   -0.7635    4.7294 O   0  0  0  0  0  0  0  0  0  0  0  0
    0.6827    0.2208   -1.1320 C   0  0  0  0  0  0  0  0  0  0  0  0
    1.7387    0.8256   -1.2688 O   0  0  0  0  0  0  0  0  0  0  0  0
    0.1235   -0.4000   -2.2332 N   0  0  0  0  0  0  0  0  0  0  0  0
   -0.6379   -1.0350   -2.0016 H   0  0  0  0  0  0  0  0  0  0  0  0
    0.8520   -0.6128   -3.4749 C   0  0  0  0  0  0  0  0  0  0  0  0
    1.7329   -1.2386   -3.2988 H   0  0  0  0  0  0  0  0  0  0  0  0
    0.2094   -1.1129   -4.2053 H   0  0  0  0  0  0  0  0  0  0  0  0
    1.1759    0.3432   -3.8987 H   0  0  0  0  0  0  0  0  0  0  0  0
  1  2  1  0  0  0  0
  2  3  1  0  0  0  0
  2  4  1  0  0  0  0
  2  5  1  0  0  0  0
  5  6  2  0  0  0  0
  5  7  1  0  0  0  0
  7  8  1  0  0  0  0
  7  9  1  0  0  0  0
  9 10  1  0  0  0  0
  9 11  1  0  0  0  0
  9 20  1  0  0  0  0
 11 12  1  0  0  0  0
 11 13  1  0  0  0  0
 11 14  1  0  0  0  0
 14 15  1  0  0  0  0
 14 16  1  0  0  0  0
 14 17  1  0  0  0  0
 17 18  1  0  0  0  0
 17 19  2  0  0  0  0
 20 21  2  0  0  0  0
 20 22  1  0  0  0  0
 22 23  1  0  0  0  0
 22 24  1  0  0  0  0
 24 25  1  0  0  0  0
 24 26  1  0  0  0  0
 24 27  1  0  0  0  0
M  CHG  1  18  -1
M  END
$$$$

  -OEChem-01062216073D

 27 26  0     1  0  0  0  0  0999 V2000
   -3.1777   -2.7590    1.6612 H   0  0  0  0  0  0  0  0  0  0  0  0
   -3.1249   -1.7449    1.2546 C   0  0  0  0  0  0  0  0  0  0  0  0
   -3.2515   -1.0354    2.0767 H   0  0  0  0  0  0  0  0  0  0  0  0
   -3.9347   -1.6079    0.5343 H   0  0  0  0  0  0  0  0  0  0  0  0
   -1.7821   -1.5239    0.5814 C   0  0  0  0  0  0  0  0  0  0  0  0
   -1.0842   -2.4784    0.2810 O   0  0  0  0  0  0  0  0  0  0  0  0
   -1.4699   -0.2913    0.0429 N   0  0  0  0  0  0  0  0  0  0  0  0
   -2.2179    0.3765    0.1999 H   0  0  0  0  0  0  0  0  0  0  0  0
   -0.1208    0.3167    0.1756 C   0  0  1  0  0  0  0  0  0  0  0  0
   -0.2752    1.3939    0.2839 H   0  0  0  0  0  0  0  0  0  0  0  0
    0.6428   -0.1016    1.4558 C   0  0  0  0  0  0  0  0  0  0  0  0
    0.7398   -1.1887    1.5297 H   0  0  0  0  0  0  0  0  0  0  0  0
    1.6590    0.3063    1.4255 H   0  0  0  0  0  0  0  0  0  0  0  0
   -0.0710    0.4684    2.6996 C   0  0  0  0  0  0  0  0  0  0  0  0
   -0.0904    1.5605    2.6400 H   0  0  0  0  0  0  0  0  0  0  0  0
   -1.1069    0.1227    2.7339 H   0  0  0  0  0  0  0  0  0  0  0  0
    0.6199    0.0697    4.0026 C   0  0  0  0  0  0  0  0  0  0  0  0
    1.7047    0.6329    4.2888 O   0  5  0  0  0  0  0  0  0  0  0  0
    0.0195   -0.7507    4.7409 O   0  0  0  0  0  0  0  0  0  0  0  0
    0.6860    0.2224   -1.1393 C   0  0  0  0  0  0  0  0  0  0  0  0
    1.8480    0.6020   -1.2087 O   0  0  0  0  0  0  0  0  0  0  0  0
    0.0256   -0.0902   -2.3136 N   0  0  0  0  0  0  0  0  0  0  0  0
   -0.8596   -0.5691   -2.1725 H   0  0  0  0  0  0  0  0  0  0  0  0
    0.7148   -0.2681   -3.5838 C   0  0  0  0  0  0  0  0  0  0  0  0
    1.4465   -1.0792   -3.5109 H   0  0  0  0  0  0  0  0  0  0  0  0
   -0.0046   -0.5173   -4.3693 H   0  0  0  0  0  0  0  0  0  0  0  0
    1.2336    0.6520   -3.8716 H   0  0  0  0  0  0  0  0  0  0  0  0
  1  2  1  0  0  0  0
  2  3  1  0  0  0  0
  2  4  1  0  0  0  0
  2  5  1  0  0  0  0
  5  6  2  0  0  0  0
  5  7  1  0  0  0  0
  7  8  1  0  0  0  0
  7  9  1  0  0  0  0
  9 10  1  0  0  0  0
  9 11  1  0  0  0  0
  9 20  1  0  0  0  0
 11 12  1  0  0  0  0
 11 13  1  0  0  0  0
 11 14  1  0  0  0  0
 14 15  1  0  0  0  0
 14 16  1  0  0  0  0
 14 17  1  0  0  0  0
 17 18  1  0  0  0  0
 17 19  2  0  0  0  0
 20 21  2  0  0  0  0
 20 22  1  0  0  0  0
 22 23  1  0  0  0  0
 22 24  1  0  0  0  0
 24 25  1  0  0  0  0
 24 26  1  0  0  0  0
 24 27  1  0  0  0  0
M  CHG  1  18  -1
M  END
$$$$

  -OEChem-01062216073D

 27 26  0     1  0  0  0  0  0999 V2000
   -3.1908   -2.7940    1.6007 H   0  0  0  0  0  0  0  0  0  0  0  0
   -3.1176   -1.7672    1.2314 C   0  0  0  0  0  0  0  0  0  0  0  0
   -3.2353   -1.0857    2.0780 H   0  0  0  0  0  0  0  0  0  0  0  0
   -3.9208   -1.5897    0.5128 H   0  0  0  0  0  0  0  0  0  0  0  0
   -1.7678   -1.5451    0.5732 C   0  0  0  0  0  0  0  0  0  0  0  0
   -1.0591   -2.4991    0.2983 O   0  0  0  0  0  0  0  0  0  0  0  0
   -1.4550   -0.3085    0.0426 N   0  0  0  0  0  0  0  0  0  0  0  0
   -2.2014    0.3582    0.2112 H   0  0  0  0  0  0  0  0  0  0  0  0
   -0.1041    0.2937    0.1750 C   0  0  1  0  0  0  0  0  0  0  0  0
   -0.2577    1.3712    0.2803 H   0  0  0  0  0  0  0  0  0  0  0  0
    0.6543   -0.1123    1.4625 C   0  0  0  0  0  0  0  0  0  0  0  0
    0.7458   -1.1986    1.5508 H   0  0  0  0  0  0  0  0  0  0  0  0
    1.6724    0.2911    1.4322 H   0  0  0  0  0  0  0  0  0  0  0  0
   -0.0644    0.4779    2.6945 C   0  0  0  0  0  0  0  0  0  0  0  0
   -0.0803    1.5692    2.6194 H   0  0  0  0  0  0  0  0  0  0  0  0
   -1.1016    0.1353    2.7274 H   0  0  0  0  0  0  0  0  0  0  0  0
    0.6166    0.0960    4.0072 C   0  0  0  0  0  0  0  0  0  0  0  0
    1.6773    0.6945    4.3119 O   0  5  0  0  0  0  0  0  0  0  0  0
    0.0292   -0.7420    4.7361 O   0  0  0  0  0  0  0  0  0  0  0  0
    0.6932    0.2053   -1.1461 C   0  0  0  0  0  0  0  0  0  0  0  0
    1.9109    0.3252   -1.1851 O   0  0  0  0  0  0  0  0  0  0  0  0
   -0.0032    0.2188   -2.3413 N   0  0  0  0  0  0  0  0  0  0  0  0
   -0.9742   -0.0668   -2.2630 H   0  0  0  0  0  0  0  0  0  0  0  0
    0.6507    0.1091   -3.6374 C   0  0  0  0  0  0  0  0  0  0  0  0
    1.2010   -0.8346   -3.7088 H   0  0  0  0  0  0  0  0  0  0  0  0
   -0.0949    0.1398   -4.4373 H   0  0  0  0  0  0  0  0  0  0  0  0
    1.3498    0.9385   -3.7859 H   0  0  0  0  0  0  0  0  0  0  0  0
  1  2  1  0  0  0  0
  2  3  1  0  0  0  0
  2  4  1  0  0  0  0
  2  5  1  0  0  0  0
  5  6  2  0  0  0  0
  5  7  1  0  0  0  0
  7  8  1  0  0  0  0
  7  9  1  0  0  0  0
  9 10  1  0  0  0  0
  9 11  1  0  0  0  0
  9 20  1  0  0  0  0
 11 12  1  0  0  0  0
 11 13  1  0  0  0  0
 11 14  1  0  0  0  0
 14 15  1  0  0  0  0
 14 16  1  0  0  0  0
 14 17  1  0  0  0  0
 17 18  1  0  0  0  0
 17 19  2  0  0  0  0
 20 21  2  0  0  0  0
 20 22  1  0  0  0  0
 22 23  1  0  0  0  0
 22 24  1  0  0  0  0
 24 25  1  0  0  0  0
 24 26  1  0  0  0  0
 24 27  1  0  0  0  0
M  CHG  1  18  -1
M  END
$$$$

  -OEChem-01062216073D

 27 26  0     1  0  0  0  0  0999 V2000
   -3.2138   -2.8292    1.5279 H   0  0  0  0  0  0  0  0  0  0  0  0
   -3.1223   -1.7909    1.1964 C   0  0  0  0  0  0  0  0  0  0  0  0
   -3.2457   -1.1375    2.0642 H   0  0  0  0  0  0  0  0  0  0  0  0
   -3.9122   -1.5792    0.4720 H   0  0  0  0  0  0  0  0  0  0  0  0
   -1.7592   -1.5628    0.5675 C   0  0  0  0  0  0  0  0  0  0  0  0
   -1.0351   -2.5143    0.3285 O   0  0  0  0  0  0  0  0  0  0  0  0
   -1.4459   -0.3235    0.0426 N   0  0  0  0  0  0  0  0  0  0  0  0
   -2.1972    0.3388    0.2041 H   0  0  0  0  0  0  0  0  0  0  0  0
   -0.0978    0.2826    0.1743 C   0  0  1  0  0  0  0  0  0  0  0  0
   -0.2559    1.3591    0.2812 H   0  0  0  0  0  0  0  0  0  0  0  0
    0.6652   -0.1121    1.4626 C   0  0  0  0  0  0  0  0  0  0  0  0
    0.7632   -1.1973    1.5572 H   0  0  0  0  0  0  0  0  0  0  0  0
    1.6806    0.2974    1.4277 H   0  0  0  0  0  0  0  0  0  0  0  0
   -0.0560    0.4830    2.6911 C   0  0  0  0  0  0  0  0  0  0  0  0
   -0.0785    1.5735    2.6082 H   0  0  0  0  0  0  0  0  0  0  0  0
   -1.0911    0.1337    2.7245 H   0  0  0  0  0  0  0  0  0  0  0  0
    0.6238    0.1171    4.0094 C   0  0  0  0  0  0  0  0  0  0  0  0
    1.7220    0.6656    4.2727 O   0  5  0  0  0  0  0  0  0  0  0  0
   -0.0041   -0.6436    4.7876 O   0  0  0  0  0  0  0  0  0  0  0  0
    0.6930    0.1994   -1.1512 C   0  0  0  0  0  0  0  0  0  0  0  0
    1.9071    0.0487   -1.1909 O   0  0  0  0  0  0  0  0  0  0  0  0
    0.0396    0.5274   -2.3262 N   0  0  0  0  0  0  0  0  0  0  0  0
   -0.9724    0.4805   -2.2826 H   0  0  0  0  0  0  0  0  0  0  0  0
    0.6830    0.4725   -3.6314 C   0  0  0  0  0  0  0  0  0  0  0  0
    1.0282   -0.5442   -3.8452 H   0  0  0  0  0  0  0  0  0  0  0  0
   -0.0234    0.7721   -4.4109 H   0  0  0  0  0  0  0  0  0  0  0  0
    1.5407    1.1522   -3.6647 H   0  0  0  0  0  0  0  0  0  0  0  0
  1  2  1  0  0  0  0
  2  3  1  0  0  0  0
  2  4  1  0  0  0  0
  2  5  1  0  0  0  0
  5  6  2  0  0  0  0
  5  7  1  0  0  0  0
  7  8  1  0  0  0  0
  7  9  1  0  0  0  0
  9 10  1  0  0  0  0
  9 11  1  0  0  0  0
  9 20  1  0  0  0  0
 11 12  1  0  0  0  0
 11 13  1  0  0  0  0
 11 14  1  0  0  0  0
 14 15  1  0  0  0  0
 14 16  1  0  0  0  0
 14 17  1  0  0  0  0
 17 18  1  0  0  0  0
 17 19  2  0  0  0  0
 20 21  2  0  0  0  0
 20 22  1  0  0  0  0
 22 23  1  0  0  0  0
 22 24  1  0  0  0  0
 24 25  1  0  0  0  0
 24 26  1  0  0  0  0
 24 27  1  0  0  0  0
M  CHG  1  18  -1
M  END
$$$$

  -OEChem-01062216073D

 27 26  0     1  0  0  0  0  0999 V2000
   -3.2136   -2.8270    1.5483 H   0  0  0  0  0  0  0  0  0  0  0  0
   -3.1316   -1.8002    1.1804 C   0  0  0  0  0  0  0  0  0  0  0  0
   -3.2752   -1.1171    2.0218 H   0  0  0  0  0  0  0  0  0  0  0  0
   -3.9139   -1.6259    0.4380 H   0  0  0  0  0  0  0  0  0  0  0  0
   -1.7631   -1.5757    0.5626 C   0  0  0  0  0  0  0  0  0  0  0  0
   -1.0320   -2.5286    0.3531 O   0  0  0  0  0  0  0  0  0  0  0  0
   -1.4491   -0.3358    0.0386 N   0  0  0  0  0  0  0  0  0  0  0  0
   -2.2053    0.3235    0.1870 H   0  0  0  0  0  0  0  0  0  0  0  0
   -0.1038    0.2737    0.1676 C   0  0  1  0  0  0  0  0  0  0  0  0
   -0.2670    1.3488    0.2778 H   0  0  0  0  0  0  0  0  0  0  0  0
    0.6651   -0.1126    1.4541 C   0  0  0  0  0  0  0  0  0  0  0  0
    0.7677   -1.1971    1.5524 H   0  0  0  0  0  0  0  0  0  0  0  0
    1.6788    0.3007    1.4112 H   0  0  0  0  0  0  0  0  0  0  0  0
   -0.0545    0.4842    2.6830 C   0  0  0  0  0  0  0  0  0  0  0  0
   -0.0826    1.5741    2.5961 H   0  0  0  0  0  0  0  0  0  0  0  0
   -1.0876    0.1292    2.7205 H   0  0  0  0  0  0  0  0  0  0  0  0
    0.6311    0.1270    4.0007 C   0  0  0  0  0  0  0  0  0  0  0  0
    1.7428    0.6586    4.2424 O   0  5  0  0  0  0  0  0  0  0  0  0
   -0.0058   -0.6021    4.8015 O   0  0  0  0  0  0  0  0  0  0  0  0
    0.6877    0.1950   -1.1576 C   0  0  0  0  0  0  0  0  0  0  0  0
    1.8337   -0.2293   -1.2248 O   0  0  0  0  0  0  0  0  0  0  0  0
    0.1571    0.8105   -2.2786 N   0  0  0  0  0  0  0  0  0  0  0  0
   -0.8284    1.0422   -2.2350 H   0  0  0  0  0  0  0  0  0  0  0  0
    0.8190    0.8074   -3.5760 C   0  0  0  0  0  0  0  0  0  0  0  0
    0.9524   -0.2182   -3.9354 H   0  0  0  0  0  0  0  0  0  0  0  0
    0.2171    1.3565   -4.3060 H   0  0  0  0  0  0  0  0  0  0  0  0
    1.8001    1.2885   -3.5067 H   0  0  0  0  0  0  0  0  0  0  0  0
  1  2  1  0  0  0  0
  2  3  1  0  0  0  0
  2  4  1  0  0  0  0
  2  5  1  0  0  0  0
  5  6  2  0  0  0  0
  5  7  1  0  0  0  0
  7  8  1  0  0  0  0
  7  9  1  0  0  0  0
  9 10  1  0  0  0  0
  9 11  1  0  0  0  0
  9 20  1  0  0  0  0
 11 12  1  0  0  0  0
 11 13  1  0  0  0  0
 11 14  1  0  0  0  0
 14 15  1  0  0  0  0
 14 16  1  0  0  0  0
 14 17  1  0  0  0  0
 17 18  1  0  0  0  0
 17 19  2  0  0  0  0
 20 21  2  0  0  0  0
 20 22  1  0  0  0  0
 22 23  1  0  0  0  0
 22 24  1  0  0  0  0
 24 25  1  0  0  0  0
 24 26  1  0  0  0  0
 24 27  1  0  0  0  0
M  CHG  1  18  -1
M  END
$$$$

  -OEChem-01062216073D

 27 26  0     1  0  0  0  0  0999 V2000
   -3.2608   -2.8510    1.4991 H   0  0  0  0  0  0  0  0  0  0  0  0
   -3.1670   -1.8243    1.1340 C   0  0  0  0  0  0  0  0  0  0  0  0
   -3.3469   -1.1412    1.9683 H   0  0  0  0  0  0  0  0  0  0  0  0
   -3.9189   -1.6531    0.3601 H   0  0  0  0  0  0  0  0  0  0  0  0
   -1.7755   -1.5953    0.5715 C   0  0  0  0  0  0  0  0  0  0  0  0
   -1.0229   -2.5434    0.4312 O   0  0  0  0  0  0  0  0  0  0  0  0
   -1.4570   -0.3560    0.0475 N   0  0  0  0  0  0  0  0  0  0  0  0
   -2.2230    0.2992    0.1544 H   0  0  0  0  0  0  0  0  0  0  0  0
   -0.1161    0.2633    0.1658 C   0  0  1  0  0  0  0  0  0  0  0  0
   -0.2923    1.3358    0.2800 H   0  0  0  0  0  0  0  0  0  0  0  0
    0.6719   -0.1053    1.4445 C   0  0  0  0  0  0  0  0  0  0  0  0
    0.7854   -1.1880    1.5498 H   0  0  0  0  0  0  0  0  0  0  0  0
    1.6814    0.3156    1.3829 H   0  0  0  0  0  0  0  0  0  0  0  0
   -0.0393    0.4929    2.6779 C   0  0  0  0  0  0  0  0  0  0  0  0
   -0.0802    1.5817    2.5834 H   0  0  0  0  0  0  0  0  0  0  0  0
   -1.0678    0.1252    2.7282 H   0  0  0  0  0  0  0  0  0  0  0  0
    0.6631    0.1557    3.9925 C   0  0  0  0  0  0  0  0  0  0  0  0
    1.8064    0.6401    4.1812 O   0  5  0  0  0  0  0  0  0  0  0  0
    0.0095   -0.4949    4.8456 O   0  0  0  0  0  0  0  0  0  0  0  0
    0.6765    0.1929   -1.1593 C   0  0  0  0  0  0  0  0  0  0  0  0
    1.6888   -0.4809   -1.2950 O   0  0  0  0  0  0  0  0  0  0  0  0
    0.3245    1.0480   -2.1908 N   0  0  0  0  0  0  0  0  0  0  0  0
   -0.5433    1.5604   -2.0879 H   0  0  0  0  0  0  0  0  0  0  0  0
    1.0240    1.0935   -3.4675 C   0  0  0  0  0  0  0  0  0  0  0  0
    0.9789    0.1181   -3.9627 H   0  0  0  0  0  0  0  0  0  0  0  0
    0.5626    1.8376   -4.1231 H   0  0  0  0  0  0  0  0  0  0  0  0
    2.0736    1.3676   -3.3191 H   0  0  0  0  0  0  0  0  0  0  0  0
  1  2  1  0  0  0  0
  2  3  1  0  0  0  0
  2  4  1  0  0  0  0
  2  5  1  0  0  0  0
  5  6  2  0  0  0  0
  5  7  1  0  0  0  0
  7  8  1  0  0  0  0
  7  9  1  0  0  0  0
  9 10  1  0  0  0  0
  9 11  1  0  0  0  0
  9 20  1  0  0  0  0
 11 12  1  0  0  0  0
 11 13  1  0  0  0  0
 11 14  1  0  0  0  0
 14 15  1  0  0  0  0
 14 16  1  0  0  0  0
 14 17  1  0  0  0  0
 17 18  1  0  0  0  0
 17 19  2  0  0  0  0
 20 21  2  0  0  0  0
 20 22  1  0  0  0  0
 22 23  1  0  0  0  0
 22 24  1  0  0  0  0
 24 25  1  0  0  0  0
 24 26  1  0  0  0  0
 24 27  1  0  0  0  0
M  CHG  1  18  -1
M  END
$$$$

  -OEChem-01062216073D

 27 26  0     1  0  0  0  0  0999 V2000
   -3.3246   -2.8640    1.4615 H   0  0  0  0  0  0  0  0  0  0  0  0
   -3.2264   -1.8539    1.0534 C   0  0  0  0  0  0  0  0  0  0  0  0
   -3.4934   -1.1362    1.8333 H   0  0  0  0  0  0  0  0  0  0  0  0
   -3.9140   -1.7438    0.2116 H   0  0  0  0  0  0  0  0  0  0  0  0
   -1.7985   -1.6117    0.5971 C   0  0  0  0  0  0  0  0  0  0  0  0
   -1.0192   -2.5474    0.5708 O   0  0  0  0  0  0  0  0  0  0  0  0
   -1.4698   -0.3742    0.0738 N   0  0  0  0  0  0  0  0  0  0  0  0
   -2.2472    0.2747    0.1097 H   0  0  0  0  0  0  0  0  0  0  0  0
   -0.1331    0.2566    0.1733 C   0  0  1  0  0  0  0  0  0  0  0  0
   -0.3282    1.3248    0.2916 H   0  0  0  0  0  0  0  0  0  0  0  0
    0.6880   -0.0894    1.4357 C   0  0  0  0  0  0  0  0  0  0  0  0
    0.8201   -1.1691    1.5475 H   0  0  0  0  0  0  0  0  0  0  0  0
    1.6896    0.3447    1.3459 H   0  0  0  0  0  0  0  0  0  0  0  0
   -0.0030    0.5086    2.6803 C   0  0  0  0  0  0  0  0  0  0  0  0
   -0.0622    1.5958    2.5785 H   0  0  0  0  0  0  0  0  0  0  0  0
   -1.0241    0.1244    2.7547 H   0  0  0  0  0  0  0  0  0  0  0  0
    0.7336    0.1935    3.9819 C   0  0  0  0  0  0  0  0  0  0  0  0
    1.9033    0.6346    4.1064 O   0  5  0  0  0  0  0  0  0  0  0  0
    0.0840   -0.3829    4.8898 O   0  0  0  0  0  0  0  0  0  0  0  0
    0.6545    0.1954   -1.1555 C   0  0  0  0  0  0  0  0  0  0  0  0
    1.4469   -0.6985   -1.4180 O   0  0  0  0  0  0  0  0  0  0  0  0
    0.5204    1.2309   -2.0666 N   0  0  0  0  0  0  0  0  0  0  0  0
   -0.1091    1.9874   -1.8256 H   0  0  0  0  0  0  0  0  0  0  0  0
    1.2699    1.3056   -3.3133 C   0  0  0  0  0  0  0  0  0  0  0  0
    1.0495    0.4386   -3.9444 H   0  0  0  0  0  0  0  0  0  0  0  0
    0.9974    2.2117   -3.8622 H   0  0  0  0  0  0  0  0  0  0  0  0
    2.3457    1.3332   -3.1119 H   0  0  0  0  0  0  0  0  0  0  0  0
  1  2  1  0  0  0  0
  2  3  1  0  0  0  0
  2  4  1  0  0  0  0
  2  5  1  0  0  0  0
  5  6  2  0  0  0  0
  5  7  1  0  0  0  0
  7  8  1  0  0  0  0
  7  9  1  0  0  0  0
  9 10  1  0  0  0  0
  9 11  1  0  0  0  0
  9 20  1  0  0  0  0
 11 12  1  0  0  0  0
 11 13  1  0  0  0  0
 11 14  1  0  0  0  0
 14 15  1  0  0  0  0
 14 16  1  0  0  0  0
 14 17  1  0  0  0  0
 17 18  1  0  0  0  0
 17 19  2  0  0  0  0
 20 21  2  0  0  0  0
 20 22  1  0  0  0  0
 22 23  1  0  0  0  0
 22 24  1  0  0  0  0
 24 25  1  0  0  0  0
 24 26  1  0  0  0  0
 24 27  1  0  0  0  0
M  CHG  1  18  -1
M  END
$$$$

  -OEChem-01062216073D

 27 26  0     1  0  0  0  0  0999 V2000
   -3.4354   -2.8878    1.3052 H   0  0  0  0  0  0  0  0  0  0  0  0
   -3.3041   -1.8990    0.8563 C   0  0  0  0  0  0  0  0  0  0  0  0
   -3.7385   -1.1519    1.5253 H   0  0  0  0  0  0  0  0  0  0  0  0
   -3.8291   -1.8736   -0.1015 H   0  0  0  0  0  0  0  0  0  0  0  0
   -1.8277   -1.6097    0.6476 C   0  0  0  0  0  0  0  0  0  0  0  0
   -1.0254   -2.5054    0.8389 O   0  0  0  0  0  0  0  0  0  0  0  0
   -1.4701   -0.3748    0.1358 N   0  0  0  0  0  0  0  0  0  0  0  0
   -2.2556    0.2507    0.0021 H   0  0  0  0  0  0  0  0  0  0  0  0
   -0.1385    0.2675    0.2221 C   0  0  1  0  0  0  0  0  0  0  0  0
   -0.3584    1.3303    0.3446 H   0  0  0  0  0  0  0  0  0  0  0  0
    0.7273   -0.0528    1.4590 C   0  0  0  0  0  0  0  0  0  0  0  0
    0.8874   -1.1285    1.5692 H   0  0  0  0  0  0  0  0  0  0  0  0
    1.7159    0.4019    1.3342 H   0  0  0  0  0  0  0  0  0  0  0  0
    0.0703    0.5348    2.7263 C   0  0  0  0  0  0  0  0  0  0  0  0
   -0.0180    1.6200    2.6244 H   0  0  0  0  0  0  0  0  0  0  0  0
   -0.9381    0.1257    2.8378 H   0  0  0  0  0  0  0  0  0  0  0  0
    0.8632    0.2377    3.9998 C   0  0  0  0  0  0  0  0  0  0  0  0
    2.0632    0.6107    4.0321 O   0  5  0  0  0  0  0  0  0  0  0  0
    0.2362   -0.2420    4.9769 O   0  0  0  0  0  0  0  0  0  0  0  0
    0.6409    0.2161   -1.1115 C   0  0  0  0  0  0  0  0  0  0  0  0
    1.0880   -0.8248   -1.5735 O   0  0  0  0  0  0  0  0  0  0  0  0
    0.7524    1.3653   -1.8780 N   0  0  0  0  0  0  0  0  0  0  0  0
    0.4692    2.2379   -1.4465 H   0  0  0  0  0  0  0  0  0  0  0  0
    1.4850    1.4134   -3.1362 C   0  0  0  0  0  0  0  0  0  0  0  0
    1.0409    0.7264   -3.8640 H   0  0  0  0  0  0  0  0  0  0  0  0
    1.4526    2.4247   -3.5520 H   0  0  0  0  0  0  0  0  0  0  0  0
    2.5324    1.1354   -2.9800 H   0  0  0  0  0  0  0  0  0  0  0  0
  1  2  1  0  0  0  0
  2  3  1  0  0  0  0
  2  4  1  0  0  0  0
  2  5  1  0  0  0  0
  5  6  2  0  0  0  0
  5  7  1  0  0  0  0
  7  8  1  0  0  0  0
  7  9  1  0  0  0  0
  9 10  1  0  0  0  0
  9 11  1  0  0  0  0
  9 20  1  0  0  0  0
 11 12  1  0  0  0  0
 11 13  1  0  0  0  0
 11 14  1  0  0  0  0
 14 15  1  0  0  0  0
 14 16  1  0  0  0  0
 14 17  1  0  0  0  0
 17 18  1  0  0  0  0
 17 19  2  0  0  0  0
 20 21  2  0  0  0  0
 20 22  1  0  0  0  0
 22 23  1  0  0  0  0
 22 24  1  0  0  0  0
 24 25  1  0  0  0  0
 24 26  1  0  0  0  0
 24 27  1  0  0  0  0
M  CHG  1  18  -1
M  END
$$$$

  -OEChem-01062216073D

 27 26  0     1  0  0  0  0  0999 V2000
   -3.5043   -2.9028    1.1785 H   0  0  0  0  0  0  0  0  0  0  0  0
   -3.3398   -1.9270    0.7126 C   0  0  0  0  0  0  0  0  0  0  0  0
   -3.8818   -1.1703    1.2852 H   0  0  0  0  0  0  0  0  0  0  0  0
   -3.7288   -1.9532   -0.3081 H   0  0  0  0  0  0  0  0  0  0  0  0
   -1.8572   -1.5981    0.6932 C   0  0  0  0  0  0  0  0  0  0  0  0
   -1.0685   -2.4528    1.0543 O   0  0  0  0  0  0  0  0  0  0  0  0
   -1.4720   -0.3698    0.1861 N   0  0  0  0  0  0  0  0  0  0  0  0
   -2.2364    0.2140   -0.1315 H   0  0  0  0  0  0  0  0  0  0  0  0
   -0.1367    0.2648    0.2613 C   0  0  1  0  0  0  0  0  0  0  0  0
   -0.3645    1.3265    0.3794 H   0  0  0  0  0  0  0  0  0  0  0  0
    0.7539   -0.0389    1.4832 C   0  0  0  0  0  0  0  0  0  0  0  0
    0.9201   -1.1129    1.6002 H   0  0  0  0  0  0  0  0  0  0  0  0
    1.7381    0.4172    1.3326 H   0  0  0  0  0  0  0  0  0  0  0  0
    0.1266    0.5590    2.7596 C   0  0  0  0  0  0  0  0  0  0  0  0
    0.0335    1.6430    2.6500 H   0  0  0  0  0  0  0  0  0  0  0  0
   -0.8775    0.1472    2.8974 H   0  0  0  0  0  0  0  0  0  0  0  0
    0.9511    0.2756    4.0167 C   0  0  0  0  0  0  0  0  0  0  0  0
    2.1742    0.5656    3.9808 O   0  5  0  0  0  0  0  0  0  0  0  0
    0.3352   -0.0992    5.0453 O   0  0  0  0  0  0  0  0  0  0  0  0
    0.6403    0.2139   -1.0733 C   0  0  0  0  0  0  0  0  0  0  0  0
    0.7302   -0.8115   -1.7366 O   0  0  0  0  0  0  0  0  0  0  0  0
    1.0240    1.4033   -1.6712 N   0  0  0  0  0  0  0  0  0  0  0  0
    1.0440    2.2241   -1.0744 H   0  0  0  0  0  0  0  0  0  0  0  0
    1.7211    1.4597   -2.9490 C   0  0  0  0  0  0  0  0  0  0  0  0
    1.1074    1.0160   -3.7396 H   0  0  0  0  0  0  0  0  0  0  0  0
    1.9294    2.4995   -3.2176 H   0  0  0  0  0  0  0  0  0  0  0  0
    2.6710    0.9183   -2.8911 H   0  0  0  0  0  0  0  0  0  0  0  0
  1  2  1  0  0  0  0
  2  3  1  0  0  0  0
  2  4  1  0  0  0  0
  2  5  1  0  0  0  0
  5  6  2  0  0  0  0
  5  7  1  0  0  0  0
  7  8  1  0  0  0  0
  7  9  1  0  0  0  0
  9 10  1  0  0  0  0
  9 11  1  0  0  0  0
  9 20  1  0  0  0  0
 11 12  1  0  0  0  0
 11 13  1  0  0  0  0
 11 14  1  0  0  0  0
 14 15  1  0  0  0  0
 14 16  1  0  0  0  0
 14 17  1  0  0  0  0
 17 18  1  0  0  0  0
 17 19  2  0  0  0  0
 20 21  2  0  0  0  0
 20 22  1  0  0  0  0
 22 23  1  0  0  0  0
 22 24  1  0  0  0  0
 24 25  1  0  0  0  0
 24 26  1  0  0  0  0
 24 27  1  0  0  0  0
M  CHG  1  18  -1
M  END
$$$$

  -OEChem-01062216073D

 27 26  0     1  0  0  0  0  0999 V2000
   -3.5239   -2.9115    1.1357 H   0  0  0  0  0  0  0  0  0  0  0  0
   -3.3518   -1.9398    0.6640 C   0  0  0  0  0  0  0  0  0  0  0  0
   -3.9369   -1.1849    1.1947 H   0  0  0  0  0  0  0  0  0  0  0  0
   -3.6850   -1.9883   -0.3755 H   0  0  0  0  0  0  0  0  0  0  0  0
   -1.8762   -1.5839    0.7189 C   0  0  0  0  0  0  0  0  0  0  0  0
   -1.0940   -2.4165    1.1413 O   0  0  0  0  0  0  0  0  0  0  0  0
   -1.4834   -0.3599    0.2083 N   0  0  0  0  0  0  0  0  0  0  0  0
   -2.2267    0.1868   -0.2100 H   0  0  0  0  0  0  0  0  0  0  0  0
   -0.1456    0.2707    0.2749 C   0  0  1  0  0  0  0  0  0  0  0  0
   -0.3731    1.3335    0.3873 H   0  0  0  0  0  0  0  0  0  0  0  0
    0.7583   -0.0286    1.4883 C   0  0  0  0  0  0  0  0  0  0  0  0
    0.9256   -1.1024    1.6053 H   0  0  0  0  0  0  0  0  0  0  0  0
    1.7413    0.4259    1.3256 H   0  0  0  0  0  0  0  0  0  0  0  0
    0.1507    0.5713    2.7728 C   0  0  0  0  0  0  0  0  0  0  0  0
    0.0556    1.6551    2.6628 H   0  0  0  0  0  0  0  0  0  0  0  0
   -0.8505    0.1582    2.9270 H   0  0  0  0  0  0  0  0  0  0  0  0
    0.9965    0.2873    4.0159 C   0  0  0  0  0  0  0  0  0  0  0  0
    2.2270    0.5382    3.9437 O   0  5  0  0  0  0  0  0  0  0  0  0
    0.3965   -0.0500    5.0666 O   0  0  0  0  0  0  0  0  0  0  0  0
    0.6308    0.2170   -1.0594 C   0  0  0  0  0  0  0  0  0  0  0  0
    0.4634   -0.6863   -1.8707 O   0  0  0  0  0  0  0  0  0  0  0  0
    1.2840    1.3581   -1.4936 N   0  0  0  0  0  0  0  0  0  0  0  0
    1.5057    2.0443   -0.7780 H   0  0  0  0  0  0  0  0  0  0  0  0
    2.0040    1.4244   -2.7579 C   0  0  0  0  0  0  0  0  0  0  0  0
    1.3191    1.2681   -3.5976 H   0  0  0  0  0  0  0  0  0  0  0  0
    2.4714    2.4068   -2.8727 H   0  0  0  0  0  0  0  0  0  0  0  0
    2.7875    0.6605   -2.7925 H   0  0  0  0  0  0  0  0  0  0  0  0
  1  2  1  0  0  0  0
  2  3  1  0  0  0  0
  2  4  1  0  0  0  0
  2  5  1  0  0  0  0
  5  6  2  0  0  0  0
  5  7  1  0  0  0  0
  7  8  1  0  0  0  0
  7  9  1  0  0  0  0
  9 10  1  0  0  0  0
  9 11  1  0  0  0  0
  9 20  1  0  0  0  0
 11 12  1  0  0  0  0
 11 13  1  0  0  0  0
 11 14  1  0  0  0  0
 14 15  1  0  0  0  0
 14 16  1  0  0  0  0
 14 17  1  0  0  0  0
 17 18  1  0  0  0  0
 17 19  2  0  0  0  0
 20 21  2  0  0  0  0
 20 22  1  0  0  0  0
 22 23  1  0  0  0  0
 22 24  1  0  0  0  0
 24 25  1  0  0  0  0
 24 26  1  0  0  0  0
 24 27  1  0  0  0  0
M  CHG  1  18  -1
M  END
$$$$

  -OEChem-01062216073D

 27 26  0     1  0  0  0  0  0999 V2000
   -3.5384   -2.9064    1.1023 H   0  0  0  0  0  0  0  0  0  0  0  0
   -3.3552   -1.9388    0.6264 C   0  0  0  0  0  0  0  0  0  0  0  0
   -3.9707   -1.1835    1.1211 H   0  0  0  0  0  0  0  0  0  0  0  0
   -3.6418   -2.0030   -0.4261 H   0  0  0  0  0  0  0  0  0  0  0  0
   -1.8869   -1.5670    0.7404 C   0  0  0  0  0  0  0  0  0  0  0  0
   -1.1131   -2.3888    1.1985 O   0  0  0  0  0  0  0  0  0  0  0  0
   -1.4857   -0.3465    0.2288 N   0  0  0  0  0  0  0  0  0  0  0  0
   -2.2073    0.1679   -0.2627 H   0  0  0  0  0  0  0  0  0  0  0  0
   -0.1469    0.2826    0.2915 C   0  0  1  0  0  0  0  0  0  0  0  0
   -0.3680    1.3475    0.3988 H   0  0  0  0  0  0  0  0  0  0  0  0
    0.7614   -0.0204    1.5021 C   0  0  0  0  0  0  0  0  0  0  0  0
    0.9262   -1.0949    1.6151 H   0  0  0  0  0  0  0  0  0  0  0  0
    1.7454    0.4308    1.3388 H   0  0  0  0  0  0  0  0  0  0  0  0
    0.1651    0.5752    2.7928 C   0  0  0  0  0  0  0  0  0  0  0  0
    0.0722    1.6597    2.6890 H   0  0  0  0  0  0  0  0  0  0  0  0
   -0.8356    0.1638    2.9546 H   0  0  0  0  0  0  0  0  0  0  0  0
    1.0243    0.2808    4.0245 C   0  0  0  0  0  0  0  0  0  0  0  0
    2.2557    0.5238    3.9363 O   0  5  0  0  0  0  0  0  0  0  0  0
    0.4375   -0.0604    5.0811 O   0  0  0  0  0  0  0  0  0  0  0  0
    0.6249    0.2223   -1.0453 C   0  0  0  0  0  0  0  0  0  0  0  0
    0.2665   -0.5069   -1.9644 O   0  0  0  0  0  0  0  0  0  0  0  0
    1.5263    1.2317   -1.3366 N   0  0  0  0  0  0  0  0  0  0  0  0
    1.8779    1.7578   -0.5407 H   0  0  0  0  0  0  0  0  0  0  0  0
    2.2657    1.2993   -2.5895 C   0  0  0  0  0  0  0  0  0  0  0  0
    1.5787    1.4032   -3.4356 H   0  0  0  0  0  0  0  0  0  0  0  0
    2.9364    2.1636   -2.5827 H   0  0  0  0  0  0  0  0  0  0  0  0
    2.8658    0.3944   -2.7290 H   0  0  0  0  0  0  0  0  0  0  0  0
  1  2  1  0  0  0  0
  2  3  1  0  0  0  0
  2  4  1  0  0  0  0
  2  5  1  0  0  0  0
  5  6  2  0  0  0  0
  5  7  1  0  0  0  0
  7  8  1  0  0  0  0
  7  9  1  0  0  0  0
  9 10  1  0  0  0  0
  9 11  1  0  0  0  0
  9 20  1  0  0  0  0
 11 12  1  0  0  0  0
 11 13  1  0  0  0  0
 11 14  1  0  0  0  0
 14 15  1  0  0  0  0
 14 16  1  0  0  0  0
 14 17  1  0  0  0  0
 17 18  1  0  0  0  0
 17 19  2  0  0  0  0
 20 21  2  0  0  0  0
 20 22  1  0  0  0  0
 22 23  1  0  0  0  0
 22 24  1  0  0  0  0
 24 25  1  0  0  0  0
 24 26  1  0  0  0  0
 24 27  1  0  0  0  0
M  CHG  1  18  -1
M  END
$$$$

  -OEChem-01062216073D

 27 26  0     1  0  0  0  0  0999 V2000
   -3.5213   -2.9017    1.1102 H   0  0  0  0  0  0  0  0  0  0  0  0
   -3.3443   -1.9269    0.6469 C   0  0  0  0  0  0  0  0  0  0  0  0
   -3.9437   -1.1772    1.1692 H   0  0  0  0  0  0  0  0  0  0  0  0
   -3.6563   -1.9713   -0.3993 H   0  0  0  0  0  0  0  0  0  0  0  0
   -1.8720   -1.5636    0.7329 C   0  0  0  0  0  0  0  0  0  0  0  0
   -1.0900   -2.3975    1.1546 O   0  0  0  0  0  0  0  0  0  0  0  0
   -1.4732   -0.3413    0.2246 N   0  0  0  0  0  0  0  0  0  0  0  0
   -2.1990    0.1792   -0.2546 H   0  0  0  0  0  0  0  0  0  0  0  0
   -0.1383    0.2961    0.2929 C   0  0  1  0  0  0  0  0  0  0  0  0
   -0.3561    1.3619    0.3991 H   0  0  0  0  0  0  0  0  0  0  0  0
    0.7577   -0.0166    1.5130 C   0  0  0  0  0  0  0  0  0  0  0  0
    0.9236   -1.0915    1.6186 H   0  0  0  0  0  0  0  0  0  0  0  0
    1.7431    0.4365    1.3703 H   0  0  0  0  0  0  0  0  0  0  0  0
    0.1489    0.5664    2.8032 C   0  0  0  0  0  0  0  0  0  0  0  0
    0.0572    1.6518    2.7087 H   0  0  0  0  0  0  0  0  0  0  0  0
   -0.8535    0.1543    2.9521 H   0  0  0  0  0  0  0  0  0  0  0  0
    0.9981    0.2594    4.0389 C   0  0  0  0  0  0  0  0  0  0  0  0
    2.2321    0.4920    3.9598 O   0  5  0  0  0  0  0  0  0  0  0  0
    0.4023   -0.0878    5.0884 O   0  0  0  0  0  0  0  0  0  0  0  0
    0.6341    0.2370   -1.0447 C   0  0  0  0  0  0  0  0  0  0  0  0
    0.1506   -0.2943   -2.0400 O   0  0  0  0  0  0  0  0  0  0  0  0
    1.7417    1.0483   -1.2191 N   0  0  0  0  0  0  0  0  0  0  0  0
    2.1684    1.4110   -0.3699 H   0  0  0  0  0  0  0  0  0  0  0  0
    2.5089    1.0966   -2.4556 C   0  0  0  0  0  0  0  0  0  0  0  0
    1.8843    1.4535   -3.2808 H   0  0  0  0  0  0  0  0  0  0  0  0
    3.3563    1.7797   -2.3446 H   0  0  0  0  0  0  0  0  0  0  0  0
    2.8941    0.1028   -2.7059 H   0  0  0  0  0  0  0  0  0  0  0  0
  1  2  1  0  0  0  0
  2  3  1  0  0  0  0
  2  4  1  0  0  0  0
  2  5  1  0  0  0  0
  5  6  2  0  0  0  0
  5  7  1  0  0  0  0
  7  8  1  0  0  0  0
  7  9  1  0  0  0  0
  9 10  1  0  0  0  0
  9 11  1  0  0  0  0
  9 20  1  0  0  0  0
 11 12  1  0  0  0  0
 11 13  1  0  0  0  0
 11 14  1  0  0  0  0
 14 15  1  0  0  0  0
 14 16  1  0  0  0  0
 14 17  1  0  0  0  0
 17 18  1  0  0  0  0
 17 19  2  0  0  0  0
 20 21  2  0  0  0  0
 20 22  1  0  0  0  0
 22 23  1  0  0  0  0
 22 24  1  0  0  0  0
 24 25  1  0  0  0  0
 24 26  1  0  0  0  0
 24 27  1  0  0  0  0
M  CHG  1  18  -1
M  END
$$$$

  -OEChem-01062216073D

 27 26  0     1  0  0  0  0  0999 V2000
   -3.5958   -2.8493    1.0170 H   0  0  0  0  0  0  0  0  0  0  0  0
   -3.3717   -1.8920    0.5379 C   0  0  0  0  0  0  0  0  0  0  0  0
   -4.0039   -1.1209    0.9845 H   0  0  0  0  0  0  0  0  0  0  0  0
   -3.5987   -1.9689   -0.5281 H   0  0  0  0  0  0  0  0  0  0  0  0
   -1.9072   -1.5375    0.7305 C   0  0  0  0  0  0  0  0  0  0  0  0
   -1.1676   -2.3793    1.2059 O   0  0  0  0  0  0  0  0  0  0  0  0
   -1.4680   -0.3217    0.2400 N   0  0  0  0  0  0  0  0  0  0  0  0
   -2.1384    0.1556   -0.3549 H   0  0  0  0  0  0  0  0  0  0  0  0
   -0.1308    0.3131    0.3140 C   0  0  1  0  0  0  0  0  0  0  0  0
   -0.3247    1.3205    0.6912 H   0  0  0  0  0  0  0  0  0  0  0  0
    0.9206   -0.2461    1.3023 C   0  0  0  0  0  0  0  0  0  0  0  0
    1.0925   -1.3099    1.1129 H   0  0  0  0  0  0  0  0  0  0  0  0
    1.8774    0.2602    1.1496 H   0  0  0  0  0  0  0  0  0  0  0  0
    0.5092   -0.0218    2.7730 C   0  0  0  0  0  0  0  0  0  0  0  0
    0.4088    1.0505    2.9612 H   0  0  0  0  0  0  0  0  0  0  0  0
   -0.4606   -0.4878    2.9649 H   0  0  0  0  0  0  0  0  0  0  0  0
    1.5331   -0.5901    3.7620 C   0  0  0  0  0  0  0  0  0  0  0  0
    2.7523   -0.4711    3.4699 O   0  5  0  0  0  0  0  0  0  0  0  0
    1.1039   -1.0171    4.8623 O   0  0  0  0  0  0  0  0  0  0  0  0
    0.4469    0.5665   -1.0988 C   0  0  0  0  0  0  0  0  0  0  0  0
   -0.2671    0.4539   -2.0923 O   0  0  0  0  0  0  0  0  0  0  0  0
    1.6909    1.1515   -1.2556 N   0  0  0  0  0  0  0  0  0  0  0  0
    2.2869    1.1700   -0.4308 H   0  0  0  0  0  0  0  0  0  0  0  0
    2.2881    1.4358   -2.5525 C   0  0  0  0  0  0  0  0  0  0  0  0
    1.6578    2.1253   -3.1232 H   0  0  0  0  0  0  0  0  0  0  0  0
    3.2706    1.8982   -2.4190 H   0  0  0  0  0  0  0  0  0  0  0  0
    2.4139    0.5120   -3.1263 H   0  0  0  0  0  0  0  0  0  0  0  0
  1  2  1  0  0  0  0
  2  3  1  0  0  0  0
  2  4  1  0  0  0  0
  2  5  1  0  0  0  0
  5  6  2  0  0  0  0
  5  7  1  0  0  0  0
  7  8  1  0  0  0  0
  7  9  1  0  0  0  0
  9 10  1  0  0  0  0
  9 11  1  0  0  0  0
  9 20  1  0  0  0  0
 11 12  1  0  0  0  0
 11 13  1  0  0  0  0
 11 14  1  0  0  0  0
 14 15  1  0  0  0  0
 14 16  1  0  0  0  0
 14 17  1  0  0  0  0
 17 18  1  0  0  0  0
 17 19  2  0  0  0  0
 20 21  2  0  0  0  0
 20 22  1  0  0  0  0
 22 23  1  0  0  0  0
 22 24  1  0  0  0  0
 24 25  1  0  0  0  0
 24 26  1  0  0  0  0
 24 27  1  0  0  0  0
M  CHG  1  18  -1
M  END
$$$$

  -OEChem-01062216073D

 27 26  0     1  0  0  0  0  0999 V2000
   -3.5816   -2.8379    1.0202 H   0  0  0  0  0  0  0  0  0  0  0  0
   -3.3563   -1.8814    0.5398 C   0  0  0  0  0  0  0  0  0  0  0  0
   -3.9770   -1.1062    0.9956 H   0  0  0  0  0  0  0  0  0  0  0  0
   -3.5968   -1.9543   -0.5237 H   0  0  0  0  0  0  0  0  0  0  0  0
   -1.8871   -1.5384    0.7152 C   0  0  0  0  0  0  0  0  0  0  0  0
   -1.1429   -2.3932    1.1598 O   0  0  0  0  0  0  0  0  0  0  0  0
   -1.4460   -0.3197    0.2342 N   0  0  0  0  0  0  0  0  0  0  0  0
   -2.1258    0.1819   -0.3296 H   0  0  0  0  0  0  0  0  0  0  0  0
   -0.1135    0.3215    0.3280 C   0  0  1  0  0  0  0  0  0  0  0  0
   -0.3099    1.3286    0.7052 H   0  0  0  0  0  0  0  0  0  0  0  0
    0.9240   -0.2446    1.3280 C   0  0  0  0  0  0  0  0  0  0  0  0
    1.1074   -1.3051    1.1311 H   0  0  0  0  0  0  0  0  0  0  0  0
    1.8785    0.2728    1.2002 H   0  0  0  0  0  0  0  0  0  0  0  0
    0.4906   -0.0343    2.7937 C   0  0  0  0  0  0  0  0  0  0  0  0
    0.3855    1.0361    2.9896 H   0  0  0  0  0  0  0  0  0  0  0  0
   -0.4809   -0.5045    2.9665 H   0  0  0  0  0  0  0  0  0  0  0  0
    1.5006   -0.6100    3.7930 C   0  0  0  0  0  0  0  0  0  0  0  0
    2.7236   -0.5247    3.5049 O   0  5  0  0  0  0  0  0  0  0  0  0
    1.0560   -1.0187    4.8942 O   0  0  0  0  0  0  0  0  0  0  0  0
    0.4651    0.5725   -1.0855 C   0  0  0  0  0  0  0  0  0  0  0  0
   -0.2920    0.6696   -2.0486 O   0  0  0  0  0  0  0  0  0  0  0  0
    1.8028    0.8703   -1.2752 N   0  0  0  0  0  0  0  0  0  0  0  0
    2.4177    0.7157   -0.4788 H   0  0  0  0  0  0  0  0  0  0  0  0
    2.3986    1.1078   -2.5818 C   0  0  0  0  0  0  0  0  0  0  0  0
    1.9141    1.9556   -3.0767 H   0  0  0  0  0  0  0  0  0  0  0  0
    3.4631    1.3355   -2.4719 H   0  0  0  0  0  0  0  0  0  0  0  0
    2.2959    0.2207   -3.2151 H   0  0  0  0  0  0  0  0  0  0  0  0
  1  2  1  0  0  0  0
  2  3  1  0  0  0  0
  2  4  1  0  0  0  0
  2  5  1  0  0  0  0
  5  6  2  0  0  0  0
  5  7  1  0  0  0  0
  7  8  1  0  0  0  0
  7  9  1  0  0  0  0
  9 10  1  0  0  0  0
  9 11  1  0  0  0  0
  9 20  1  0  0  0  0
 11 12  1  0  0  0  0
 11 13  1  0  0  0  0
 11 14  1  0  0  0  0
 14 15  1  0  0  0  0
 14 16  1  0  0  0  0
 14 17  1  0  0  0  0
 17 18  1  0  0  0  0
 17 19  2  0  0  0  0
 20 21  2  0  0  0  0
 20 22  1  0  0  0  0
 22 23  1  0  0  0  0
 22 24  1  0  0  0  0
 24 25  1  0  0  0  0
 24 26  1  0  0  0  0
 24 27  1  0  0  0  0
M  CHG  1  18  -1
M  END
$$$$

  -OEChem-01062216073D

 27 26  0     1  0  0  0  0  0999 V2000
   -3.5556   -2.8427    1.0350 H   0  0  0  0  0  0  0  0  0  0  0  0
   -3.3446   -1.8707    0.5795 C   0  0  0  0  0  0  0  0  0  0  0  0
   -3.9282   -1.1069    1.0992 H   0  0  0  0  0  0  0  0  0  0  0  0
   -3.6453   -1.8993   -0.4707 H   0  0  0  0  0  0  0  0  0  0  0  0
   -1.8638   -1.5503    0.6861 C   0  0  0  0  0  0  0  0  0  0  0  0
   -1.1068   -2.4229    1.0711 O   0  0  0  0  0  0  0  0  0  0  0  0
   -1.4270   -0.3295    0.2071 N   0  0  0  0  0  0  0  0  0  0  0  0
   -2.1290    0.2067   -0.2938 H   0  0  0  0  0  0  0  0  0  0  0  0
   -0.1017    0.3217    0.3225 C   0  0  1  0  0  0  0  0  0  0  0  0
   -0.3044    1.3296    0.6945 H   0  0  0  0  0  0  0  0  0  0  0  0
    0.9214   -0.2437    1.3367 C   0  0  0  0  0  0  0  0  0  0  0  0
    1.1200   -1.3006    1.1367 H   0  0  0  0  0  0  0  0  0  0  0  0
    1.8712    0.2879    1.2273 H   0  0  0  0  0  0  0  0  0  0  0  0
    0.4617   -0.0442    2.7960 C   0  0  0  0  0  0  0  0  0  0  0  0
    0.3447    1.0245    2.9959 H   0  0  0  0  0  0  0  0  0  0  0  0
   -0.5088   -0.5233    2.9486 H   0  0  0  0  0  0  0  0  0  0  0  0
    1.4557   -0.6189    3.8121 C   0  0  0  0  0  0  0  0  0  0  0  0
    2.6810   -0.5851    3.5237 O   0  5  0  0  0  0  0  0  0  0  0  0
    0.9960   -0.9823    4.9231 O   0  0  0  0  0  0  0  0  0  0  0  0
    0.4885    0.5656   -1.0864 C   0  0  0  0  0  0  0  0  0  0  0  0
   -0.2612    0.8642   -2.0130 O   0  0  0  0  0  0  0  0  0  0  0  0
    1.8525    0.5696   -1.3166 N   0  0  0  0  0  0  0  0  0  0  0  0
    2.4429    0.2525   -0.5500 H   0  0  0  0  0  0  0  0  0  0  0  0
    2.4499    0.7657   -2.6290 C   0  0  0  0  0  0  0  0  0  0  0  0
    2.1695    1.7430   -3.0351 H   0  0  0  0  0  0  0  0  0  0  0  0
    3.5406    0.7232   -2.5544 H   0  0  0  0  0  0  0  0  0  0  0  0
    2.1178   -0.0154   -3.3206 H   0  0  0  0  0  0  0  0  0  0  0  0
  1  2  1  0  0  0  0
  2  3  1  0  0  0  0
  2  4  1  0  0  0  0
  2  5  1  0  0  0  0
  5  6  2  0  0  0  0
  5  7  1  0  0  0  0
  7  8  1  0  0  0  0
  7  9  1  0  0  0  0
  9 10  1  0  0  0  0
  9 11  1  0  0  0  0
  9 20  1  0  0  0  0
 11 12  1  0  0  0  0
 11 13  1  0  0  0  0
 11 14  1  0  0  0  0
 14 15  1  0  0  0  0
 14 16  1  0  0  0  0
 14 17  1  0  0  0  0
 17 18  1  0  0  0  0
 17 19  2  0  0  0  0
 20 21  2  0  0  0  0
 20 22  1  0  0  0  0
 22 23  1  0  0  0  0
 22 24  1  0  0  0  0
 24 25  1  0  0  0  0
 24 26  1  0  0  0  0
 24 27  1  0  0  0  0
M  CHG  1  18  -1
M  END
$$$$

  -OEChem-01062216073D

 27 26  0     1  0  0  0  0  0999 V2000
   -3.5379   -2.8360    1.0771 H   0  0  0  0  0  0  0  0  0  0  0  0
   -3.3395   -1.8597    0.6255 C   0  0  0  0  0  0  0  0  0  0  0  0
   -3.8881   -1.0981    1.1852 H   0  0  0  0  0  0  0  0  0  0  0  0
   -3.6934   -1.8696   -0.4083 H   0  0  0  0  0  0  0  0  0  0  0  0
   -1.8516   -1.5571    0.6619 C   0  0  0  0  0  0  0  0  0  0  0  0
   -1.0837   -2.4450    0.9865 O   0  0  0  0  0  0  0  0  0  0  0  0
   -1.4215   -0.3352    0.1799 N   0  0  0  0  0  0  0  0  0  0  0  0
   -2.1472    0.2347   -0.2436 H   0  0  0  0  0  0  0  0  0  0  0  0
   -0.1001    0.3207    0.3094 C   0  0  1  0  0  0  0  0  0  0  0  0
   -0.3072    1.3292    0.6776 H   0  0  0  0  0  0  0  0  0  0  0  0
    0.9145   -0.2441    1.3316 C   0  0  0  0  0  0  0  0  0  0  0  0
    1.1188   -1.3003    1.1329 H   0  0  0  0  0  0  0  0  0  0  0  0
    1.8627    0.2929    1.2270 H   0  0  0  0  0  0  0  0  0  0  0  0
    0.4407   -0.0511    2.7869 C   0  0  0  0  0  0  0  0  0  0  0  0
    0.3174    1.0164    2.9885 H   0  0  0  0  0  0  0  0  0  0  0  0
   -0.5292   -0.5350    2.9282 H   0  0  0  0  0  0  0  0  0  0  0  0
    1.4256   -0.6254    3.8122 C   0  0  0  0  0  0  0  0  0  0  0  0
    2.6513   -0.6225    3.5245 O   0  5  0  0  0  0  0  0  0  0  0  0
    0.9573   -0.9655    4.9269 O   0  0  0  0  0  0  0  0  0  0  0  0
    0.5040    0.5594   -1.0920 C   0  0  0  0  0  0  0  0  0  0  0  0
   -0.1958    1.0509   -1.9735 O   0  0  0  0  0  0  0  0  0  0  0  0
    1.8270    0.2711   -1.3739 N   0  0  0  0  0  0  0  0  0  0  0  0
    2.3580   -0.1908   -0.6378 H   0  0  0  0  0  0  0  0  0  0  0  0
    2.4277    0.4224   -2.6905 C   0  0  0  0  0  0  0  0  0  0  0  0
    2.3661    1.4637   -3.0230 H   0  0  0  0  0  0  0  0  0  0  0  0
    3.4822    0.1325   -2.6564 H   0  0  0  0  0  0  0  0  0  0  0  0
    1.9158   -0.2142   -3.4194 H   0  0  0  0  0  0  0  0  0  0  0  0
  1  2  1  0  0  0  0
  2  3  1  0  0  0  0
  2  4  1  0  0  0  0
  2  5  1  0  0  0  0
  5  6  2  0  0  0  0
  5  7  1  0  0  0  0
  7  8  1  0  0  0  0
  7  9  1  0  0  0  0
  9 10  1  0  0  0  0
  9 11  1  0  0  0  0
  9 20  1  0  0  0  0
 11 12  1  0  0  0  0
 11 13  1  0  0  0  0
 11 14  1  0  0  0  0
 14 15  1  0  0  0  0
 14 16  1  0  0  0  0
 14 17  1  0  0  0  0
 17 18  1  0  0  0  0
 17 19  2  0  0  0  0
 20 21  2  0  0  0  0
 20 22  1  0  0  0  0
 22 23  1  0  0  0  0
 22 24  1  0  0  0  0
 24 25  1  0  0  0  0
 24 26  1  0  0  0  0
 24 27  1  0  0  0  0
M  CHG  1  18  -1
M  END
$$$$

  -OEChem-01062216073D

 27 26  0     1  0  0  0  0  0999 V2000
   -3.5127   -2.8280    1.1374 H   0  0  0  0  0  0  0  0  0  0  0  0
   -3.3308   -1.8436    0.6970 C   0  0  0  0  0  0  0  0  0  0  0  0
   -3.8267   -1.0889    1.3124 H   0  0  0  0  0  0  0  0  0  0  0  0
   -3.7557   -1.8223   -0.3094 H   0  0  0  0  0  0  0  0  0  0  0  0
   -1.8394   -1.5636    0.6372 C   0  0  0  0  0  0  0  0  0  0  0  0
   -1.0625   -2.4702    0.8794 O   0  0  0  0  0  0  0  0  0  0  0  0
   -1.4192   -0.3418    0.1471 N   0  0  0  0  0  0  0  0  0  0  0  0
   -2.1670    0.2612   -0.1807 H   0  0  0  0  0  0  0  0  0  0  0  0
   -0.0996    0.3149    0.2867 C   0  0  1  0  0  0  0  0  0  0  0  0
   -0.3083    1.3249    0.6505 H   0  0  0  0  0  0  0  0  0  0  0  0
    0.9061   -0.2502    1.3166 C   0  0  0  0  0  0  0  0  0  0  0  0
    1.1128   -1.3069    1.1245 H   0  0  0  0  0  0  0  0  0  0  0  0
    1.8555    0.2861    1.2129 H   0  0  0  0  0  0  0  0  0  0  0  0
    0.4147   -0.0547    2.7654 C   0  0  0  0  0  0  0  0  0  0  0  0
    0.2896    1.0133    2.9635 H   0  0  0  0  0  0  0  0  0  0  0  0
   -0.5572   -0.5378    2.8947 H   0  0  0  0  0  0  0  0  0  0  0  0
    1.3856   -0.6276    3.8039 C   0  0  0  0  0  0  0  0  0  0  0  0
    2.6171   -0.5988    3.5463 O   0  5  0  0  0  0  0  0  0  0  0  0
    0.8953   -1.0050    4.8970 O   0  0  0  0  0  0  0  0  0  0  0  0
    0.5184    0.5462   -1.1066 C   0  0  0  0  0  0  0  0  0  0  0  0
   -0.0903    1.2219   -1.9311 O   0  0  0  0  0  0  0  0  0  0  0  0
    1.7315   -0.0156   -1.4583 N   0  0  0  0  0  0  0  0  0  0  0  0
    2.1709   -0.6192   -0.7658 H   0  0  0  0  0  0  0  0  0  0  0  0
    2.3333    0.1100   -2.7766 C   0  0  0  0  0  0  0  0  0  0  0  0
    2.4995    1.1636   -3.0228 H   0  0  0  0  0  0  0  0  0  0  0  0
    3.2974   -0.4065   -2.7991 H   0  0  0  0  0  0  0  0  0  0  0  0
    1.6834   -0.3340   -3.5372 H   0  0  0  0  0  0  0  0  0  0  0  0
  1  2  1  0  0  0  0
  2  3  1  0  0  0  0
  2  4  1  0  0  0  0
  2  5  1  0  0  0  0
  5  6  2  0  0  0  0
  5  7  1  0  0  0  0
  7  8  1  0  0  0  0
  7  9  1  0  0  0  0
  9 10  1  0  0  0  0
  9 11  1  0  0  0  0
  9 20  1  0  0  0  0
 11 12  1  0  0  0  0
 11 13  1  0  0  0  0
 11 14  1  0  0  0  0
 14 15  1  0  0  0  0
 14 16  1  0  0  0  0
 14 17  1  0  0  0  0
 17 18  1  0  0  0  0
 17 19  2  0  0  0  0
 20 21  2  0  0  0  0
 20 22  1  0  0  0  0
 22 23  1  0  0  0  0
 22 24  1  0  0  0  0
 24 25  1  0  0  0  0
 24 26  1  0  0  0  0
 24 27  1  0  0  0  0
M  CHG  1  18  -1
M  END
$$$$

  -OEChem-01062216073D

 27 26  0     1  0  0  0  0  0999 V2000
   -3.4793   -2.8142    1.2112 H   0  0  0  0  0  0  0  0  0  0  0  0
   -3.3147   -1.8260    0.7722 C   0  0  0  0  0  0  0  0  0  0  0  0
   -3.7532   -1.0732    1.4321 H   0  0  0  0  0  0  0  0  0  0  0  0
   -3.8105   -1.7832   -0.2006 H   0  0  0  0  0  0  0  0  0  0  0  0
   -1.8275   -1.5662    0.6094 C   0  0  0  0  0  0  0  0  0  0  0  0
   -1.0464   -2.4900    0.7573 O   0  0  0  0  0  0  0  0  0  0  0  0
   -1.4210   -0.3430    0.1125 N   0  0  0  0  0  0  0  0  0  0  0  0
   -2.1834    0.2822   -0.1281 H   0  0  0  0  0  0  0  0  0  0  0  0
   -0.1027    0.3131    0.2637 C   0  0  1  0  0  0  0  0  0  0  0  0
   -0.3132    1.3234    0.6270 H   0  0  0  0  0  0  0  0  0  0  0  0
    0.8944   -0.2558    1.2996 C   0  0  0  0  0  0  0  0  0  0  0  0
    1.1005   -1.3128    1.1097 H   0  0  0  0  0  0  0  0  0  0  0  0
    1.8462    0.2771    1.1991 H   0  0  0  0  0  0  0  0  0  0  0  0
    0.3885   -0.0626    2.7440 C   0  0  0  0  0  0  0  0  0  0  0  0
    0.2632    1.0055    2.9421 H   0  0  0  0  0  0  0  0  0  0  0  0
   -0.5856   -0.5438    2.8625 H   0  0  0  0  0  0  0  0  0  0  0  0
    1.3459   -0.6374    3.7936 C   0  0  0  0  0  0  0  0  0  0  0  0
    2.5817   -0.5860    3.5639 O   0  5  0  0  0  0  0  0  0  0  0  0
    0.8371   -1.0438    4.8676 O   0  0  0  0  0  0  0  0  0  0  0  0
    0.5316    0.5420   -1.1199 C   0  0  0  0  0  0  0  0  0  0  0  0
    0.0594    1.3894   -1.8713 O   0  0  0  0  0  0  0  0  0  0  0  0
    1.5728   -0.2525   -1.5602 N   0  0  0  0  0  0  0  0  0  0  0  0
    1.8772   -0.9916   -0.9295 H   0  0  0  0  0  0  0  0  0  0  0  0
    2.1646   -0.1567   -2.8854 C   0  0  0  0  0  0  0  0  0  0  0  0
    2.5468    0.8539   -3.0615 H   0  0  0  0  0  0  0  0  0  0  0  0
    2.9967   -0.8610   -2.9761 H   0  0  0  0  0  0  0  0  0  0  0  0
    1.4220   -0.3948   -3.6537 H   0  0  0  0  0  0  0  0  0  0  0  0
  1  2  1  0  0  0  0
  2  3  1  0  0  0  0
  2  4  1  0  0  0  0
  2  5  1  0  0  0  0
  5  6  2  0  0  0  0
  5  7  1  0  0  0  0
  7  8  1  0  0  0  0
  7  9  1  0  0  0  0
  9 10  1  0  0  0  0
  9 11  1  0  0  0  0
  9 20  1  0  0  0  0
 11 12  1  0  0  0  0
 11 13  1  0  0  0  0
 11 14  1  0  0  0  0
 14 15  1  0  0  0  0
 14 16  1  0  0  0  0
 14 17  1  0  0  0  0
 17 18  1  0  0  0  0
 17 19  2  0  0  0  0
 20 21  2  0  0  0  0
 20 22  1  0  0  0  0
 22 23  1  0  0  0  0
 22 24  1  0  0  0  0
 24 25  1  0  0  0  0
 24 26  1  0  0  0  0
 24 27  1  0  0  0  0
M  CHG  1  18  -1
M  END
$$$$

  -OEChem-01062216073D

 27 26  0     1  0  0  0  0  0999 V2000
   -3.4076   -2.8031    1.3050 H   0  0  0  0  0  0  0  0  0  0  0  0
   -3.2727   -1.8070    0.8736 C   0  0  0  0  0  0  0  0  0  0  0  0
   -3.6332   -1.0652    1.5907 H   0  0  0  0  0  0  0  0  0  0  0  0
   -3.8613   -1.7351   -0.0442 H   0  0  0  0  0  0  0  0  0  0  0  0
   -1.8053   -1.5612    0.5708 C   0  0  0  0  0  0  0  0  0  0  0  0
   -1.0268   -2.4998    0.5890 O   0  0  0  0  0  0  0  0  0  0  0  0
   -1.4216   -0.3351    0.0642 N   0  0  0  0  0  0  0  0  0  0  0  0
   -2.1950    0.3082   -0.0686 H   0  0  0  0  0  0  0  0  0  0  0  0
   -0.1048    0.3199    0.2345 C   0  0  1  0  0  0  0  0  0  0  0  0
   -0.3159    1.3304    0.5970 H   0  0  0  0  0  0  0  0  0  0  0  0
    0.8767   -0.2578    1.2797 C   0  0  0  0  0  0  0  0  0  0  0  0
    1.0849   -1.3140    1.0889 H   0  0  0  0  0  0  0  0  0  0  0  0
    1.8309    0.2736    1.1933 H   0  0  0  0  0  0  0  0  0  0  0  0
    0.3470   -0.0700    2.7164 C   0  0  0  0  0  0  0  0  0  0  0  0
    0.2228    0.9975    2.9181 H   0  0  0  0  0  0  0  0  0  0  0  0
   -0.6311   -0.5467    2.8176 H   0  0  0  0  0  0  0  0  0  0  0  0
    1.2859   -0.6531    3.7773 C   0  0  0  0  0  0  0  0  0  0  0  0
    2.5252   -0.5171    3.6133 O   0  5  0  0  0  0  0  0  0  0  0  0
    0.7524   -1.1635    4.7935 O   0  0  0  0  0  0  0  0  0  0  0  0
    0.5497    0.5446   -1.1378 C   0  0  0  0  0  0  0  0  0  0  0  0
    0.2678    1.5374   -1.8007 O   0  0  0  0  0  0  0  0  0  0  0  0
    1.3667   -0.4303   -1.6757 N   0  0  0  0  0  0  0  0  0  0  0  0
    1.4741   -1.2806   -1.1254 H   0  0  0  0  0  0  0  0  0  0  0  0
    1.9347   -0.3675   -3.0130 C   0  0  0  0  0  0  0  0  0  0  0  0
    2.5326    0.5417   -3.1325 H   0  0  0  0  0  0  0  0  0  0  0  0
    2.5830   -1.2315   -3.1859 H   0  0  0  0  0  0  0  0  0  0  0  0
    1.1400   -0.3719   -3.7658 H   0  0  0  0  0  0  0  0  0  0  0  0
  1  2  1  0  0  0  0
  2  3  1  0  0  0  0
  2  4  1  0  0  0  0
  2  5  1  0  0  0  0
  5  6  2  0  0  0  0
  5  7  1  0  0  0  0
  7  8  1  0  0  0  0
  7  9  1  0  0  0  0
  9 10  1  0  0  0  0
  9 11  1  0  0  0  0
  9 20  1  0  0  0  0
 11 12  1  0  0  0  0
 11 13  1  0  0  0  0
 11 14  1  0  0  0  0
 14 15  1  0  0  0  0
 14 16  1  0  0  0  0
 14 17  1  0  0  0  0
 17 18  1  0  0  0  0
 17 19  2  0  0  0  0
 20 21  2  0  0  0  0
 20 22  1  0  0  0  0
 22 23  1  0  0  0  0
 22 24  1  0  0  0  0
 24 25  1  0  0  0  0
 24 26  1  0  0  0  0
 24 27  1  0  0  0  0
M  CHG  1  18  -1
M  END
$$$$

  -OEChem-01062216073D

 27 26  0     1  0  0  0  0  0999 V2000
   -3.3285   -2.7960    1.3925 H   0  0  0  0  0  0  0  0  0  0  0  0
   -3.2222   -1.7904    0.9756 C   0  0  0  0  0  0  0  0  0  0  0  0
   -3.5006   -1.0643    1.7435 H   0  0  0  0  0  0  0  0  0  0  0  0
   -3.8958   -1.6865    0.1217 H   0  0  0  0  0  0  0  0  0  0  0  0
   -1.7875   -1.5551    0.5394 C   0  0  0  0  0  0  0  0  0  0  0  0
   -1.0258   -2.5024    0.4296 O   0  0  0  0  0  0  0  0  0  0  0  0
   -1.4264   -0.3280    0.0214 N   0  0  0  0  0  0  0  0  0  0  0  0
   -2.2032    0.3228   -0.0295 H   0  0  0  0  0  0  0  0  0  0  0  0
   -0.1100    0.3243    0.2074 C   0  0  1  0  0  0  0  0  0  0  0  0
   -0.3201    1.3361    0.5680 H   0  0  0  0  0  0  0  0  0  0  0  0
    0.8561   -0.2623    1.2617 C   0  0  0  0  0  0  0  0  0  0  0  0
    1.0610   -1.3187    1.0690 H   0  0  0  0  0  0  0  0  0  0  0  0
    1.8143    0.2636    1.1896 H   0  0  0  0  0  0  0  0  0  0  0  0
    0.3057   -0.0770    2.6914 C   0  0  0  0  0  0  0  0  0  0  0  0
    0.1835    0.9904    2.8959 H   0  0  0  0  0  0  0  0  0  0  0  0
   -0.6760   -0.5485    2.7792 H   0  0  0  0  0  0  0  0  0  0  0  0
    1.2277   -0.6684    3.7611 C   0  0  0  0  0  0  0  0  0  0  0  0
    2.4602   -0.4380    3.6729 O   0  5  0  0  0  0  0  0  0  0  0  0
    0.6824   -1.2873    4.7085 O   0  0  0  0  0  0  0  0  0  0  0  0
    0.5577    0.5409   -1.1583 C   0  0  0  0  0  0  0  0  0  0  0  0
    0.5018    1.6300   -1.7190 O   0  0  0  0  0  0  0  0  0  0  0  0
    1.1085   -0.5443   -1.8100 N   0  0  0  0  0  0  0  0  0  0  0  0
    1.0162   -1.4431   -1.3380 H   0  0  0  0  0  0  0  0  0  0  0  0
    1.6627   -0.4925   -3.1534 C   0  0  0  0  0  0  0  0  0  0  0  0
    2.4597    0.2558   -3.2092 H   0  0  0  0  0  0  0  0  0  0  0  0
    2.0838   -1.4656   -3.4226 H   0  0  0  0  0  0  0  0  0  0  0  0
    0.8837   -0.2372   -3.8787 H   0  0  0  0  0  0  0  0  0  0  0  0
  1  2  1  0  0  0  0
  2  3  1  0  0  0  0
  2  4  1  0  0  0  0
  2  5  1  0  0  0  0
  5  6  2  0  0  0  0
  5  7  1  0  0  0  0
  7  8  1  0  0  0  0
  7  9  1  0  0  0  0
  9 10  1  0  0  0  0
  9 11  1  0  0  0  0
  9 20  1  0  0  0  0
 11 12  1  0  0  0  0
 11 13  1  0  0  0  0
 11 14  1  0  0  0  0
 14 15  1  0  0  0  0
 14 16  1  0  0  0  0
 14 17  1  0  0  0  0
 17 18  1  0  0  0  0
 17 19  2  0  0  0  0
 20 21  2  0  0  0  0
 20 22  1  0  0  0  0
 22 23  1  0  0  0  0
 22 24  1  0  0  0  0
 24 25  1  0  0  0  0
 24 26  1  0  0  0  0
 24 27  1  0  0  0  0
M  CHG  1  18  -1
M  END
$$$$

  -OEChem-01062216073D

 27 26  0     1  0  0  0  0  0999 V2000
   -3.2730   -2.7830    1.4890 H   0  0  0  0  0  0  0  0  0  0  0  0
   -3.1895   -1.7795    1.0621 C   0  0  0  0  0  0  0  0  0  0  0  0
   -3.4098   -1.0493    1.8450 H   0  0  0  0  0  0  0  0  0  0  0  0
   -3.9192   -1.6736    0.2560 H   0  0  0  0  0  0  0  0  0  0  0  0
   -1.7868   -1.5544    0.5283 C   0  0  0  0  0  0  0  0  0  0  0  0
   -1.0488   -2.5062    0.3282 O   0  0  0  0  0  0  0  0  0  0  0  0
   -1.4437   -0.3285   -0.0023 N   0  0  0  0  0  0  0  0  0  0  0  0
   -2.2217    0.3229   -0.0023 H   0  0  0  0  0  0  0  0  0  0  0  0
   -0.1281    0.3270    0.1853 C   0  0  1  0  0  0  0  0  0  0  0  0
   -0.3371    1.3397    0.5439 H   0  0  0  0  0  0  0  0  0  0  0  0
    0.8335   -0.2652    1.2398 C   0  0  0  0  0  0  0  0  0  0  0  0
    1.0355   -1.3216    1.0421 H   0  0  0  0  0  0  0  0  0  0  0  0
    1.7933    0.2587    1.1734 H   0  0  0  0  0  0  0  0  0  0  0  0
    0.2775   -0.0843    2.6684 C   0  0  0  0  0  0  0  0  0  0  0  0
    0.1576    0.9825    2.8765 H   0  0  0  0  0  0  0  0  0  0  0  0
   -0.7061   -0.5517    2.7531 H   0  0  0  0  0  0  0  0  0  0  0  0
    1.1949   -0.6816    3.7382 C   0  0  0  0  0  0  0  0  0  0  0  0
    2.4188   -0.4006    3.6915 O   0  5  0  0  0  0  0  0  0  0  0  0
    0.6510   -1.3607    4.6444 O   0  0  0  0  0  0  0  0  0  0  0  0
    0.5421    0.5353   -1.1799 C   0  0  0  0  0  0  0  0  0  0  0  0
    0.7290    1.6597   -1.6306 O   0  0  0  0  0  0  0  0  0  0  0  0
    0.8094   -0.5751   -1.9551 N   0  0  0  0  0  0  0  0  0  0  0  0
    0.5700   -1.4766   -1.5416 H   0  0  0  0  0  0  0  0  0  0  0  0
    1.3802   -0.5206   -3.2911 C   0  0  0  0  0  0  0  0  0  0  0  0
    2.3505   -0.0140   -3.2714 H   0  0  0  0  0  0  0  0  0  0  0  0
    1.5263   -1.5334   -3.6779 H   0  0  0  0  0  0  0  0  0  0  0  0
    0.7117    0.0182   -3.9701 H   0  0  0  0  0  0  0  0  0  0  0  0
  1  2  1  0  0  0  0
  2  3  1  0  0  0  0
  2  4  1  0  0  0  0
  2  5  1  0  0  0  0
  5  6  2  0  0  0  0
  5  7  1  0  0  0  0
  7  8  1  0  0  0  0
  7  9  1  0  0  0  0
  9 10  1  0  0  0  0
  9 11  1  0  0  0  0
  9 20  1  0  0  0  0
 11 12  1  0  0  0  0
 11 13  1  0  0  0  0
 11 14  1  0  0  0  0
 14 15  1  0  0  0  0
 14 16  1  0  0  0  0
 14 17  1  0  0  0  0
 17 18  1  0  0  0  0
 17 19  2  0  0  0  0
 20 21  2  0  0  0  0
 20 22  1  0  0  0  0
 22 23  1  0  0  0  0
 22 24  1  0  0  0  0
 24 25  1  0  0  0  0
 24 26  1  0  0  0  0
 24 27  1  0  0  0  0
M  CHG  1  18  -1
M  END
$$$$

  -OEChem-01062216073D

 27 26  0     1  0  0  0  0  0999 V2000
   -3.2401   -2.7873    1.5617 H   0  0  0  0  0  0  0  0  0  0  0  0
   -3.1750   -1.7783    1.1445 C   0  0  0  0  0  0  0  0  0  0  0  0
   -3.3452   -1.0582    1.9491 H   0  0  0  0  0  0  0  0  0  0  0  0
   -3.9495   -1.6569    0.3836 H   0  0  0  0  0  0  0  0  0  0  0  0
   -1.8033   -1.5554    0.5344 C   0  0  0  0  0  0  0  0  0  0  0  0
   -1.0911   -2.5088    0.2617 O   0  0  0  0  0  0  0  0  0  0  0  0
   -1.4775   -0.3299   -0.0066 N   0  0  0  0  0  0  0  0  0  0  0  0
   -2.2551    0.3206    0.0339 H   0  0  0  0  0  0  0  0  0  0  0  0
   -0.1602    0.3301    0.1655 C   0  0  1  0  0  0  0  0  0  0  0  0
   -0.3657    1.3433    0.5251 H   0  0  0  0  0  0  0  0  0  0  0  0
    0.8068   -0.2678    1.2118 C   0  0  0  0  0  0  0  0  0  0  0  0
    1.0024   -1.3246    1.0085 H   0  0  0  0  0  0  0  0  0  0  0  0
    1.7683    0.2527    1.1403 H   0  0  0  0  0  0  0  0  0  0  0  0
    0.2607   -0.0888    2.6450 C   0  0  0  0  0  0  0  0  0  0  0  0
    0.1475    0.9781    2.8565 H   0  0  0  0  0  0  0  0  0  0  0  0
   -0.7243   -0.5509    2.7377 H   0  0  0  0  0  0  0  0  0  0  0  0
    1.1836   -0.6920    3.7060 C   0  0  0  0  0  0  0  0  0  0  0  0
    2.3959   -0.3630    3.6900 O   0  5  0  0  0  0  0  0  0  0  0  0
    0.6530   -1.4278    4.5751 O   0  0  0  0  0  0  0  0  0  0  0  0
    0.5031    0.5399   -1.2045 C   0  0  0  0  0  0  0  0  0  0  0  0
    0.9294    1.6374   -1.5437 O   0  0  0  0  0  0  0  0  0  0  0  0
    0.4888   -0.5040   -2.1084 N   0  0  0  0  0  0  0  0  0  0  0  0
    0.1558   -1.3968   -1.7428 H   0  0  0  0  0  0  0  0  0  0  0  0
    1.1183   -0.4524   -3.4181 C   0  0  0  0  0  0  0  0  0  0  0  0
    2.1945   -0.2788   -3.3176 H   0  0  0  0  0  0  0  0  0  0  0  0
    0.9663   -1.3993   -3.9446 H   0  0  0  0  0  0  0  0  0  0  0  0
    0.6836    0.3520   -4.0198 H   0  0  0  0  0  0  0  0  0  0  0  0
  1  2  1  0  0  0  0
  2  3  1  0  0  0  0
  2  4  1  0  0  0  0
  2  5  1  0  0  0  0
  5  6  2  0  0  0  0
  5  7  1  0  0  0  0
  7  8  1  0  0  0  0
  7  9  1  0  0  0  0
  9 10  1  0  0  0  0
  9 11  1  0  0  0  0
  9 20  1  0  0  0  0
 11 12  1  0  0  0  0
 11 13  1  0  0  0  0
 11 14  1  0  0  0  0
 14 15  1  0  0  0  0
 14 16  1  0  0  0  0
 14 17  1  0  0  0  0
 17 18  1  0  0  0  0
 17 19  2  0  0  0  0
 20 21  2  0  0  0  0
 20 22  1  0  0  0  0
 22 23  1  0  0  0  0
 22 24  1  0  0  0  0
 24 25  1  0  0  0  0
 24 26  1  0  0  0  0
 24 27  1  0  0  0  0
M  CHG  1  18  -1
M  END
$$$$

  -OEChem-01062216073D

 27 26  0     1  0  0  0  0  0999 V2000
   -3.2032   -2.7956    1.6300 H   0  0  0  0  0  0  0  0  0  0  0  0
   -3.1521   -1.7853    1.2140 C   0  0  0  0  0  0  0  0  0  0  0  0
   -3.2789   -1.0679    2.0289 H   0  0  0  0  0  0  0  0  0  0  0  0
   -3.9616   -1.6557    0.4919 H   0  0  0  0  0  0  0  0  0  0  0  0
   -1.8095   -1.5677    0.5402 C   0  0  0  0  0  0  0  0  0  0  0  0
   -1.1251   -2.5239    0.2134 O   0  0  0  0  0  0  0  0  0  0  0  0
   -1.4969   -0.3400   -0.0041 N   0  0  0  0  0  0  0  0  0  0  0  0
   -2.2709    0.3110    0.0770 H   0  0  0  0  0  0  0  0  0  0  0  0
   -0.1752    0.3195    0.1506 C   0  0  1  0  0  0  0  0  0  0  0  0
   -0.3768    1.3326    0.5116 H   0  0  0  0  0  0  0  0  0  0  0  0
    0.7890   -0.2813    1.1983 C   0  0  0  0  0  0  0  0  0  0  0  0
    0.9728   -1.3415    1.0022 H   0  0  0  0  0  0  0  0  0  0  0  0
    1.7559    0.2286    1.1236 H   0  0  0  0  0  0  0  0  0  0  0  0
    0.2436   -0.0861    2.6301 C   0  0  0  0  0  0  0  0  0  0  0  0
    0.1418    0.9838    2.8331 H   0  0  0  0  0  0  0  0  0  0  0  0
   -0.7465   -0.5360    2.7271 H   0  0  0  0  0  0  0  0  0  0  0  0
    1.1588   -0.6900    3.6967 C   0  0  0  0  0  0  0  0  0  0  0  0
    2.3656   -0.3423    3.7058 O   0  5  0  0  0  0  0  0  0  0  0  0
    0.6253   -1.4473    4.5452 O   0  0  0  0  0  0  0  0  0  0  0  0
    0.4853    0.5426   -1.2217 C   0  0  0  0  0  0  0  0  0  0  0  0
    1.1367    1.5537   -1.4534 O   0  0  0  0  0  0  0  0  0  0  0  0
    0.2142   -0.3436   -2.2464 N   0  0  0  0  0  0  0  0  0  0  0  0
   -0.2368   -1.2103   -1.9540 H   0  0  0  0  0  0  0  0  0  0  0  0
    0.8517   -0.2797   -3.5525 C   0  0  0  0  0  0  0  0  0  0  0  0
    1.9350   -0.4026   -3.4539 H   0  0  0  0  0  0  0  0  0  0  0  0
    0.4678   -1.0761   -4.1967 H   0  0  0  0  0  0  0  0  0  0  0  0
    0.6462    0.6819   -4.0337 H   0  0  0  0  0  0  0  0  0  0  0  0
  1  2  1  0  0  0  0
  2  3  1  0  0  0  0
  2  4  1  0  0  0  0
  2  5  1  0  0  0  0
  5  6  2  0  0  0  0
  5  7  1  0  0  0  0
  7  8  1  0  0  0  0
  7  9  1  0  0  0  0
  9 10  1  0  0  0  0
  9 11  1  0  0  0  0
  9 20  1  0  0  0  0
 11 12  1  0  0  0  0
 11 13  1  0  0  0  0
 11 14  1  0  0  0  0
 14 15  1  0  0  0  0
 14 16  1  0  0  0  0
 14 17  1  0  0  0  0
 17 18  1  0  0  0  0
 17 19  2  0  0  0  0
 20 21  2  0  0  0  0
 20 22  1  0  0  0  0
 22 23  1  0  0  0  0
 22 24  1  0  0  0  0
 24 25  1  0  0  0  0
 24 26  1  0  0  0  0
 24 27  1  0  0  0  0
M  CHG  1  18  -1
M  END
$$$$

  -OEChem-01062216073D

 27 26  0     1  0  0  0  0  0999 V2000
   -3.1774   -2.7966    1.6789 H   0  0  0  0  0  0  0  0  0  0  0  0
   -3.1372   -1.7905    1.2517 C   0  0  0  0  0  0  0  0  0  0  0  0
   -3.2447   -1.0655    2.0628 H   0  0  0  0  0  0  0  0  0  0  0  0
   -3.9642   -1.6681    0.5486 H   0  0  0  0  0  0  0  0  0  0  0  0
   -1.8112   -1.5799    0.5434 C   0  0  0  0  0  0  0  0  0  0  0  0
   -1.1445   -2.5398    0.1937 O   0  0  0  0  0  0  0  0  0  0  0  0
   -1.5037   -0.3503   -0.0007 N   0  0  0  0  0  0  0  0  0  0  0  0
   -2.2732    0.3022    0.1068 H   0  0  0  0  0  0  0  0  0  0  0  0
   -0.1781    0.3067    0.1425 C   0  0  1  0  0  0  0  0  0  0  0  0
   -0.3773    1.3198    0.5041 H   0  0  0  0  0  0  0  0  0  0  0  0
    0.7822   -0.2964    1.1948 C   0  0  0  0  0  0  0  0  0  0  0  0
    0.9568   -1.3595    1.0048 H   0  0  0  0  0  0  0  0  0  0  0  0
    1.7541    0.2039    1.1194 H   0  0  0  0  0  0  0  0  0  0  0  0
    0.2363   -0.0868    2.6249 C   0  0  0  0  0  0  0  0  0  0  0  0
    0.1439    0.9853    2.8200 H   0  0  0  0  0  0  0  0  0  0  0  0
   -0.7581   -0.5262    2.7237 H   0  0  0  0  0  0  0  0  0  0  0  0
    1.1434   -0.6902    3.6986 C   0  0  0  0  0  0  0  0  0  0  0  0
    2.3433   -0.3215    3.7351 O   0  5  0  0  0  0  0  0  0  0  0  0
    0.6074   -1.4671    4.5279 O   0  0  0  0  0  0  0  0  0  0  0  0
    0.4822    0.5412   -1.2309 C   0  0  0  0  0  0  0  0  0  0  0  0
    1.3237    1.4174   -1.3845 O   0  0  0  0  0  0  0  0  0  0  0  0
   -0.0067   -0.1208   -2.3415 N   0  0  0  0  0  0  0  0  0  0  0  0
   -0.5904   -0.9276   -2.1274 H   0  0  0  0  0  0  0  0  0  0  0  0
    0.6031   -0.0229   -3.6595 C   0  0  0  0  0  0  0  0  0  0  0  0
    1.6344   -0.3890   -3.6308 H   0  0  0  0  0  0  0  0  0  0  0  0
    0.0398   -0.6236   -4.3796 H   0  0  0  0  0  0  0  0  0  0  0  0
    0.6052    1.0160   -4.0048 H   0  0  0  0  0  0  0  0  0  0  0  0
  1  2  1  0  0  0  0
  2  3  1  0  0  0  0
  2  4  1  0  0  0  0
  2  5  1  0  0  0  0
  5  6  2  0  0  0  0
  5  7  1  0  0  0  0
  7  8  1  0  0  0  0
  7  9  1  0  0  0  0
  9 10  1  0  0  0  0
  9 11  1  0  0  0  0
  9 20  1  0  0  0  0
 11 12  1  0  0  0  0
 11 13  1  0  0  0  0
 11 14  1  0  0  0  0
 14 15  1  0  0  0  0
 14 16  1  0  0  0  0
 14 17  1  0  0  0  0
 17 18  1  0  0  0  0
 17 19  2  0  0  0  0
 20 21  2  0  0  0  0
 20 22  1  0  0  0  0
 22 23  1  0  0  0  0
 22 24  1  0  0  0  0
 24 25  1  0  0  0  0
 24 26  1  0  0  0  0
 24 27  1  0  0  0  0
M  CHG  1  18  -1
M  END
$$$$

  -OEChem-01062216073D

 27 26  0     1  0  0  0  0  0999 V2000
   -3.1914   -2.8192    1.6446 H   0  0  0  0  0  0  0  0  0  0  0  0
   -3.1354   -1.8032    1.2435 C   0  0  0  0  0  0  0  0  0  0  0  0
   -3.2370   -1.0977    2.0721 H   0  0  0  0  0  0  0  0  0  0  0  0
   -3.9574   -1.6519    0.5400 H   0  0  0  0  0  0  0  0  0  0  0  0
   -1.8036   -1.5924    0.5461 C   0  0  0  0  0  0  0  0  0  0  0  0
   -1.1353   -2.5544    0.2071 O   0  0  0  0  0  0  0  0  0  0  0  0
   -1.4960   -0.3589    0.0084 N   0  0  0  0  0  0  0  0  0  0  0  0
   -2.2622    0.2944    0.1335 H   0  0  0  0  0  0  0  0  0  0  0  0
   -0.1662    0.2941    0.1413 C   0  0  1  0  0  0  0  0  0  0  0  0
   -0.3619    1.3077    0.5029 H   0  0  0  0  0  0  0  0  0  0  0  0
    0.7917   -0.3087    1.1980 C   0  0  0  0  0  0  0  0  0  0  0  0
    0.9585   -1.3741    1.0159 H   0  0  0  0  0  0  0  0  0  0  0  0
    1.7682    0.1825    1.1228 H   0  0  0  0  0  0  0  0  0  0  0  0
    0.2441   -0.0826    2.6250 C   0  0  0  0  0  0  0  0  0  0  0  0
    0.1563    0.9916    2.8106 H   0  0  0  0  0  0  0  0  0  0  0  0
   -0.7531   -0.5155    2.7248 H   0  0  0  0  0  0  0  0  0  0  0  0
    1.1449   -0.6828    3.7056 C   0  0  0  0  0  0  0  0  0  0  0  0
    2.3274   -0.2677    3.7848 O   0  5  0  0  0  0  0  0  0  0  0  0
    0.6174   -1.4993    4.5018 O   0  0  0  0  0  0  0  0  0  0  0  0
    0.4851    0.5406   -1.2368 C   0  0  0  0  0  0  0  0  0  0  0  0
    1.4876    1.2337   -1.3510 O   0  0  0  0  0  0  0  0  0  0  0  0
   -0.1832    0.1528   -2.3835 N   0  0  0  0  0  0  0  0  0  0  0  0
   -0.9042   -0.5478   -2.2293 H   0  0  0  0  0  0  0  0  0  0  0  0
    0.3847    0.2912   -3.7166 C   0  0  0  0  0  0  0  0  0  0  0  0
    1.3152   -0.2801   -3.7963 H   0  0  0  0  0  0  0  0  0  0  0  0
   -0.3197   -0.0825   -4.4655 H   0  0  0  0  0  0  0  0  0  0  0  0
    0.5950    1.3429   -3.9365 H   0  0  0  0  0  0  0  0  0  0  0  0
  1  2  1  0  0  0  0
  2  3  1  0  0  0  0
  2  4  1  0  0  0  0
  2  5  1  0  0  0  0
  5  6  2  0  0  0  0
  5  7  1  0  0  0  0
  7  8  1  0  0  0  0
  7  9  1  0  0  0  0
  9 10  1  0  0  0  0
  9 11  1  0  0  0  0
  9 20  1  0  0  0  0
 11 12  1  0  0  0  0
 11 13  1  0  0  0  0
 11 14  1  0  0  0  0
 14 15  1  0  0  0  0
 14 16  1  0  0  0  0
 14 17  1  0  0  0  0
 17 18  1  0  0  0  0
 17 19  2  0  0  0  0
 20 21  2  0  0  0  0
 20 22  1  0  0  0  0
 22 23  1  0  0  0  0
 22 24  1  0  0  0  0
 24 25  1  0  0  0  0
 24 26  1  0  0  0  0
 24 27  1  0  0  0  0
M  CHG  1  18  -1
M  END
$$$$

  -OEChem-01062216073D

 27 26  0     1  0  0  0  0  0999 V2000
   -3.1768   -2.8318    1.6320 H   0  0  0  0  0  0  0  0  0  0  0  0
   -3.1230   -1.8170    1.2275 C   0  0  0  0  0  0  0  0  0  0  0  0
   -3.2311   -1.1096    2.0537 H   0  0  0  0  0  0  0  0  0  0  0  0
   -3.9431   -1.6717    0.5204 H   0  0  0  0  0  0  0  0  0  0  0  0
   -1.7890   -1.6040    0.5341 C   0  0  0  0  0  0  0  0  0  0  0  0
   -1.1187   -2.5664    0.2017 O   0  0  0  0  0  0  0  0  0  0  0  0
   -1.4800   -0.3652    0.0072 N   0  0  0  0  0  0  0  0  0  0  0  0
   -2.2401    0.2899    0.1579 H   0  0  0  0  0  0  0  0  0  0  0  0
   -0.1444    0.2776    0.1358 C   0  0  1  0  0  0  0  0  0  0  0  0
   -0.3348    1.2916    0.4986 H   0  0  0  0  0  0  0  0  0  0  0  0
    0.8059   -0.3255    1.2009 C   0  0  0  0  0  0  0  0  0  0  0  0
    0.9655   -1.3939    1.0303 H   0  0  0  0  0  0  0  0  0  0  0  0
    1.7869    0.1567    1.1292 H   0  0  0  0  0  0  0  0  0  0  0  0
    0.2498   -0.0774    2.6214 C   0  0  0  0  0  0  0  0  0  0  0  0
    0.1713    0.9998    2.7942 H   0  0  0  0  0  0  0  0  0  0  0  0
   -0.7525   -0.4995    2.7175 H   0  0  0  0  0  0  0  0  0  0  0  0
    1.1338   -0.6724    3.7184 C   0  0  0  0  0  0  0  0  0  0  0  0
    2.3064   -0.2376    3.8306 O   0  5  0  0  0  0  0  0  0  0  0  0
    0.5990   -1.5004    4.4977 O   0  0  0  0  0  0  0  0  0  0  0  0
    0.4952    0.5360   -1.2477 C   0  0  0  0  0  0  0  0  0  0  0  0
    1.6243    0.9944   -1.3623 O   0  0  0  0  0  0  0  0  0  0  0  0
   -0.2962    0.4615   -2.3800 N   0  0  0  0  0  0  0  0  0  0  0  0
   -1.1459   -0.0822   -2.2609 H   0  0  0  0  0  0  0  0  0  0  0  0
    0.2277    0.6491   -3.7254 C   0  0  0  0  0  0  0  0  0  0  0  0
    1.0045   -0.0921   -3.9399 H   0  0  0  0  0  0  0  0  0  0  0  0
   -0.5746    0.5357   -4.4603 H   0  0  0  0  0  0  0  0  0  0  0  0
    0.6543    1.6515   -3.8337 H   0  0  0  0  0  0  0  0  0  0  0  0
  1  2  1  0  0  0  0
  2  3  1  0  0  0  0
  2  4  1  0  0  0  0
  2  5  1  0  0  0  0
  5  6  2  0  0  0  0
  5  7  1  0  0  0  0
  7  8  1  0  0  0  0
  7  9  1  0  0  0  0
  9 10  1  0  0  0  0
  9 11  1  0  0  0  0
  9 20  1  0  0  0  0
 11 12  1  0  0  0  0
 11 13  1  0  0  0  0
 11 14  1  0  0  0  0
 14 15  1  0  0  0  0
 14 16  1  0  0  0  0
 14 17  1  0  0  0  0
 17 18  1  0  0  0  0
 17 19  2  0  0  0  0
 20 21  2  0  0  0  0
 20 22  1  0  0  0  0
 22 23  1  0  0  0  0
 22 24  1  0  0  0  0
 24 25  1  0  0  0  0
 24 26  1  0  0  0  0
 24 27  1  0  0  0  0
M  CHG  1  18  -1
M  END
$$$$

  -OEChem-01062216073D

 27 26  0     1  0  0  0  0  0999 V2000
   -3.1778   -2.8646    1.5684 H   0  0  0  0  0  0  0  0  0  0  0  0
   -3.1054   -1.8350    1.2063 C   0  0  0  0  0  0  0  0  0  0  0  0
   -3.1939   -1.1600    2.0614 H   0  0  0  0  0  0  0  0  0  0  0  0
   -3.9262   -1.6446    0.5110 H   0  0  0  0  0  0  0  0  0  0  0  0
   -1.7715   -1.6188    0.5143 C   0  0  0  0  0  0  0  0  0  0  0  0
   -1.0960   -2.5801    0.1900 O   0  0  0  0  0  0  0  0  0  0  0  0
   -1.4645   -0.3745   -0.0022 N   0  0  0  0  0  0  0  0  0  0  0  0
   -2.2221    0.2783    0.1679 H   0  0  0  0  0  0  0  0  0  0  0  0
   -0.1266    0.2616    0.1268 C   0  0  1  0  0  0  0  0  0  0  0  0
   -0.3159    1.2752    0.4908 H   0  0  0  0  0  0  0  0  0  0  0  0
    0.8169   -0.3363    1.2015 C   0  0  0  0  0  0  0  0  0  0  0  0
    0.9729   -1.4068    1.0419 H   0  0  0  0  0  0  0  0  0  0  0  0
    1.8006    0.1408    1.1323 H   0  0  0  0  0  0  0  0  0  0  0  0
    0.2508   -0.0691    2.6150 C   0  0  0  0  0  0  0  0  0  0  0  0
    0.1758    1.0103    2.7750 H   0  0  0  0  0  0  0  0  0  0  0  0
   -0.7544   -0.4852    2.7071 H   0  0  0  0  0  0  0  0  0  0  0  0
    1.1216   -0.6547    3.7270 C   0  0  0  0  0  0  0  0  0  0  0  0
    2.2850   -0.2016    3.8614 O   0  5  0  0  0  0  0  0  0  0  0  0
    0.5825   -1.4862    4.4996 O   0  0  0  0  0  0  0  0  0  0  0  0
    0.5034    0.5309   -1.2596 C   0  0  0  0  0  0  0  0  0  0  0  0
    1.7029    0.7202   -1.4117 O   0  0  0  0  0  0  0  0  0  0  0  0
   -0.3343    0.7799   -2.3328 N   0  0  0  0  0  0  0  0  0  0  0  0
   -1.2819    0.4357   -2.2181 H   0  0  0  0  0  0  0  0  0  0  0  0
    0.1581    1.0214   -3.6819 C   0  0  0  0  0  0  0  0  0  0  0  0
    0.7276    0.1582   -4.0414 H   0  0  0  0  0  0  0  0  0  0  0  0
   -0.6806    1.1937   -4.3626 H   0  0  0  0  0  0  0  0  0  0  0  0
    0.8040    1.9053   -3.7017 H   0  0  0  0  0  0  0  0  0  0  0  0
  1  2  1  0  0  0  0
  2  3  1  0  0  0  0
  2  4  1  0  0  0  0
  2  5  1  0  0  0  0
  5  6  2  0  0  0  0
  5  7  1  0  0  0  0
  7  8  1  0  0  0  0
  7  9  1  0  0  0  0
  9 10  1  0  0  0  0
  9 11  1  0  0  0  0
  9 20  1  0  0  0  0
 11 12  1  0  0  0  0
 11 13  1  0  0  0  0
 11 14  1  0  0  0  0
 14 15  1  0  0  0  0
 14 16  1  0  0  0  0
 14 17  1  0  0  0  0
 17 18  1  0  0  0  0
 17 19  2  0  0  0  0
 20 21  2  0  0  0  0
 20 22  1  0  0  0  0
 22 23  1  0  0  0  0
 22 24  1  0  0  0  0
 24 25  1  0  0  0  0
 24 26  1  0  0  0  0
 24 27  1  0  0  0  0
M  CHG  1  18  -1
M  END
$$$$

  -OEChem-01062216073D

 27 26  0     1  0  0  0  0  0999 V2000
   -3.1797   -2.8731    1.5450 H   0  0  0  0  0  0  0  0  0  0  0  0
   -3.1091   -1.8452    1.1776 C   0  0  0  0  0  0  0  0  0  0  0  0
   -3.2124   -1.1655    2.0274 H   0  0  0  0  0  0  0  0  0  0  0  0
   -3.9219   -1.6646    0.4704 H   0  0  0  0  0  0  0  0  0  0  0  0
   -1.7679   -1.6261    0.5008 C   0  0  0  0  0  0  0  0  0  0  0  0
   -1.0817   -2.5872    0.1999 O   0  0  0  0  0  0  0  0  0  0  0  0
   -1.4592   -0.3789   -0.0088 N   0  0  0  0  0  0  0  0  0  0  0  0
   -2.2183    0.2716    0.1609 H   0  0  0  0  0  0  0  0  0  0  0  0
   -0.1207    0.2528    0.1208 C   0  0  1  0  0  0  0  0  0  0  0  0
   -0.3091    1.2651    0.4884 H   0  0  0  0  0  0  0  0  0  0  0  0
    0.8237   -0.3398    1.1974 C   0  0  0  0  0  0  0  0  0  0  0  0
    0.9800   -1.4113    1.0436 H   0  0  0  0  0  0  0  0  0  0  0  0
    1.8071    0.1375    1.1247 H   0  0  0  0  0  0  0  0  0  0  0  0
    0.2566   -0.0644    2.6090 C   0  0  0  0  0  0  0  0  0  0  0  0
    0.1801    1.0155    2.7630 H   0  0  0  0  0  0  0  0  0  0  0  0
   -0.7481   -0.4820    2.7023 H   0  0  0  0  0  0  0  0  0  0  0  0
    1.1267   -0.6429    3.7249 C   0  0  0  0  0  0  0  0  0  0  0  0
    2.2780   -0.1642    3.8747 O   0  5  0  0  0  0  0  0  0  0  0  0
    0.5965   -1.4875    4.4892 O   0  0  0  0  0  0  0  0  0  0  0  0
    0.5051    0.5288   -1.2658 C   0  0  0  0  0  0  0  0  0  0  0  0
    1.7047    0.4287   -1.4858 O   0  0  0  0  0  0  0  0  0  0  0  0
   -0.2896    1.0892   -2.2513 N   0  0  0  0  0  0  0  0  0  0  0  0
   -1.2890    1.0038   -2.1063 H   0  0  0  0  0  0  0  0  0  0  0  0
    0.1972    1.3705   -3.5949 C   0  0  0  0  0  0  0  0  0  0  0  0
    0.5412    0.4501   -4.0778 H   0  0  0  0  0  0  0  0  0  0  0  0
   -0.6032    1.8038   -4.2018 H   0  0  0  0  0  0  0  0  0  0  0  0
    1.0275    2.0835   -3.5599 H   0  0  0  0  0  0  0  0  0  0  0  0
  1  2  1  0  0  0  0
  2  3  1  0  0  0  0
  2  4  1  0  0  0  0
  2  5  1  0  0  0  0
  5  6  2  0  0  0  0
  5  7  1  0  0  0  0
  7  8  1  0  0  0  0
  7  9  1  0  0  0  0
  9 10  1  0  0  0  0
  9 11  1  0  0  0  0
  9 20  1  0  0  0  0
 11 12  1  0  0  0  0
 11 13  1  0  0  0  0
 11 14  1  0  0  0  0
 14 15  1  0  0  0  0
 14 16  1  0  0  0  0
 14 17  1  0  0  0  0
 17 18  1  0  0  0  0
 17 19  2  0  0  0  0
 20 21  2  0  0  0  0
 20 22  1  0  0  0  0
 22 23  1  0  0  0  0
 22 24  1  0  0  0  0
 24 25  1  0  0  0  0
 24 26  1  0  0  0  0
 24 27  1  0  0  0  0
M  CHG  1  18  -1
M  END
$$$$

  -OEChem-01062216073D

 27 26  0     1  0  0  0  0  0999 V2000
   -3.2192   -2.8882    1.4876 H   0  0  0  0  0  0  0  0  0  0  0  0
   -3.1353   -1.8591    1.1264 C   0  0  0  0  0  0  0  0  0  0  0  0
   -3.2659   -1.1822    1.9745 H   0  0  0  0  0  0  0  0  0  0  0  0
   -3.9240   -1.6750    0.3934 H   0  0  0  0  0  0  0  0  0  0  0  0
   -1.7719   -1.6382    0.4956 C   0  0  0  0  0  0  0  0  0  0  0  0
   -1.0639   -2.5991    0.2508 O   0  0  0  0  0  0  0  0  0  0  0  0
   -1.4548   -0.3903   -0.0087 N   0  0  0  0  0  0  0  0  0  0  0  0
   -2.2213    0.2583    0.1278 H   0  0  0  0  0  0  0  0  0  0  0  0
   -0.1183    0.2441    0.1198 C   0  0  1  0  0  0  0  0  0  0  0  0
   -0.3114    1.2533    0.4923 H   0  0  0  0  0  0  0  0  0  0  0  0
    0.8328   -0.3375    1.1944 C   0  0  0  0  0  0  0  0  0  0  0  0
    0.9950   -1.4086    1.0451 H   0  0  0  0  0  0  0  0  0  0  0  0
    1.8123    0.1456    1.1126 H   0  0  0  0  0  0  0  0  0  0  0  0
    0.2666   -0.0579    2.6057 C   0  0  0  0  0  0  0  0  0  0  0  0
    0.1839    1.0224    2.7542 H   0  0  0  0  0  0  0  0  0  0  0  0
   -0.7360   -0.4814    2.6995 H   0  0  0  0  0  0  0  0  0  0  0  0
    1.1387   -0.6228    3.7273 C   0  0  0  0  0  0  0  0  0  0  0  0
    2.3149   -0.1929    3.8243 O   0  5  0  0  0  0  0  0  0  0  0  0
    0.5864   -1.3913    4.5538 O   0  0  0  0  0  0  0  0  0  0  0  0
    0.5083    0.5257   -1.2652 C   0  0  0  0  0  0  0  0  0  0  0  0
    1.6285    0.1478   -1.5804 O   0  0  0  0  0  0  0  0  0  0  0  0
   -0.1642    1.3602   -2.1426 N   0  0  0  0  0  0  0  0  0  0  0  0
   -1.1257    1.5798   -1.9122 H   0  0  0  0  0  0  0  0  0  0  0  0
    0.3281    1.6789   -3.4759 C   0  0  0  0  0  0  0  0  0  0  0  0
    0.4414    0.7664   -4.0704 H   0  0  0  0  0  0  0  0  0  0  0  0
   -0.3760    2.3417   -3.9875 H   0  0  0  0  0  0  0  0  0  0  0  0
    1.2971    2.1852   -3.4158 H   0  0  0  0  0  0  0  0  0  0  0  0
  1  2  1  0  0  0  0
  2  3  1  0  0  0  0
  2  4  1  0  0  0  0
  2  5  1  0  0  0  0
  5  6  2  0  0  0  0
  5  7  1  0  0  0  0
  7  8  1  0  0  0  0
  7  9  1  0  0  0  0
  9 10  1  0  0  0  0
  9 11  1  0  0  0  0
  9 20  1  0  0  0  0
 11 12  1  0  0  0  0
 11 13  1  0  0  0  0
 11 14  1  0  0  0  0
 14 15  1  0  0  0  0
 14 16  1  0  0  0  0
 14 17  1  0  0  0  0
 17 18  1  0  0  0  0
 17 19  2  0  0  0  0
 20 21  2  0  0  0  0
 20 22  1  0  0  0  0
 22 23  1  0  0  0  0
 22 24  1  0  0  0  0
 24 25  1  0  0  0  0
 24 26  1  0  0  0  0
 24 27  1  0  0  0  0
M  CHG  1  18  -1
M  END
$$$$

  -OEChem-01062216073D

 27 26  0     1  0  0  0  0  0999 V2000
   -3.3399   -2.8909    1.3950 H   0  0  0  0  0  0  0  0  0  0  0  0
   -3.2284   -1.8744    1.0063 C   0  0  0  0  0  0  0  0  0  0  0  0
   -3.4732   -1.1685    1.8038 H   0  0  0  0  0  0  0  0  0  0  0  0
   -3.9240   -1.7347    0.1755 H   0  0  0  0  0  0  0  0  0  0  0  0
   -1.8020   -1.6479    0.5373 C   0  0  0  0  0  0  0  0  0  0  0  0
   -1.0494   -2.6017    0.4577 O   0  0  0  0  0  0  0  0  0  0  0  0
   -1.4597   -0.4073    0.0299 N   0  0  0  0  0  0  0  0  0  0  0  0
   -2.2398    0.2383    0.0540 H   0  0  0  0  0  0  0  0  0  0  0  0
   -0.1268    0.2364    0.1392 C   0  0  1  0  0  0  0  0  0  0  0  0
   -0.3278    1.2430    0.5136 H   0  0  0  0  0  0  0  0  0  0  0  0
    0.8586   -0.3202    1.1937 C   0  0  0  0  0  0  0  0  0  0  0  0
    1.0381   -1.3887    1.0468 H   0  0  0  0  0  0  0  0  0  0  0  0
    1.8263    0.1807    1.0814 H   0  0  0  0  0  0  0  0  0  0  0  0
    0.3240   -0.0420    2.6174 C   0  0  0  0  0  0  0  0  0  0  0  0
    0.2224    1.0371    2.7620 H   0  0  0  0  0  0  0  0  0  0  0  0
   -0.6669   -0.4878    2.7351 H   0  0  0  0  0  0  0  0  0  0  0  0
    1.2339   -0.5832    3.7214 C   0  0  0  0  0  0  0  0  0  0  0  0
    2.4314   -0.2026    3.7277 O   0  5  0  0  0  0  0  0  0  0  0  0
    0.6956   -1.2660    4.6286 O   0  0  0  0  0  0  0  0  0  0  0  0
    0.4868    0.5091   -1.2525 C   0  0  0  0  0  0  0  0  0  0  0  0
    1.4351   -0.1223   -1.6981 O   0  0  0  0  0  0  0  0  0  0  0  0
   -0.0089    1.5573   -2.0111 N   0  0  0  0  0  0  0  0  0  0  0  0
   -0.7922    2.0775   -1.6346 H   0  0  0  0  0  0  0  0  0  0  0  0
    0.5191    1.9216   -3.3187 C   0  0  0  0  0  0  0  0  0  0  0  0
    0.4173    1.0858   -4.0186 H   0  0  0  0  0  0  0  0  0  0  0  0
   -0.0294    2.7785   -3.7207 H   0  0  0  0  0  0  0  0  0  0  0  0
    1.5771    2.1932   -3.2422 H   0  0  0  0  0  0  0  0  0  0  0  0
  1  2  1  0  0  0  0
  2  3  1  0  0  0  0
  2  4  1  0  0  0  0
  2  5  1  0  0  0  0
  5  6  2  0  0  0  0
  5  7  1  0  0  0  0
  7  8  1  0  0  0  0
  7  9  1  0  0  0  0
  9 10  1  0  0  0  0
  9 11  1  0  0  0  0
  9 20  1  0  0  0  0
 11 12  1  0  0  0  0
 11 13  1  0  0  0  0
 11 14  1  0  0  0  0
 14 15  1  0  0  0  0
 14 16  1  0  0  0  0
 14 17  1  0  0  0  0
 17 18  1  0  0  0  0
 17 19  2  0  0  0  0
 20 21  2  0  0  0  0
 20 22  1  0  0  0  0
 22 23  1  0  0  0  0
 22 24  1  0  0  0  0
 24 25  1  0  0  0  0
 24 26  1  0  0  0  0
 24 27  1  0  0  0  0
M  CHG  1  18  -1
M  END
$$$$

  -OEChem-01062216073D

 27 26  0     1  0  0  0  0  0999 V2000
   -3.4914   -2.8876    1.2241 H   0  0  0  0  0  0  0  0  0  0  0  0
   -3.3338   -1.8924    0.7982 C   0  0  0  0  0  0  0  0  0  0  0  0
   -3.7603   -1.1508    1.4780 H   0  0  0  0  0  0  0  0  0  0  0  0
   -3.8467   -1.8357   -0.1648 H   0  0  0  0  0  0  0  0  0  0  0  0
   -1.8493   -1.6306    0.6124 C   0  0  0  0  0  0  0  0  0  0  0  0
   -1.0712   -2.5467    0.8010 O   0  0  0  0  0  0  0  0  0  0  0  0
   -1.4643   -0.3997    0.1100 N   0  0  0  0  0  0  0  0  0  0  0  0
   -2.2431    0.2209   -0.0752 H   0  0  0  0  0  0  0  0  0  0  0  0
   -0.1311    0.2453    0.1935 C   0  0  1  0  0  0  0  0  0  0  0  0
   -0.3364    1.2470    0.5771 H   0  0  0  0  0  0  0  0  0  0  0  0
    0.8993   -0.2932    1.2103 C   0  0  0  0  0  0  0  0  0  0  0  0
    1.0876   -1.3592    1.0549 H   0  0  0  0  0  0  0  0  0  0  0  0
    1.8549    0.2205    1.0596 H   0  0  0  0  0  0  0  0  0  0  0  0
    0.4170   -0.0241    2.6540 C   0  0  0  0  0  0  0  0  0  0  0  0
    0.3026    1.0531    2.8028 H   0  0  0  0  0  0  0  0  0  0  0  0
   -0.5605   -0.4888    2.8070 H   0  0  0  0  0  0  0  0  0  0  0  0
    1.3776   -0.5495    3.7234 C   0  0  0  0  0  0  0  0  0  0  0  0
    2.5919   -0.2419    3.6153 O   0  5  0  0  0  0  0  0  0  0  0  0
    0.8736   -1.1262    4.7198 O   0  0  0  0  0  0  0  0  0  0  0  0
    0.4590    0.5113   -1.2086 C   0  0  0  0  0  0  0  0  0  0  0  0
    1.0998   -0.3284   -1.8258 O   0  0  0  0  0  0  0  0  0  0  0  0
    0.1912    1.7180   -1.8351 N   0  0  0  0  0  0  0  0  0  0  0  0
   -0.2654    2.4355   -1.2837 H   0  0  0  0  0  0  0  0  0  0  0  0
    0.7199    2.0718   -3.1456 C   0  0  0  0  0  0  0  0  0  0  0  0
    0.3855    1.3522   -3.9001 H   0  0  0  0  0  0  0  0  0  0  0  0
    0.3679    3.0656   -3.4375 H   0  0  0  0  0  0  0  0  0  0  0  0
    1.8145    2.0828   -3.1270 H   0  0  0  0  0  0  0  0  0  0  0  0
  1  2  1  0  0  0  0
  2  3  1  0  0  0  0
  2  4  1  0  0  0  0
  2  5  1  0  0  0  0
  5  6  2  0  0  0  0
  5  7  1  0  0  0  0
  7  8  1  0  0  0  0
  7  9  1  0  0  0  0
  9 10  1  0  0  0  0
  9 11  1  0  0  0  0
  9 20  1  0  0  0  0
 11 12  1  0  0  0  0
 11 13  1  0  0  0  0
 11 14  1  0  0  0  0
 14 15  1  0  0  0  0
 14 16  1  0  0  0  0
 14 17  1  0  0  0  0
 17 18  1  0  0  0  0
 17 19  2  0  0  0  0
 20 21  2  0  0  0  0
 20 22  1  0  0  0  0
 22 23  1  0  0  0  0
 22 24  1  0  0  0  0
 24 25  1  0  0  0  0
 24 26  1  0  0  0  0
 24 27  1  0  0  0  0
M  CHG  1  18  -1
M  END
$$$$

  -OEChem-01062216073D

 27 26  0     1  0  0  0  0  0999 V2000
   -3.5764   -2.8720    1.1011 H   0  0  0  0  0  0  0  0  0  0  0  0
   -3.3788   -1.9066    0.6260 C   0  0  0  0  0  0  0  0  0  0  0  0
   -3.9440   -1.1345    1.1537 H   0  0  0  0  0  0  0  0  0  0  0  0
   -3.7135   -1.9499   -0.4133 H   0  0  0  0  0  0  0  0  0  0  0  0
   -1.8942   -1.5899    0.6787 C   0  0  0  0  0  0  0  0  0  0  0  0
   -1.1346   -2.4543    1.0733 O   0  0  0  0  0  0  0  0  0  0  0  0
   -1.4780   -0.3687    0.1784 N   0  0  0  0  0  0  0  0  0  0  0  0
   -2.2221    0.1956   -0.2144 H   0  0  0  0  0  0  0  0  0  0  0  0
   -0.1399    0.2648    0.2490 C   0  0  1  0  0  0  0  0  0  0  0  0
   -0.3451    1.2649    0.6372 H   0  0  0  0  0  0  0  0  0  0  0  0
    0.9176   -0.2678    1.2382 C   0  0  0  0  0  0  0  0  0  0  0  0
    1.0993   -1.3341    1.0736 H   0  0  0  0  0  0  0  0  0  0  0  0
    1.8678    0.2468    1.0590 H   0  0  0  0  0  0  0  0  0  0  0  0
    0.4860   -0.0089    2.6993 C   0  0  0  0  0  0  0  0  0  0  0  0
    0.3727    1.0668    2.8585 H   0  0  0  0  0  0  0  0  0  0  0  0
   -0.4830   -0.4791    2.8862 H   0  0  0  0  0  0  0  0  0  0  0  0
    1.4919   -0.5373    3.7258 C   0  0  0  0  0  0  0  0  0  0  0  0
    2.7087   -0.2871    3.5269 O   0  5  0  0  0  0  0  0  0  0  0  0
    1.0333   -1.0508    4.7768 O   0  0  0  0  0  0  0  0  0  0  0  0
    0.4424    0.5226   -1.1573 C   0  0  0  0  0  0  0  0  0  0  0  0
    0.7097   -0.3921   -1.9255 O   0  0  0  0  0  0  0  0  0  0  0  0
    0.4590    1.8146   -1.6571 N   0  0  0  0  0  0  0  0  0  0  0  0
    0.3265    2.5662   -0.9887 H   0  0  0  0  0  0  0  0  0  0  0  0
    0.9569    2.1445   -2.9858 C   0  0  0  0  0  0  0  0  0  0  0  0
    0.3666    1.6333   -3.7533 H   0  0  0  0  0  0  0  0  0  0  0  0
    0.8855    3.2225   -3.1574 H   0  0  0  0  0  0  0  0  0  0  0  0
    2.0051    1.8448   -3.0872 H   0  0  0  0  0  0  0  0  0  0  0  0
  1  2  1  0  0  0  0
  2  3  1  0  0  0  0
  2  4  1  0  0  0  0
  2  5  1  0  0  0  0
  5  6  2  0  0  0  0
  5  7  1  0  0  0  0
  7  8  1  0  0  0  0
  7  9  1  0  0  0  0
  9 10  1  0  0  0  0
  9 11  1  0  0  0  0
  9 20  1  0  0  0  0
 11 12  1  0  0  0  0
 11 13  1  0  0  0  0
 11 14  1  0  0  0  0
 14 15  1  0  0  0  0
 14 16  1  0  0  0  0
 14 17  1  0  0  0  0
 17 18  1  0  0  0  0
 17 19  2  0  0  0  0
 20 21  2  0  0  0  0
 20 22  1  0  0  0  0
 22 23  1  0  0  0  0
 22 24  1  0  0  0  0
 24 25  1  0  0  0  0
 24 26  1  0  0  0  0
 24 27  1  0  0  0  0
M  CHG  1  18  -1
M  END
$$$$

  -OEChem-01062216073D

 27 26  0     1  0  0  0  0  0999 V2000
   -3.6059   -2.8764    1.0480 H   0  0  0  0  0  0  0  0  0  0  0  0
   -3.3942   -1.9164    0.5683 C   0  0  0  0  0  0  0  0  0  0  0  0
   -4.0060   -1.1456    1.0431 H   0  0  0  0  0  0  0  0  0  0  0  0
   -3.6590   -1.9849   -0.4896 H   0  0  0  0  0  0  0  0  0  0  0  0
   -1.9218   -1.5707    0.7112 C   0  0  0  0  0  0  0  0  0  0  0  0
   -1.1779   -2.4068    1.1888 O   0  0  0  0  0  0  0  0  0  0  0  0
   -1.4941   -0.3554    0.2069 N   0  0  0  0  0  0  0  0  0  0  0  0
   -2.2031    0.1593   -0.3025 H   0  0  0  0  0  0  0  0  0  0  0  0
   -0.1496    0.2645    0.2648 C   0  0  1  0  0  0  0  0  0  0  0  0
   -0.3542    1.2663    0.6494 H   0  0  0  0  0  0  0  0  0  0  0  0
    0.9187   -0.2625    1.2444 C   0  0  0  0  0  0  0  0  0  0  0  0
    1.0917   -1.3311    1.0854 H   0  0  0  0  0  0  0  0  0  0  0  0
    1.8683    0.2459    1.0463 H   0  0  0  0  0  0  0  0  0  0  0  0
    0.5152    0.0077    2.7107 C   0  0  0  0  0  0  0  0  0  0  0  0
    0.4093    1.0849    2.8646 H   0  0  0  0  0  0  0  0  0  0  0  0
   -0.4519   -0.4573    2.9193 H   0  0  0  0  0  0  0  0  0  0  0  0
    1.5406   -0.5189    3.7192 C   0  0  0  0  0  0  0  0  0  0  0  0
    2.7560   -0.3015    3.4758 O   0  5  0  0  0  0  0  0  0  0  0  0
    1.1051   -0.9974    4.7960 O   0  0  0  0  0  0  0  0  0  0  0  0
    0.4349    0.5207   -1.1406 C   0  0  0  0  0  0  0  0  0  0  0  0
    0.3740   -0.3252   -2.0246 O   0  0  0  0  0  0  0  0  0  0  0  0
    0.7548    1.8168   -1.5084 N   0  0  0  0  0  0  0  0  0  0  0  0
    0.8991    2.4770   -0.7505 H   0  0  0  0  0  0  0  0  0  0  0  0
    1.2569    2.1633   -2.8310 C   0  0  0  0  0  0  0  0  0  0  0  0
    0.5187    1.9119   -3.5995 H   0  0  0  0  0  0  0  0  0  0  0  0
    1.4591    3.2370   -2.8859 H   0  0  0  0  0  0  0  0  0  0  0  0
    2.1857    1.6230   -3.0414 H   0  0  0  0  0  0  0  0  0  0  0  0
  1  2  1  0  0  0  0
  2  3  1  0  0  0  0
  2  4  1  0  0  0  0
  2  5  1  0  0  0  0
  5  6  2  0  0  0  0
  5  7  1  0  0  0  0
  7  8  1  0  0  0  0
  7  9  1  0  0  0  0
  9 10  1  0  0  0  0
  9 11  1  0  0  0  0
  9 20  1  0  0  0  0
 11 12  1  0  0  0  0
 11 13  1  0  0  0  0
 11 14  1  0  0  0  0
 14 15  1  0  0  0  0
 14 16  1  0  0  0  0
 14 17  1  0  0  0  0
 17 18  1  0  0  0  0
 17 19  2  0  0  0  0
 20 21  2  0  0  0  0
 20 22  1  0  0  0  0
 22 23  1  0  0  0  0
 22 24  1  0  0  0  0
 24 25  1  0  0  0  0
 24 26  1  0  0  0  0
 24 27  1  0  0  0  0
M  CHG  1  18  -1
M  END
$$$$

  -OEChem-01062216073D

 27 26  0     1  0  0  0  0  0999 V2000
   -3.6201   -2.8772    1.0254 H   0  0  0  0  0  0  0  0  0  0  0  0
   -3.4017   -1.9199    0.5434 C   0  0  0  0  0  0  0  0  0  0  0  0
   -4.0377   -1.1508    0.9883 H   0  0  0  0  0  0  0  0  0  0  0  0
   -3.6292   -2.0019   -0.5223 H   0  0  0  0  0  0  0  0  0  0  0  0
   -1.9390   -1.5566    0.7333 C   0  0  0  0  0  0  0  0  0  0  0  0
   -1.2035   -2.3779    1.2486 O   0  0  0  0  0  0  0  0  0  0  0  0
   -1.5059   -0.3453    0.2251 N   0  0  0  0  0  0  0  0  0  0  0  0
   -2.1885    0.1318   -0.3533 H   0  0  0  0  0  0  0  0  0  0  0  0
   -0.1574    0.2666    0.2731 C   0  0  1  0  0  0  0  0  0  0  0  0
   -0.3577    1.2717    0.6524 H   0  0  0  0  0  0  0  0  0  0  0  0
    0.9164   -0.2597    1.2473 C   0  0  0  0  0  0  0  0  0  0  0  0
    1.0811   -1.3302    1.0911 H   0  0  0  0  0  0  0  0  0  0  0  0
    1.8676    0.2417    1.0391 H   0  0  0  0  0  0  0  0  0  0  0  0
    0.5319    0.0164    2.7170 C   0  0  0  0  0  0  0  0  0  0  0  0
    0.4341    1.0947    2.8686 H   0  0  0  0  0  0  0  0  0  0  0  0
   -0.4349   -0.4424    2.9399 H   0  0  0  0  0  0  0  0  0  0  0  0
    1.5699   -0.5132    3.7112 C   0  0  0  0  0  0  0  0  0  0  0  0
    2.7835   -0.3278    3.4333 O   0  5  0  0  0  0  0  0  0  0  0  0
    1.1515   -0.9636    4.8067 O   0  0  0  0  0  0  0  0  0  0  0  0
    0.4286    0.5216   -1.1318 C   0  0  0  0  0  0  0  0  0  0  0  0
    0.1125   -0.1730   -2.0918 O   0  0  0  0  0  0  0  0  0  0  0  0
    1.0420    1.7360   -1.3864 N   0  0  0  0  0  0  0  0  0  0  0  0
    1.3780    2.2450   -0.5735 H   0  0  0  0  0  0  0  0  0  0  0  0
    1.5699    2.0995   -2.6941 C   0  0  0  0  0  0  0  0  0  0  0  0
    0.7684    2.1192   -3.4395 H   0  0  0  0  0  0  0  0  0  0  0  0
    2.0248    3.0935   -2.6519 H   0  0  0  0  0  0  0  0  0  0  0  0
    2.3324    1.3812   -3.0120 H   0  0  0  0  0  0  0  0  0  0  0  0
  1  2  1  0  0  0  0
  2  3  1  0  0  0  0
  2  4  1  0  0  0  0
  2  5  1  0  0  0  0
  5  6  2  0  0  0  0
  5  7  1  0  0  0  0
  7  8  1  0  0  0  0
  7  9  1  0  0  0  0
  9 10  1  0  0  0  0
  9 11  1  0  0  0  0
  9 20  1  0  0  0  0
 11 12  1  0  0  0  0
 11 13  1  0  0  0  0
 11 14  1  0  0  0  0
 14 15  1  0  0  0  0
 14 16  1  0  0  0  0
 14 17  1  0  0  0  0
 17 18  1  0  0  0  0
 17 19  2  0  0  0  0
 20 21  2  0  0  0  0
 20 22  1  0  0  0  0
 22 23  1  0  0  0  0
 22 24  1  0  0  0  0
 24 25  1  0  0  0  0
 24 26  1  0  0  0  0
 24 27  1  0  0  0  0
M  CHG  1  18  -1
M  END
$$$$

  -OEChem-01062216073D

 27 26  0     1  0  0  0  0  0999 V2000
   -3.6191   -2.8674    1.0192 H   0  0  0  0  0  0  0  0  0  0  0  0
   -3.3967   -1.9139    0.5315 C   0  0  0  0  0  0  0  0  0  0  0  0
   -4.0444   -1.1436    0.9568 H   0  0  0  0  0  0  0  0  0  0  0  0
   -3.6042   -2.0075   -0.5372 H   0  0  0  0  0  0  0  0  0  0  0  0
   -1.9393   -1.5420    0.7444 C   0  0  0  0  0  0  0  0  0  0  0  0
   -1.2070   -2.3607    1.2685 O   0  0  0  0  0  0  0  0  0  0  0  0
   -1.5037   -0.3315    0.2374 N   0  0  0  0  0  0  0  0  0  0  0  0
   -2.1710    0.1255   -0.3751 H   0  0  0  0  0  0  0  0  0  0  0  0
   -0.1574    0.2851    0.2872 C   0  0  1  0  0  0  0  0  0  0  0  0
   -0.3530    1.2925    0.6633 H   0  0  0  0  0  0  0  0  0  0  0  0
    0.9161   -0.2511    1.2589 C   0  0  0  0  0  0  0  0  0  0  0  0
    1.0798   -1.3201    1.0916 H   0  0  0  0  0  0  0  0  0  0  0  0
    1.8688    0.2497    1.0584 H   0  0  0  0  0  0  0  0  0  0  0  0
    0.5357    0.0081    2.7329 C   0  0  0  0  0  0  0  0  0  0  0  0
    0.4381    1.0844    2.8980 H   0  0  0  0  0  0  0  0  0  0  0  0
   -0.4299   -0.4534    2.9548 H   0  0  0  0  0  0  0  0  0  0  0  0
    1.5782   -0.5345    3.7160 C   0  0  0  0  0  0  0  0  0  0  0  0
    2.7912   -0.3686    3.4226 O   0  5  0  0  0  0  0  0  0  0  0  0
    1.1670   -0.9781    4.8168 O   0  0  0  0  0  0  0  0  0  0  0  0
    0.4244    0.5368   -1.1205 C   0  0  0  0  0  0  0  0  0  0  0  0
   -0.0761    0.0235   -2.1167 O   0  0  0  0  0  0  0  0  0  0  0  0
    1.2964    1.5954   -1.3055 N   0  0  0  0  0  0  0  0  0  0  0  0
    1.7632    1.9393   -0.4700 H   0  0  0  0  0  0  0  0  0  0  0  0
    1.8575    1.9451   -2.6032 C   0  0  0  0  0  0  0  0  0  0  0  0
    1.0617    2.2067   -3.3082 H   0  0  0  0  0  0  0  0  0  0  0  0
    2.5252    2.8060   -2.5035 H   0  0  0  0  0  0  0  0  0  0  0  0
    2.4305    1.1058   -3.0106 H   0  0  0  0  0  0  0  0  0  0  0  0
  1  2  1  0  0  0  0
  2  3  1  0  0  0  0
  2  4  1  0  0  0  0
  2  5  1  0  0  0  0
  5  6  2  0  0  0  0
  5  7  1  0  0  0  0
  7  8  1  0  0  0  0
  7  9  1  0  0  0  0
  9 10  1  0  0  0  0
  9 11  1  0  0  0  0
  9 20  1  0  0  0  0
 11 12  1  0  0  0  0
 11 13  1  0  0  0  0
 11 14  1  0  0  0  0
 14 15  1  0  0  0  0
 14 16  1  0  0  0  0
 14 17  1  0  0  0  0
 17 18  1  0  0  0  0
 17 19  2  0  0  0  0
 20 21  2  0  0  0  0
 20 22  1  0  0  0  0
 22 23  1  0  0  0  0
 22 24  1  0  0  0  0
 24 25  1  0  0  0  0
 24 26  1  0  0  0  0
 24 27  1  0  0  0  0
M  CHG  1  18  -1
M  END
$$$$

  -OEChem-01062216073D

 27 26  0     1  0  0  0  0  0999 V2000
   -3.6074   -2.8608    1.0214 H   0  0  0  0  0  0  0  0  0  0  0  0
   -3.3863   -1.9042    0.5393 C   0  0  0  0  0  0  0  0  0  0  0  0
   -4.0253   -1.1347    0.9791 H   0  0  0  0  0  0  0  0  0  0  0  0
   -3.6072   -1.9869   -0.5277 H   0  0  0  0  0  0  0  0  0  0  0  0
   -1.9247   -1.5410    0.7381 C   0  0  0  0  0  0  0  0  0  0  0  0
   -1.1864   -2.3719    1.2341 O   0  0  0  0  0  0  0  0  0  0  0  0
   -1.4894   -0.3273    0.2390 N   0  0  0  0  0  0  0  0  0  0  0  0
   -2.1579    0.1368   -0.3674 H   0  0  0  0  0  0  0  0  0  0  0  0
   -0.1480    0.2994    0.2980 C   0  0  1  0  0  0  0  0  0  0  0  0
   -0.3437    1.3069    0.6745 H   0  0  0  0  0  0  0  0  0  0  0  0
    0.9175   -0.2466    1.2757 C   0  0  0  0  0  0  0  0  0  0  0  0
    1.0850   -1.3132    1.0981 H   0  0  0  0  0  0  0  0  0  0  0  0
    1.8724    0.2562    1.0958 H   0  0  0  0  0  0  0  0  0  0  0  0
    0.5245   -0.0045    2.7485 C   0  0  0  0  0  0  0  0  0  0  0  0
    0.4245    1.0699    2.9253 H   0  0  0  0  0  0  0  0  0  0  0  0
   -0.4421   -0.4697    2.9578 H   0  0  0  0  0  0  0  0  0  0  0  0
    1.5619   -0.5590    3.7306 C   0  0  0  0  0  0  0  0  0  0  0  0
    2.7767   -0.4002    3.4400 O   0  5  0  0  0  0  0  0  0  0  0  0
    1.1456   -1.0105    4.8262 O   0  0  0  0  0  0  0  0  0  0  0  0
    0.4315    0.5545   -1.1116 C   0  0  0  0  0  0  0  0  0  0  0  0
   -0.1964    0.2384   -2.1187 O   0  0  0  0  0  0  0  0  0  0  0  0
    1.5169    1.3996   -1.2614 N   0  0  0  0  0  0  0  0  0  0  0  0
    2.0634    1.5789   -0.4220 H   0  0  0  0  0  0  0  0  0  0  0  0
    2.1063    1.7188   -2.5540 C   0  0  0  0  0  0  0  0  0  0  0  0
    1.3734    2.2155   -3.1979 H   0  0  0  0  0  0  0  0  0  0  0  0
    2.9595    2.3904   -2.4214 H   0  0  0  0  0  0  0  0  0  0  0  0
    2.4550    0.8076   -3.0506 H   0  0  0  0  0  0  0  0  0  0  0  0
  1  2  1  0  0  0  0
  2  3  1  0  0  0  0
  2  4  1  0  0  0  0
  2  5  1  0  0  0  0
  5  6  2  0  0  0  0
  5  7  1  0  0  0  0
  7  8  1  0  0  0  0
  7  9  1  0  0  0  0
  9 10  1  0  0  0  0
  9 11  1  0  0  0  0
  9 20  1  0  0  0  0
 11 12  1  0  0  0  0
 11 13  1  0  0  0  0
 11 14  1  0  0  0  0
 14 15  1  0  0  0  0
 14 16  1  0  0  0  0
 14 17  1  0  0  0  0
 17 18  1  0  0  0  0
 17 19  2  0  0  0  0
 20 21  2  0  0  0  0
 20 22  1  0  0  0  0
 22 23  1  0  0  0  0
 22 24  1  0  0  0  0
 24 25  1  0  0  0  0
 24 26  1  0  0  0  0
 24 27  1  0  0  0  0
M  CHG  1  18  -1
M  END
$$$$

  -OEChem-01062216073D

 27 26  0     1  0  0  0  0  0999 V2000
   -3.6659   -2.7808    1.0718 H   0  0  0  0  0  0  0  0  0  0  0  0
   -3.4309   -1.8214    0.6020 C   0  0  0  0  0  0  0  0  0  0  0  0
   -3.9682   -1.0312    1.1320 H   0  0  0  0  0  0  0  0  0  0  0  0
   -3.7643   -1.8461   -0.4383 H   0  0  0  0  0  0  0  0  0  0  0  0
   -1.9355   -1.5610    0.6604 C   0  0  0  0  0  0  0  0  0  0  0  0
   -1.2021   -2.4784    0.9785 O   0  0  0  0  0  0  0  0  0  0  0  0
   -1.4715   -0.3486    0.1870 N   0  0  0  0  0  0  0  0  0  0  0  0
   -2.1678    0.2043   -0.3051 H   0  0  0  0  0  0  0  0  0  0  0  0
   -0.1261    0.2697    0.2501 C   0  0  1  0  0  0  0  0  0  0  0  0
   -0.2744    1.1580    0.8697 H   0  0  0  0  0  0  0  0  0  0  0  0
    1.0396   -0.4537    0.9674 C   0  0  0  0  0  0  0  0  0  0  0  0
    1.1664   -1.4534    0.5396 H   0  0  0  0  0  0  0  0  0  0  0  0
    1.9737    0.0882    0.7981 H   0  0  0  0  0  0  0  0  0  0  0  0
    0.8377   -0.5624    2.4960 C   0  0  0  0  0  0  0  0  0  0  0  0
    0.7763    0.4443    2.9179 H   0  0  0  0  0  0  0  0  0  0  0  0
   -0.0969   -1.0742    2.7301 H   0  0  0  0  0  0  0  0  0  0  0  0
    1.9905   -1.2997    3.1883 C   0  0  0  0  0  0  0  0  0  0  0  0
    3.1504   -1.1368    2.7251 O   0  5  0  0  0  0  0  0  0  0  0  0
    1.7312   -1.9105    4.2546 O   0  0  0  0  0  0  0  0  0  0  0  0
    0.2733    0.8708   -1.1181 C   0  0  0  0  0  0  0  0  0  0  0  0
   -0.5619    0.9842   -2.0122 O   0  0  0  0  0  0  0  0  0  0  0  0
    1.4952    1.4977   -1.2854 N   0  0  0  0  0  0  0  0  0  0  0  0
    2.1900    1.3339   -0.5596 H   0  0  0  0  0  0  0  0  0  0  0  0
    1.9254    2.0999   -2.5388 C   0  0  0  0  0  0  0  0  0  0  0  0
    1.2396    2.9001   -2.8349 H   0  0  0  0  0  0  0  0  0  0  0  0
    2.9257    2.5278   -2.4247 H   0  0  0  0  0  0  0  0  0  0  0  0
    1.9579    1.3472   -3.3330 H   0  0  0  0  0  0  0  0  0  0  0  0
  1  2  1  0  0  0  0
  2  3  1  0  0  0  0
  2  4  1  0  0  0  0
  2  5  1  0  0  0  0
  5  6  2  0  0  0  0
  5  7  1  0  0  0  0
  7  8  1  0  0  0  0
  7  9  1  0  0  0  0
  9 10  1  0  0  0  0
  9 11  1  0  0  0  0
  9 20  1  0  0  0  0
 11 12  1  0  0  0  0
 11 13  1  0  0  0  0
 11 14  1  0  0  0  0
 14 15  1  0  0  0  0
 14 16  1  0  0  0  0
 14 17  1  0  0  0  0
 17 18  1  0  0  0  0
 17 19  2  0  0  0  0
 20 21  2  0  0  0  0
 20 22  1  0  0  0  0
 22 23  1  0  0  0  0
 22 24  1  0  0  0  0
 24 25  1  0  0  0  0
 24 26  1  0  0  0  0
 24 27  1  0  0  0  0
M  CHG  1  18  -1
M  END
$$$$

  -OEChem-01062216073D

 27 26  0     1  0  0  0  0  0999 V2000
   -3.6510   -2.7618    1.0857 H   0  0  0  0  0  0  0  0  0  0  0  0
   -3.4143   -1.8074    0.6066 C   0  0  0  0  0  0  0  0  0  0  0  0
   -3.9372   -1.0095    1.1396 H   0  0  0  0  0  0  0  0  0  0  0  0
   -3.7626   -1.8347   -0.4288 H   0  0  0  0  0  0  0  0  0  0  0  0
   -1.9162   -1.5601    0.6425 C   0  0  0  0  0  0  0  0  0  0  0  0
   -1.1836   -2.4897    0.9261 O   0  0  0  0  0  0  0  0  0  0  0  0
   -1.4482   -0.3463    0.1773 N   0  0  0  0  0  0  0  0  0  0  0  0
   -2.1513    0.2304   -0.2767 H   0  0  0  0  0  0  0  0  0  0  0  0
   -0.1065    0.2767    0.2650 C   0  0  1  0  0  0  0  0  0  0  0  0
   -0.2583    1.1656    0.8833 H   0  0  0  0  0  0  0  0  0  0  0  0
    1.0463   -0.4574    0.9939 C   0  0  0  0  0  0  0  0  0  0  0  0
    1.1841   -1.4506    0.5545 H   0  0  0  0  0  0  0  0  0  0  0  0
    1.9809    0.0923    0.8540 H   0  0  0  0  0  0  0  0  0  0  0  0
    0.8201   -0.5855    2.5179 C   0  0  0  0  0  0  0  0  0  0  0  0
    0.7506    0.4153    2.9524 H   0  0  0  0  0  0  0  0  0  0  0  0
   -0.1176   -1.1013    2.7294 H   0  0  0  0  0  0  0  0  0  0  0  0
    1.9601   -1.3333    3.2211 C   0  0  0  0  0  0  0  0  0  0  0  0
    3.1220   -1.2115    2.7505 O   0  5  0  0  0  0  0  0  0  0  0  0
    1.6886   -1.9167    4.2998 O   0  0  0  0  0  0  0  0  0  0  0  0
    0.2953    0.8719   -1.1064 C   0  0  0  0  0  0  0  0  0  0  0  0
   -0.5761    1.1698   -1.9204 O   0  0  0  0  0  0  0  0  0  0  0  0
    1.6009    1.2335   -1.3868 N   0  0  0  0  0  0  0  0  0  0  0  0
    2.3104    0.9192   -0.7278 H   0  0  0  0  0  0  0  0  0  0  0  0
    2.0277    1.7929   -2.6610 C   0  0  0  0  0  0  0  0  0  0  0  0
    1.4983    2.7289   -2.8658 H   0  0  0  0  0  0  0  0  0  0  0  0
    3.1012    2.0021   -2.6374 H   0  0  0  0  0  0  0  0  0  0  0  0
    1.8286    1.0871   -3.4738 H   0  0  0  0  0  0  0  0  0  0  0  0
  1  2  1  0  0  0  0
  2  3  1  0  0  0  0
  2  4  1  0  0  0  0
  2  5  1  0  0  0  0
  5  6  2  0  0  0  0
  5  7  1  0  0  0  0
  7  8  1  0  0  0  0
  7  9  1  0  0  0  0
  9 10  1  0  0  0  0
  9 11  1  0  0  0  0
  9 20  1  0  0  0  0
 11 12  1  0  0  0  0
 11 13  1  0  0  0  0
 11 14  1  0  0  0  0
 14 15  1  0  0  0  0
 14 16  1  0  0  0  0
 14 17  1  0  0  0  0
 17 18  1  0  0  0  0
 17 19  2  0  0  0  0
 20 21  2  0  0  0  0
 20 22  1  0  0  0  0
 22 23  1  0  0  0  0
 22 24  1  0  0  0  0
 24 25  1  0  0  0  0
 24 26  1  0  0  0  0
 24 27  1  0  0  0  0
M  CHG  1  18  -1
M  END
$$$$

  -OEChem-01062216073D

 27 26  0     1  0  0  0  0  0999 V2000
   -3.6248   -2.7820    1.0663 H   0  0  0  0  0  0  0  0  0  0  0  0
   -3.3997   -1.8032    0.6331 C   0  0  0  0  0  0  0  0  0  0  0  0
   -3.8927   -1.0337    1.2320 H   0  0  0  0  0  0  0  0  0  0  0  0
   -3.7908   -1.7693   -0.3867 H   0  0  0  0  0  0  0  0  0  0  0  0
   -1.8997   -1.5670    0.6203 C   0  0  0  0  0  0  0  0  0  0  0  0
   -1.1622   -2.5054    0.8600 O   0  0  0  0  0  0  0  0  0  0  0  0
   -1.4361   -0.3521    0.1541 N   0  0  0  0  0  0  0  0  0  0  0  0
   -2.1535    0.2515   -0.2380 H   0  0  0  0  0  0  0  0  0  0  0  0
   -0.0981    0.2746    0.2613 C   0  0  1  0  0  0  0  0  0  0  0  0
   -0.2565    1.1657    0.8749 H   0  0  0  0  0  0  0  0  0  0  0  0
    1.0451   -0.4598    1.0037 C   0  0  0  0  0  0  0  0  0  0  0  0
    1.1965   -1.4499    0.5615 H   0  0  0  0  0  0  0  0  0  0  0  0
    1.9769    0.1001    0.8819 H   0  0  0  0  0  0  0  0  0  0  0  0
    0.7964   -0.5935    2.5231 C   0  0  0  0  0  0  0  0  0  0  0  0
    0.7177    0.4060    2.9591 H   0  0  0  0  0  0  0  0  0  0  0  0
   -0.1433   -1.1130    2.7171 H   0  0  0  0  0  0  0  0  0  0  0  0
    1.9254   -1.3418    3.2434 C   0  0  0  0  0  0  0  0  0  0  0  0
    3.0836   -1.2844    2.7518 O   0  5  0  0  0  0  0  0  0  0  0  0
    1.6494   -1.8665    4.3506 O   0  0  0  0  0  0  0  0  0  0  0  0
    0.3141    0.8607   -1.1094 C   0  0  0  0  0  0  0  0  0  0  0  0
   -0.5456    1.3484   -1.8393 O   0  0  0  0  0  0  0  0  0  0  0  0
    1.6378    0.9454   -1.5021 N   0  0  0  0  0  0  0  0  0  0  0  0
    2.3197    0.4782   -0.9075 H   0  0  0  0  0  0  0  0  0  0  0  0
    2.0687    1.4701   -2.7895 C   0  0  0  0  0  0  0  0  0  0  0  0
    1.7490    2.5107   -2.9051 H   0  0  0  0  0  0  0  0  0  0  0  0
    3.1596    1.4342   -2.8626 H   0  0  0  0  0  0  0  0  0  0  0  0
    1.6462    0.8755   -3.6059 H   0  0  0  0  0  0  0  0  0  0  0  0
  1  2  1  0  0  0  0
  2  3  1  0  0  0  0
  2  4  1  0  0  0  0
  2  5  1  0  0  0  0
  5  6  2  0  0  0  0
  5  7  1  0  0  0  0
  7  8  1  0  0  0  0
  7  9  1  0  0  0  0
  9 10  1  0  0  0  0
  9 11  1  0  0  0  0
  9 20  1  0  0  0  0
 11 12  1  0  0  0  0
 11 13  1  0  0  0  0
 11 14  1  0  0  0  0
 14 15  1  0  0  0  0
 14 16  1  0  0  0  0
 14 17  1  0  0  0  0
 17 18  1  0  0  0  0
 17 19  2  0  0  0  0
 20 21  2  0  0  0  0
 20 22  1  0  0  0  0
 22 23  1  0  0  0  0
 22 24  1  0  0  0  0
 24 25  1  0  0  0  0
 24 26  1  0  0  0  0
 24 27  1  0  0  0  0
M  CHG  1  18  -1
M  END
$$$$

  -OEChem-01062216073D

 27 26  0     1  0  0  0  0  0999 V2000
   -3.6049   -2.7799    1.1006 H   0  0  0  0  0  0  0  0  0  0  0  0
   -3.3904   -1.7990    0.6668 C   0  0  0  0  0  0  0  0  0  0  0  0
   -3.8574   -1.0320    1.2894 H   0  0  0  0  0  0  0  0  0  0  0  0
   -3.8183   -1.7550   -0.3376 H   0  0  0  0  0  0  0  0  0  0  0  0
   -1.8901   -1.5712    0.6017 C   0  0  0  0  0  0  0  0  0  0  0  0
   -1.1482   -2.5157    0.8017 O   0  0  0  0  0  0  0  0  0  0  0  0
   -1.4330   -0.3554    0.1315 N   0  0  0  0  0  0  0  0  0  0  0  0
   -2.1625    0.2656   -0.2070 H   0  0  0  0  0  0  0  0  0  0  0  0
   -0.0994    0.2774    0.2553 C   0  0  1  0  0  0  0  0  0  0  0  0
   -0.2641    1.1694    0.8661 H   0  0  0  0  0  0  0  0  0  0  0  0
    1.0400   -0.4554    1.0031 C   0  0  0  0  0  0  0  0  0  0  0  0
    1.2023   -1.4420    0.5572 H   0  0  0  0  0  0  0  0  0  0  0  0
    1.9679    0.1142    0.8888 H   0  0  0  0  0  0  0  0  0  0  0  0
    0.7781   -0.6008    2.5191 C   0  0  0  0  0  0  0  0  0  0  0  0
    0.6886    0.3952    2.9612 H   0  0  0  0  0  0  0  0  0  0  0  0
   -0.1599   -1.1283    2.6995 H   0  0  0  0  0  0  0  0  0  0  0  0
    1.9032   -1.3478    3.2468 C   0  0  0  0  0  0  0  0  0  0  0  0
    3.0569   -1.3280    2.7418 O   0  5  0  0  0  0  0  0  0  0  0  0
    1.6269   -1.8422    4.3680 O   0  0  0  0  0  0  0  0  0  0  0  0
    0.3255    0.8539   -1.1127 C   0  0  0  0  0  0  0  0  0  0  0  0
   -0.4843    1.5065   -1.7661 O   0  0  0  0  0  0  0  0  0  0  0  0
    1.5991    0.6705   -1.6195 N   0  0  0  0  0  0  0  0  0  0  0  0
    2.2248    0.0769   -1.0775 H   0  0  0  0  0  0  0  0  0  0  0  0
    2.0296    1.1476   -2.9250 C   0  0  0  0  0  0  0  0  0  0  0  0
    1.9366    2.2368   -2.9844 H   0  0  0  0  0  0  0  0  0  0  0  0
    3.0768    0.8802   -3.0950 H   0  0  0  0  0  0  0  0  0  0  0  0
    1.4228    0.6955   -3.7160 H   0  0  0  0  0  0  0  0  0  0  0  0
  1  2  1  0  0  0  0
  2  3  1  0  0  0  0
  2  4  1  0  0  0  0
  2  5  1  0  0  0  0
  5  6  2  0  0  0  0
  5  7  1  0  0  0  0
  7  8  1  0  0  0  0
  7  9  1  0  0  0  0
  9 10  1  0  0  0  0
  9 11  1  0  0  0  0
  9 20  1  0  0  0  0
 11 12  1  0  0  0  0
 11 13  1  0  0  0  0
 11 14  1  0  0  0  0
 14 15  1  0  0  0  0
 14 16  1  0  0  0  0
 14 17  1  0  0  0  0
 17 18  1  0  0  0  0
 17 19  2  0  0  0  0
 20 21  2  0  0  0  0
 20 22  1  0  0  0  0
 22 23  1  0  0  0  0
 22 24  1  0  0  0  0
 24 25  1  0  0  0  0
 24 26  1  0  0  0  0
 24 27  1  0  0  0  0
M  CHG  1  18  -1
M  END
$$$$

  -OEChem-01062216073D

 27 26  0     1  0  0  0  0  0999 V2000
   -3.5830   -2.7815    1.1433 H   0  0  0  0  0  0  0  0  0  0  0  0
   -3.3821   -1.7951    0.7154 C   0  0  0  0  0  0  0  0  0  0  0  0
   -3.8167   -1.0352    1.3695 H   0  0  0  0  0  0  0  0  0  0  0  0
   -3.8533   -1.7338   -0.2685 H   0  0  0  0  0  0  0  0  0  0  0  0
   -1.8851   -1.5743    0.5880 C   0  0  0  0  0  0  0  0  0  0  0  0
   -1.1393   -2.5247    0.7408 O   0  0  0  0  0  0  0  0  0  0  0  0
   -1.4385   -0.3590    0.1068 N   0  0  0  0  0  0  0  0  0  0  0  0
   -2.1802    0.2754   -0.1750 H   0  0  0  0  0  0  0  0  0  0  0  0
   -0.1089    0.2791    0.2412 C   0  0  1  0  0  0  0  0  0  0  0  0
   -0.2791    1.1731    0.8481 H   0  0  0  0  0  0  0  0  0  0  0  0
    1.0293   -0.4509    0.9918 C   0  0  0  0  0  0  0  0  0  0  0  0
    1.1979   -1.4361    0.5450 H   0  0  0  0  0  0  0  0  0  0  0  0
    1.9545    0.1241    0.8772 H   0  0  0  0  0  0  0  0  0  0  0  0
    0.7598   -0.6042    2.5054 C   0  0  0  0  0  0  0  0  0  0  0  0
    0.6613    0.3895    2.9510 H   0  0  0  0  0  0  0  0  0  0  0  0
   -0.1762   -1.1386    2.6773 H   0  0  0  0  0  0  0  0  0  0  0  0
    1.8832   -1.3490    3.2382 C   0  0  0  0  0  0  0  0  0  0  0  0
    3.0324   -1.3597    2.7235 O   0  5  0  0  0  0  0  0  0  0  0  0
    1.6073   -1.8184    4.3703 O   0  0  0  0  0  0  0  0  0  0  0  0
    0.3304    0.8433   -1.1243 C   0  0  0  0  0  0  0  0  0  0  0  0
   -0.3899    1.6555   -1.6976 O   0  0  0  0  0  0  0  0  0  0  0  0
    1.4877    0.4113   -1.7451 N   0  0  0  0  0  0  0  0  0  0  0  0
    2.0308   -0.2980   -1.2561 H   0  0  0  0  0  0  0  0  0  0  0  0
    1.9190    0.8559   -3.0614 C   0  0  0  0  0  0  0  0  0  0  0  0
    2.0606    1.9413   -3.0709 H   0  0  0  0  0  0  0  0  0  0  0  0
    2.8686    0.3810   -3.3253 H   0  0  0  0  0  0  0  0  0  0  0  0
    1.1749    0.5879   -3.8182 H   0  0  0  0  0  0  0  0  0  0  0  0
  1  2  1  0  0  0  0
  2  3  1  0  0  0  0
  2  4  1  0  0  0  0
  2  5  1  0  0  0  0
  5  6  2  0  0  0  0
  5  7  1  0  0  0  0
  7  8  1  0  0  0  0
  7  9  1  0  0  0  0
  9 10  1  0  0  0  0
  9 11  1  0  0  0  0
  9 20  1  0  0  0  0
 11 12  1  0  0  0  0
 11 13  1  0  0  0  0
 11 14  1  0  0  0  0
 14 15  1  0  0  0  0
 14 16  1  0  0  0  0
 14 17  1  0  0  0  0
 17 18  1  0  0  0  0
 17 19  2  0  0  0  0
 20 21  2  0  0  0  0
 20 22  1  0  0  0  0
 22 23  1  0  0  0  0
 22 24  1  0  0  0  0
 24 25  1  0  0  0  0
 24 26  1  0  0  0  0
 24 27  1  0  0  0  0
M  CHG  1  18  -1
M  END
$$$$

  -OEChem-01062216073D

 27 26  0     1  0  0  0  0  0999 V2000
   -3.5597   -2.7702    1.2107 H   0  0  0  0  0  0  0  0  0  0  0  0
   -3.3724   -1.7878    0.7676 C   0  0  0  0  0  0  0  0  0  0  0  0
   -3.7744   -1.0216    1.4351 H   0  0  0  0  0  0  0  0  0  0  0  0
   -3.8858   -1.7299   -0.1953 H   0  0  0  0  0  0  0  0  0  0  0  0
   -1.8810   -1.5757    0.5752 C   0  0  0  0  0  0  0  0  0  0  0  0
   -1.1344   -2.5329    0.6748 O   0  0  0  0  0  0  0  0  0  0  0  0
   -1.4450   -0.3600    0.0857 N   0  0  0  0  0  0  0  0  0  0  0  0
   -2.1967    0.2856   -0.1366 H   0  0  0  0  0  0  0  0  0  0  0  0
   -0.1180    0.2823    0.2274 C   0  0  1  0  0  0  0  0  0  0  0  0
   -0.2905    1.1761    0.8343 H   0  0  0  0  0  0  0  0  0  0  0  0
    1.0198   -0.4490    0.9765 C   0  0  0  0  0  0  0  0  0  0  0  0
    1.1911   -1.4324    0.5273 H   0  0  0  0  0  0  0  0  0  0  0  0
    1.9441    0.1278    0.8612 H   0  0  0  0  0  0  0  0  0  0  0  0
    0.7444   -0.6113    2.4882 C   0  0  0  0  0  0  0  0  0  0  0  0
    0.6424    0.3802    2.9377 H   0  0  0  0  0  0  0  0  0  0  0  0
   -0.1913   -1.1484    2.6526 H   0  0  0  0  0  0  0  0  0  0  0  0
    1.8639   -1.3571    3.2256 C   0  0  0  0  0  0  0  0  0  0  0  0
    3.0128   -1.3808    2.7113 O   0  5  0  0  0  0  0  0  0  0  0  0
    1.5830   -1.8202    4.3591 O   0  0  0  0  0  0  0  0  0  0  0  0
    0.3326    0.8398   -1.1345 C   0  0  0  0  0  0  0  0  0  0  0  0
   -0.2599    1.7981   -1.6205 O   0  0  0  0  0  0  0  0  0  0  0  0
    1.3096    0.1998   -1.8730 N   0  0  0  0  0  0  0  0  0  0  0  0
    1.7377   -0.6203   -1.4477 H   0  0  0  0  0  0  0  0  0  0  0  0
    1.7308    0.6173   -3.2011 C   0  0  0  0  0  0  0  0  0  0  0  0
    2.1023    1.6468   -3.1787 H   0  0  0  0  0  0  0  0  0  0  0  0
    2.5340   -0.0326   -3.5609 H   0  0  0  0  0  0  0  0  0  0  0  0
    0.8937    0.5567   -3.9040 H   0  0  0  0  0  0  0  0  0  0  0  0
  1  2  1  0  0  0  0
  2  3  1  0  0  0  0
  2  4  1  0  0  0  0
  2  5  1  0  0  0  0
  5  6  2  0  0  0  0
  5  7  1  0  0  0  0
  7  8  1  0  0  0  0
  7  9  1  0  0  0  0
  9 10  1  0  0  0  0
  9 11  1  0  0  0  0
  9 20  1  0  0  0  0
 11 12  1  0  0  0  0
 11 13  1  0  0  0  0
 11 14  1  0  0  0  0
 14 15  1  0  0  0  0
 14 16  1  0  0  0  0
 14 17  1  0  0  0  0
 17 18  1  0  0  0  0
 17 19  2  0  0  0  0
 20 21  2  0  0  0  0
 20 22  1  0  0  0  0
 22 23  1  0  0  0  0
 22 24  1  0  0  0  0
 24 25  1  0  0  0  0
 24 26  1  0  0  0  0
 24 27  1  0  0  0  0
M  CHG  1  18  -1
M  END
$$$$

  -OEChem-01062216073D

 27 26  0     1  0  0  0  0  0999 V2000
   -3.5219   -2.7876    1.2436 H   0  0  0  0  0  0  0  0  0  0  0  0
   -3.3505   -1.7839    0.8440 C   0  0  0  0  0  0  0  0  0  0  0  0
   -3.6904   -1.0522    1.5810 H   0  0  0  0  0  0  0  0  0  0  0  0
   -3.9304   -1.6642   -0.0742 H   0  0  0  0  0  0  0  0  0  0  0  0
   -1.8733   -1.5796    0.5574 C   0  0  0  0  0  0  0  0  0  0  0  0
   -1.1270   -2.5422    0.5854 O   0  0  0  0  0  0  0  0  0  0  0  0
   -1.4566   -0.3629    0.0543 N   0  0  0  0  0  0  0  0  0  0  0  0
   -2.2193    0.2874   -0.1076 H   0  0  0  0  0  0  0  0  0  0  0  0
   -0.1351    0.2895    0.2064 C   0  0  1  0  0  0  0  0  0  0  0  0
   -0.3144    1.1833    0.8116 H   0  0  0  0  0  0  0  0  0  0  0  0
    1.0029   -0.4405    0.9556 C   0  0  0  0  0  0  0  0  0  0  0  0
    1.1846   -1.4194    0.5008 H   0  0  0  0  0  0  0  0  0  0  0  0
    1.9240    0.1427    0.8480 H   0  0  0  0  0  0  0  0  0  0  0  0
    0.7172   -0.6152    2.4642 C   0  0  0  0  0  0  0  0  0  0  0  0
    0.6034    0.3724    2.9194 H   0  0  0  0  0  0  0  0  0  0  0  0
   -0.2153   -1.1609    2.6169 H   0  0  0  0  0  0  0  0  0  0  0  0
    1.8337   -1.3593    3.2076 C   0  0  0  0  0  0  0  0  0  0  0  0
    2.9873   -1.3776    2.7051 O   0  5  0  0  0  0  0  0  0  0  0  0
    1.5412   -1.8334    4.3335 O   0  0  0  0  0  0  0  0  0  0  0  0
    0.3282    0.8367   -1.1532 C   0  0  0  0  0  0  0  0  0  0  0  0
   -0.0895    1.9191   -1.5512 O   0  0  0  0  0  0  0  0  0  0  0  0
    1.0780    0.0424   -1.9985 N   0  0  0  0  0  0  0  0  0  0  0  0
    1.3602   -0.8660   -1.6355 H   0  0  0  0  0  0  0  0  0  0  0  0
    1.4959    0.4409   -3.3332 C   0  0  0  0  0  0  0  0  0  0  0  0
    2.0980    1.3541   -3.2886 H   0  0  0  0  0  0  0  0  0  0  0  0
    2.0995   -0.3499   -3.7885 H   0  0  0  0  0  0  0  0  0  0  0  0
    0.6233    0.6213   -3.9690 H   0  0  0  0  0  0  0  0  0  0  0  0
  1  2  1  0  0  0  0
  2  3  1  0  0  0  0
  2  4  1  0  0  0  0
  2  5  1  0  0  0  0
  5  6  2  0  0  0  0
  5  7  1  0  0  0  0
  7  8  1  0  0  0  0
  7  9  1  0  0  0  0
  9 10  1  0  0  0  0
  9 11  1  0  0  0  0
  9 20  1  0  0  0  0
 11 12  1  0  0  0  0
 11 13  1  0  0  0  0
 11 14  1  0  0  0  0
 14 15  1  0  0  0  0
 14 16  1  0  0  0  0
 14 17  1  0  0  0  0
 17 18  1  0  0  0  0
 17 19  2  0  0  0  0
 20 21  2  0  0  0  0
 20 22  1  0  0  0  0
 22 23  1  0  0  0  0
 22 24  1  0  0  0  0
 24 25  1  0  0  0  0
 24 26  1  0  0  0  0
 24 27  1  0  0  0  0
M  CHG  1  18  -1
M  END
$$$$

  -OEChem-01062216073D

 27 26  0     1  0  0  0  0  0999 V2000
   -3.4796   -2.7857    1.3181 H   0  0  0  0  0  0  0  0  0  0  0  0
   -3.3283   -1.7827    0.9088 C   0  0  0  0  0  0  0  0  0  0  0  0
   -3.6307   -1.0496    1.6608 H   0  0  0  0  0  0  0  0  0  0  0  0
   -3.9529   -1.6643    0.0200 H   0  0  0  0  0  0  0  0  0  0  0  0
   -1.8672   -1.5804    0.5489 C   0  0  0  0  0  0  0  0  0  0  0  0
   -1.1257   -2.5464    0.5062 O   0  0  0  0  0  0  0  0  0  0  0  0
   -1.4683   -0.3630    0.0350 N   0  0  0  0  0  0  0  0  0  0  0  0
   -2.2379    0.2894   -0.0756 H   0  0  0  0  0  0  0  0  0  0  0  0
   -0.1496    0.2954    0.1918 C   0  0  1  0  0  0  0  0  0  0  0  0
   -0.3312    1.1891    0.7972 H   0  0  0  0  0  0  0  0  0  0  0  0
    0.9896   -0.4350    0.9382 C   0  0  0  0  0  0  0  0  0  0  0  0
    1.1776   -1.4102    0.4784 H   0  0  0  0  0  0  0  0  0  0  0  0
    1.9084    0.1525    0.8346 H   0  0  0  0  0  0  0  0  0  0  0  0
    0.6978   -0.6176    2.4453 C   0  0  0  0  0  0  0  0  0  0  0  0
    0.5798    0.3674    2.9050 H   0  0  0  0  0  0  0  0  0  0  0  0
   -0.2341   -1.1658    2.5917 H   0  0  0  0  0  0  0  0  0  0  0  0
    1.8119   -1.3619    3.1915 C   0  0  0  0  0  0  0  0  0  0  0  0
    2.9853   -1.2989    2.7418 O   0  5  0  0  0  0  0  0  0  0  0  0
    1.4925   -1.9205    4.2707 O   0  0  0  0  0  0  0  0  0  0  0  0
    0.3173    0.8355   -1.1683 C   0  0  0  0  0  0  0  0  0  0  0  0
    0.1226    2.0076   -1.4707 O   0  0  0  0  0  0  0  0  0  0  0  0
    0.7942   -0.0458   -2.1182 N   0  0  0  0  0  0  0  0  0  0  0  0
    0.8945   -1.0153   -1.8238 H   0  0  0  0  0  0  0  0  0  0  0  0
    1.2100    0.3450   -3.4560 C   0  0  0  0  0  0  0  0  0  0  0  0
    2.0117    1.0888   -3.4045 H   0  0  0  0  0  0  0  0  0  0  0  0
    1.5812   -0.5266   -4.0034 H   0  0  0  0  0  0  0  0  0  0  0  0
    0.3666    0.7694   -4.0098 H   0  0  0  0  0  0  0  0  0  0  0  0
  1  2  1  0  0  0  0
  2  3  1  0  0  0  0
  2  4  1  0  0  0  0
  2  5  1  0  0  0  0
  5  6  2  0  0  0  0
  5  7  1  0  0  0  0
  7  8  1  0  0  0  0
  7  9  1  0  0  0  0
  9 10  1  0  0  0  0
  9 11  1  0  0  0  0
  9 20  1  0  0  0  0
 11 12  1  0  0  0  0
 11 13  1  0  0  0  0
 11 14  1  0  0  0  0
 14 15  1  0  0  0  0
 14 16  1  0  0  0  0
 14 17  1  0  0  0  0
 17 18  1  0  0  0  0
 17 19  2  0  0  0  0
 20 21  2  0  0  0  0
 20 22  1  0  0  0  0
 22 23  1  0  0  0  0
 22 24  1  0  0  0  0
 24 25  1  0  0  0  0
 24 26  1  0  0  0  0
 24 27  1  0  0  0  0
M  CHG  1  18  -1
M  END
$$$$

  -OEChem-01062216073D

 27 26  0     1  0  0  0  0  0999 V2000
   -3.4066   -2.7772    1.4461 H   0  0  0  0  0  0  0  0  0  0  0  0
   -3.2919   -1.7850    1.0004 C   0  0  0  0  0  0  0  0  0  0  0  0
   -3.5453   -1.0342    1.7530 H   0  0  0  0  0  0  0  0  0  0  0  0
   -3.9790   -1.6933    0.1559 H   0  0  0  0  0  0  0  0  0  0  0  0
   -1.8614   -1.5859    0.5327 C   0  0  0  0  0  0  0  0  0  0  0  0
   -1.1358   -2.5554    0.3958 O   0  0  0  0  0  0  0  0  0  0  0  0
   -1.4854   -0.3657    0.0096 N   0  0  0  0  0  0  0  0  0  0  0  0
   -2.2608    0.2870   -0.0419 H   0  0  0  0  0  0  0  0  0  0  0  0
   -0.1698    0.3004    0.1708 C   0  0  1  0  0  0  0  0  0  0  0  0
   -0.3552    1.1928    0.7768 H   0  0  0  0  0  0  0  0  0  0  0  0
    0.9669   -0.4334    0.9173 C   0  0  0  0  0  0  0  0  0  0  0  0
    1.1598   -1.4049    0.4520 H   0  0  0  0  0  0  0  0  0  0  0  0
    1.8852    0.1563    0.8222 H   0  0  0  0  0  0  0  0  0  0  0  0
    0.6656   -0.6232    2.4219 C   0  0  0  0  0  0  0  0  0  0  0  0
    0.5446    0.3598    2.8851 H   0  0  0  0  0  0  0  0  0  0  0  0
   -0.2666   -1.1727    2.5606 H   0  0  0  0  0  0  0  0  0  0  0  0
    1.7738   -1.3706    3.1729 C   0  0  0  0  0  0  0  0  0  0  0  0
    2.9591   -1.2575    2.7677 O   0  5  0  0  0  0  0  0  0  0  0  0
    1.4328   -1.9874    4.2131 O   0  0  0  0  0  0  0  0  0  0  0  0
    0.3021    0.8401   -1.1877 C   0  0  0  0  0  0  0  0  0  0  0  0
    0.3612    2.0462   -1.3970 O   0  0  0  0  0  0  0  0  0  0  0  0
    0.4893   -0.0459   -2.2301 N   0  0  0  0  0  0  0  0  0  0  0  0
    0.4193   -1.0343   -1.9948 H   0  0  0  0  0  0  0  0  0  0  0  0
    0.9162    0.3470   -3.5638 C   0  0  0  0  0  0  0  0  0  0  0  0
    1.8858    0.8533   -3.5199 H   0  0  0  0  0  0  0  0  0  0  0  0
    1.0146   -0.5364   -4.2017 H   0  0  0  0  0  0  0  0  0  0  0  0
    0.1833    1.0219   -4.0172 H   0  0  0  0  0  0  0  0  0  0  0  0
  1  2  1  0  0  0  0
  2  3  1  0  0  0  0
  2  4  1  0  0  0  0
  2  5  1  0  0  0  0
  5  6  2  0  0  0  0
  5  7  1  0  0  0  0
  7  8  1  0  0  0  0
  7  9  1  0  0  0  0
  9 10  1  0  0  0  0
  9 11  1  0  0  0  0
  9 20  1  0  0  0  0
 11 12  1  0  0  0  0
 11 13  1  0  0  0  0
 11 14  1  0  0  0  0
 14 15  1  0  0  0  0
 14 16  1  0  0  0  0
 14 17  1  0  0  0  0
 17 18  1  0  0  0  0
 17 19  2  0  0  0  0
 20 21  2  0  0  0  0
 20 22  1  0  0  0  0
 22 23  1  0  0  0  0
 22 24  1  0  0  0  0
 24 25  1  0  0  0  0
 24 26  1  0  0  0  0
 24 27  1  0  0  0  0
M  CHG  1  18  -1
M  END
$$$$

  -OEChem-01062216073D

 27 26  0     1  0  0  0  0  0999 V2000
   -3.3709   -2.8027    1.4827 H   0  0  0  0  0  0  0  0  0  0  0  0
   -3.2660   -1.7938    1.0735 C   0  0  0  0  0  0  0  0  0  0  0  0
   -3.4609   -1.0728    1.8714 H   0  0  0  0  0  0  0  0  0  0  0  0
   -4.0004   -1.6553    0.2766 H   0  0  0  0  0  0  0  0  0  0  0  0
   -1.8627   -1.5946    0.5302 C   0  0  0  0  0  0  0  0  0  0  0  0
   -1.1545   -2.5642    0.3211 O   0  0  0  0  0  0  0  0  0  0  0  0
   -1.5082   -0.3716    0.0002 N   0  0  0  0  0  0  0  0  0  0  0  0
   -2.2889    0.2765   -0.0086 H   0  0  0  0  0  0  0  0  0  0  0  0
   -0.1961    0.3062    0.1567 C   0  0  1  0  0  0  0  0  0  0  0  0
   -0.3841    1.1976    0.7634 H   0  0  0  0  0  0  0  0  0  0  0  0
    0.9442   -0.4274    0.8986 C   0  0  0  0  0  0  0  0  0  0  0  0
    1.1384   -1.3966    0.4289 H   0  0  0  0  0  0  0  0  0  0  0  0
    1.8611    0.1649    0.8042 H   0  0  0  0  0  0  0  0  0  0  0  0
    0.6445   -0.6227    2.4034 C   0  0  0  0  0  0  0  0  0  0  0  0
    0.5210    0.3585    2.8695 H   0  0  0  0  0  0  0  0  0  0  0  0
   -0.2859   -1.1749    2.5422 H   0  0  0  0  0  0  0  0  0  0  0  0
    1.7548   -1.3696    3.1513 C   0  0  0  0  0  0  0  0  0  0  0  0
    2.9456   -1.2033    2.7834 O   0  5  0  0  0  0  0  0  0  0  0  0
    1.4067   -2.0404    4.1552 O   0  0  0  0  0  0  0  0  0  0  0  0
    0.2734    0.8507   -1.2023 C   0  0  0  0  0  0  0  0  0  0  0  0
    0.5906    2.0265   -1.3353 O   0  0  0  0  0  0  0  0  0  0  0  0
    0.1707    0.0408   -2.3165 N   0  0  0  0  0  0  0  0  0  0  0  0
   -0.0475   -0.9362   -2.1292 H   0  0  0  0  0  0  0  0  0  0  0  0
    0.6265    0.4299   -3.6418 C   0  0  0  0  0  0  0  0  0  0  0  0
    1.7019    0.6346   -3.6301 H   0  0  0  0  0  0  0  0  0  0  0  0
    0.4334   -0.3757   -4.3564 H   0  0  0  0  0  0  0  0  0  0  0  0
    0.0982    1.3266   -3.9811 H   0  0  0  0  0  0  0  0  0  0  0  0
  1  2  1  0  0  0  0
  2  3  1  0  0  0  0
  2  4  1  0  0  0  0
  2  5  1  0  0  0  0
  5  6  2  0  0  0  0
  5  7  1  0  0  0  0
  7  8  1  0  0  0  0
  7  9  1  0  0  0  0
  9 10  1  0  0  0  0
  9 11  1  0  0  0  0
  9 20  1  0  0  0  0
 11 12  1  0  0  0  0
 11 13  1  0  0  0  0
 11 14  1  0  0  0  0
 14 15  1  0  0  0  0
 14 16  1  0  0  0  0
 14 17  1  0  0  0  0
 17 18  1  0  0  0  0
 17 19  2  0  0  0  0
 20 21  2  0  0  0  0
 20 22  1  0  0  0  0
 22 23  1  0  0  0  0
 22 24  1  0  0  0  0
 24 25  1  0  0  0  0
 24 26  1  0  0  0  0
 24 27  1  0  0  0  0
M  CHG  1  18  -1
M  END
$$$$

  -OEChem-01062216073D

 27 26  0     1  0  0  0  0  0999 V2000
   -3.3352   -2.8223    1.5187 H   0  0  0  0  0  0  0  0  0  0  0  0
   -3.2412   -1.8081    1.1201 C   0  0  0  0  0  0  0  0  0  0  0  0
   -3.4038   -1.0979    1.9348 H   0  0  0  0  0  0  0  0  0  0  0  0
   -4.0039   -1.6560    0.3526 H   0  0  0  0  0  0  0  0  0  0  0  0
   -1.8574   -1.6070    0.5299 C   0  0  0  0  0  0  0  0  0  0  0  0
   -1.1624   -2.5763    0.2809 O   0  0  0  0  0  0  0  0  0  0  0  0
   -1.5162   -0.3807   -0.0018 N   0  0  0  0  0  0  0  0  0  0  0  0
   -2.2979    0.2659    0.0194 H   0  0  0  0  0  0  0  0  0  0  0  0
   -0.2036    0.3016    0.1457 C   0  0  1  0  0  0  0  0  0  0  0  0
   -0.3915    1.1927    0.7527 H   0  0  0  0  0  0  0  0  0  0  0  0
    0.9343   -0.4343    0.8906 C   0  0  0  0  0  0  0  0  0  0  0  0
    1.1252   -1.4061    0.4251 H   0  0  0  0  0  0  0  0  0  0  0  0
    1.8546    0.1528    0.7954 H   0  0  0  0  0  0  0  0  0  0  0  0
    0.6296   -0.6195    2.3964 C   0  0  0  0  0  0  0  0  0  0  0  0
    0.5119    0.3656    2.8560 H   0  0  0  0  0  0  0  0  0  0  0  0
   -0.3049   -1.1638    2.5372 H   0  0  0  0  0  0  0  0  0  0  0  0
    1.7319   -1.3675    3.1543 C   0  0  0  0  0  0  0  0  0  0  0  0
    2.9277   -1.1891    2.8102 O   0  5  0  0  0  0  0  0  0  0  0  0
    1.3698   -2.0523    4.1439 O   0  0  0  0  0  0  0  0  0  0  0  0
    0.2646    0.8569   -1.2120 C   0  0  0  0  0  0  0  0  0  0  0  0
    0.8199    1.9456   -1.2894 O   0  0  0  0  0  0  0  0  0  0  0  0
   -0.1103    0.2065   -2.3723 N   0  0  0  0  0  0  0  0  0  0  0  0
   -0.4810   -0.7321   -2.2390 H   0  0  0  0  0  0  0  0  0  0  0  0
    0.3291    0.6147   -3.6979 C   0  0  0  0  0  0  0  0  0  0  0  0
    1.4202    0.5610   -3.7715 H   0  0  0  0  0  0  0  0  0  0  0  0
   -0.1040   -0.0440   -4.4563 H   0  0  0  0  0  0  0  0  0  0  0  0
    0.0094    1.6402   -3.9088 H   0  0  0  0  0  0  0  0  0  0  0  0
  1  2  1  0  0  0  0
  2  3  1  0  0  0  0
  2  4  1  0  0  0  0
  2  5  1  0  0  0  0
  5  6  2  0  0  0  0
  5  7  1  0  0  0  0
  7  8  1  0  0  0  0
  7  9  1  0  0  0  0
  9 10  1  0  0  0  0
  9 11  1  0  0  0  0
  9 20  1  0  0  0  0
 11 12  1  0  0  0  0
 11 13  1  0  0  0  0
 11 14  1  0  0  0  0
 14 15  1  0  0  0  0
 14 16  1  0  0  0  0
 14 17  1  0  0  0  0
 17 18  1  0  0  0  0
 17 19  2  0  0  0  0
 20 21  2  0  0  0  0
 20 22  1  0  0  0  0
 22 23  1  0  0  0  0
 22 24  1  0  0  0  0
 24 25  1  0  0  0  0
 24 26  1  0  0  0  0
 24 27  1  0  0  0  0
M  CHG  1  18  -1
M  END
$$$$

  -OEChem-01062216073D

 27 26  0     1  0  0  0  0  0999 V2000
   -3.2993   -2.8329    1.5610 H   0  0  0  0  0  0  0  0  0  0  0  0
   -3.2212   -1.8245    1.1445 C   0  0  0  0  0  0  0  0  0  0  0  0
   -3.3754   -1.1032    1.9509 H   0  0  0  0  0  0  0  0  0  0  0  0
   -3.9985   -1.6908    0.3884 H   0  0  0  0  0  0  0  0  0  0  0  0
   -1.8499   -1.6219    0.5256 C   0  0  0  0  0  0  0  0  0  0  0  0
   -1.1648   -2.5915    0.2528 O   0  0  0  0  0  0  0  0  0  0  0  0
   -1.5177   -0.3909   -0.0025 N   0  0  0  0  0  0  0  0  0  0  0  0
   -2.2978    0.2557    0.0521 H   0  0  0  0  0  0  0  0  0  0  0  0
   -0.2018    0.2909    0.1349 C   0  0  1  0  0  0  0  0  0  0  0  0
   -0.3875    1.1808    0.7435 H   0  0  0  0  0  0  0  0  0  0  0  0
    0.9322   -0.4481    0.8855 C   0  0  0  0  0  0  0  0  0  0  0  0
    1.1168   -1.4250    0.4282 H   0  0  0  0  0  0  0  0  0  0  0  0
    1.8575    0.1307    0.7882 H   0  0  0  0  0  0  0  0  0  0  0  0
    0.6221   -0.6171    2.3927 C   0  0  0  0  0  0  0  0  0  0  0  0
    0.5105    0.3734    2.8420 H   0  0  0  0  0  0  0  0  0  0  0  0
   -0.3172   -1.1524    2.5355 H   0  0  0  0  0  0  0  0  0  0  0  0
    1.7143   -1.3663    3.1638 C   0  0  0  0  0  0  0  0  0  0  0  0
    2.9138   -1.2011    2.8271 O   0  5  0  0  0  0  0  0  0  0  0  0
    1.3394   -2.0371    4.1584 O   0  0  0  0  0  0  0  0  0  0  0  0
    0.2643    0.8627   -1.2197 C   0  0  0  0  0  0  0  0  0  0  0  0
    1.0336    1.8135   -1.2720 O   0  0  0  0  0  0  0  0  0  0  0  0
   -0.3482    0.4382   -2.3844 N   0  0  0  0  0  0  0  0  0  0  0  0
   -0.8723   -0.4291   -2.2961 H   0  0  0  0  0  0  0  0  0  0  0  0
    0.0616    0.8818   -3.7087 C   0  0  0  0  0  0  0  0  0  0  0  0
    1.1050    0.6089   -3.8969 H   0  0  0  0  0  0  0  0  0  0  0  0
   -0.5649    0.4116   -4.4724 H   0  0  0  0  0  0  0  0  0  0  0  0
   -0.0420    1.9680   -3.7987 H   0  0  0  0  0  0  0  0  0  0  0  0
  1  2  1  0  0  0  0
  2  3  1  0  0  0  0
  2  4  1  0  0  0  0
  2  5  1  0  0  0  0
  5  6  2  0  0  0  0
  5  7  1  0  0  0  0
  7  8  1  0  0  0  0
  7  9  1  0  0  0  0
  9 10  1  0  0  0  0
  9 11  1  0  0  0  0
  9 20  1  0  0  0  0
 11 12  1  0  0  0  0
 11 13  1  0  0  0  0
 11 14  1  0  0  0  0
 14 15  1  0  0  0  0
 14 16  1  0  0  0  0
 14 17  1  0  0  0  0
 17 18  1  0  0  0  0
 17 19  2  0  0  0  0
 20 21  2  0  0  0  0
 20 22  1  0  0  0  0
 22 23  1  0  0  0  0
 22 24  1  0  0  0  0
 24 25  1  0  0  0  0
 24 26  1  0  0  0  0
 24 27  1  0  0  0  0
M  CHG  1  18  -1
M  END
$$$$

  -OEChem-01062216073D

 27 26  0     1  0  0  0  0  0999 V2000
   -3.2557   -2.8566    1.5529 H   0  0  0  0  0  0  0  0  0  0  0  0
   -3.1735   -1.8317    1.1792 C   0  0  0  0  0  0  0  0  0  0  0  0
   -3.2660   -1.1453    2.0247 H   0  0  0  0  0  0  0  0  0  0  0  0
   -3.9861   -1.6445    0.4733 H   0  0  0  0  0  0  0  0  0  0  0  0
   -1.8312   -1.6326    0.4987 C   0  0  0  0  0  0  0  0  0  0  0  0
   -1.1671   -2.6029    0.1806 O   0  0  0  0  0  0  0  0  0  0  0  0
   -1.5094   -0.3956   -0.0223 N   0  0  0  0  0  0  0  0  0  0  0  0
   -2.2844    0.2516    0.0777 H   0  0  0  0  0  0  0  0  0  0  0  0
   -0.1899    0.2809    0.1152 C   0  0  1  0  0  0  0  0  0  0  0  0
   -0.3739    1.1706    0.7241 H   0  0  0  0  0  0  0  0  0  0  0  0
    0.9313   -0.4647    0.8821 C   0  0  0  0  0  0  0  0  0  0  0  0
    1.1108   -1.4473    0.4352 H   0  0  0  0  0  0  0  0  0  0  0  0
    1.8647    0.1018    0.7925 H   0  0  0  0  0  0  0  0  0  0  0  0
    0.6000   -0.6139    2.3874 C   0  0  0  0  0  0  0  0  0  0  0  0
    0.4953    0.3824    2.8259 H   0  0  0  0  0  0  0  0  0  0  0  0
   -0.3478   -1.1352    2.5250 H   0  0  0  0  0  0  0  0  0  0  0  0
    1.6741   -1.3677    3.1779 C   0  0  0  0  0  0  0  0  0  0  0  0
    2.8818   -1.1178    2.9381 O   0  5  0  0  0  0  0  0  0  0  0  0
    1.2714   -2.1265    4.0953 O   0  0  0  0  0  0  0  0  0  0  0  0
    0.2732    0.8678   -1.2372 C   0  0  0  0  0  0  0  0  0  0  0  0
    1.2213    1.6385   -1.3072 O   0  0  0  0  0  0  0  0  0  0  0  0
   -0.5272    0.7105   -2.3546 N   0  0  0  0  0  0  0  0  0  0  0  0
   -1.1980   -0.0500   -2.2862 H   0  0  0  0  0  0  0  0  0  0  0  0
   -0.1539    1.1959   -3.6755 C   0  0  0  0  0  0  0  0  0  0  0  0
    0.7808    0.7301   -4.0039 H   0  0  0  0  0  0  0  0  0  0  0  0
   -0.9373    0.9528   -4.3994 H   0  0  0  0  0  0  0  0  0  0  0  0
   -0.0226    2.2827   -3.6622 H   0  0  0  0  0  0  0  0  0  0  0  0
  1  2  1  0  0  0  0
  2  3  1  0  0  0  0
  2  4  1  0  0  0  0
  2  5  1  0  0  0  0
  5  6  2  0  0  0  0
  5  7  1  0  0  0  0
  7  8  1  0  0  0  0
  7  9  1  0  0  0  0
  9 10  1  0  0  0  0
  9 11  1  0  0  0  0
  9 20  1  0  0  0  0
 11 12  1  0  0  0  0
 11 13  1  0  0  0  0
 11 14  1  0  0  0  0
 14 15  1  0  0  0  0
 14 16  1  0  0  0  0
 14 17  1  0  0  0  0
 17 18  1  0  0  0  0
 17 19  2  0  0  0  0
 20 21  2  0  0  0  0
 20 22  1  0  0  0  0
 22 23  1  0  0  0  0
 22 24  1  0  0  0  0
 24 25  1  0  0  0  0
 24 26  1  0  0  0  0
 24 27  1  0  0  0  0
M  CHG  1  18  -1
M  END
$$$$

  -OEChem-01062216073D

 27 26  0     1  0  0  0  0  0999 V2000
   -3.2149   -2.8766    1.5428 H   0  0  0  0  0  0  0  0  0  0  0  0
   -3.1305   -1.8417    1.1986 C   0  0  0  0  0  0  0  0  0  0  0  0
   -3.1753   -1.1819    2.0689 H   0  0  0  0  0  0  0  0  0  0  0  0
   -3.9682   -1.6185    0.5340 H   0  0  0  0  0  0  0  0  0  0  0  0
   -1.8146   -1.6426    0.4688 C   0  0  0  0  0  0  0  0  0  0  0  0
   -1.1692   -2.6124    0.1131 O   0  0  0  0  0  0  0  0  0  0  0  0
   -1.5013   -0.3996   -0.0440 N   0  0  0  0  0  0  0  0  0  0  0  0
   -2.2686    0.2474    0.1041 H   0  0  0  0  0  0  0  0  0  0  0  0
   -0.1764    0.2664    0.0922 C   0  0  1  0  0  0  0  0  0  0  0  0
   -0.3583    1.1565    0.7008 H   0  0  0  0  0  0  0  0  0  0  0  0
    0.9317   -0.4828    0.8777 C   0  0  0  0  0  0  0  0  0  0  0  0
    1.1022   -1.4735    0.4460 H   0  0  0  0  0  0  0  0  0  0  0  0
    1.8742    0.0685    0.7922 H   0  0  0  0  0  0  0  0  0  0  0  0
    0.5813   -0.6050    2.3813 C   0  0  0  0  0  0  0  0  0  0  0  0
    0.4843    0.3985    2.8048 H   0  0  0  0  0  0  0  0  0  0  0  0
   -0.3746   -1.1119    2.5174 H   0  0  0  0  0  0  0  0  0  0  0  0
    1.6395   -1.3599    3.1904 C   0  0  0  0  0  0  0  0  0  0  0  0
    2.8402   -1.0113    3.0683 O   0  5  0  0  0  0  0  0  0  0  0  0
    1.2247   -2.2160    4.0117 O   0  0  0  0  0  0  0  0  0  0  0  0
    0.2825    0.8682   -1.2573 C   0  0  0  0  0  0  0  0  0  0  0  0
    1.3711    1.4112   -1.3884 O   0  0  0  0  0  0  0  0  0  0  0  0
   -0.6386    1.0107   -2.2807 N   0  0  0  0  0  0  0  0  0  0  0  0
   -1.4459    0.3995   -2.2062 H   0  0  0  0  0  0  0  0  0  0  0  0
   -0.2904    1.5424   -3.5914 C   0  0  0  0  0  0  0  0  0  0  0  0
    0.4790    0.9232   -4.0643 H   0  0  0  0  0  0  0  0  0  0  0  0
   -1.1729    1.5552   -4.2377 H   0  0  0  0  0  0  0  0  0  0  0  0
    0.0850    2.5670   -3.5024 H   0  0  0  0  0  0  0  0  0  0  0  0
  1  2  1  0  0  0  0
  2  3  1  0  0  0  0
  2  4  1  0  0  0  0
  2  5  1  0  0  0  0
  5  6  2  0  0  0  0
  5  7  1  0  0  0  0
  7  8  1  0  0  0  0
  7  9  1  0  0  0  0
  9 10  1  0  0  0  0
  9 11  1  0  0  0  0
  9 20  1  0  0  0  0
 11 12  1  0  0  0  0
 11 13  1  0  0  0  0
 11 14  1  0  0  0  0
 14 15  1  0  0  0  0
 14 16  1  0  0  0  0
 14 17  1  0  0  0  0
 17 18  1  0  0  0  0
 17 19  2  0  0  0  0
 20 21  2  0  0  0  0
 20 22  1  0  0  0  0
 22 23  1  0  0  0  0
 22 24  1  0  0  0  0
 24 25  1  0  0  0  0
 24 26  1  0  0  0  0
 24 27  1  0  0  0  0
M  CHG  1  18  -1
M  END
$$$$

  -OEChem-01062216073D

 27 26  0     1  0  0  0  0  0999 V2000
   -3.2059   -2.8794    1.5285 H   0  0  0  0  0  0  0  0  0  0  0  0
   -3.1281   -1.8491    1.1690 C   0  0  0  0  0  0  0  0  0  0  0  0
   -3.1914   -1.1766    2.0283 H   0  0  0  0  0  0  0  0  0  0  0  0
   -3.9602   -1.6462    0.4910 H   0  0  0  0  0  0  0  0  0  0  0  0
   -1.8053   -1.6480    0.4513 C   0  0  0  0  0  0  0  0  0  0  0  0
   -1.1543   -2.6188    0.1096 O   0  0  0  0  0  0  0  0  0  0  0  0
   -1.4880   -0.4013   -0.0523 N   0  0  0  0  0  0  0  0  0  0  0  0
   -2.2503    0.2461    0.1140 H   0  0  0  0  0  0  0  0  0  0  0  0
   -0.1568    0.2528    0.0783 C   0  0  1  0  0  0  0  0  0  0  0  0
   -0.3325    1.1436    0.6874 H   0  0  0  0  0  0  0  0  0  0  0  0
    0.9452   -0.4969    0.8728 C   0  0  0  0  0  0  0  0  0  0  0  0
    1.1104   -1.4936    0.4530 H   0  0  0  0  0  0  0  0  0  0  0  0
    1.8925    0.0462    0.7866 H   0  0  0  0  0  0  0  0  0  0  0  0
    0.5857   -0.5952    2.3760 C   0  0  0  0  0  0  0  0  0  0  0  0
    0.4954    0.4142    2.7865 H   0  0  0  0  0  0  0  0  0  0  0  0
   -0.3758   -1.0916    2.5127 H   0  0  0  0  0  0  0  0  0  0  0  0
    1.6320   -1.3479    3.2015 C   0  0  0  0  0  0  0  0  0  0  0  0
    2.8276   -0.9701    3.1246 O   0  5  0  0  0  0  0  0  0  0  0  0
    1.2100   -2.2250    3.9965 O   0  0  0  0  0  0  0  0  0  0  0  0
    0.2931    0.8647   -1.2707 C   0  0  0  0  0  0  0  0  0  0  0  0
    1.4598    1.1419   -1.5135 O   0  0  0  0  0  0  0  0  0  0  0  0
   -0.6717    1.3127   -2.1574 N   0  0  0  0  0  0  0  0  0  0  0  0
   -1.5900    0.9018   -2.0316 H   0  0  0  0  0  0  0  0  0  0  0  0
   -0.3455    1.8903   -3.4544 C   0  0  0  0  0  0  0  0  0  0  0  0
    0.2043    1.1685   -4.0672 H   0  0  0  0  0  0  0  0  0  0  0  0
   -1.2619    2.1694   -3.9825 H   0  0  0  0  0  0  0  0  0  0  0  0
    0.2673    2.7893   -3.3307 H   0  0  0  0  0  0  0  0  0  0  0  0
  1  2  1  0  0  0  0
  2  3  1  0  0  0  0
  2  4  1  0  0  0  0
  2  5  1  0  0  0  0
  5  6  2  0  0  0  0
  5  7  1  0  0  0  0
  7  8  1  0  0  0  0
  7  9  1  0  0  0  0
  9 10  1  0  0  0  0
  9 11  1  0  0  0  0
  9 20  1  0  0  0  0
 11 12  1  0  0  0  0
 11 13  1  0  0  0  0
 11 14  1  0  0  0  0
 14 15  1  0  0  0  0
 14 16  1  0  0  0  0
 14 17  1  0  0  0  0
 17 18  1  0  0  0  0
 17 19  2  0  0  0  0
 20 21  2  0  0  0  0
 20 22  1  0  0  0  0
 22 23  1  0  0  0  0
 22 24  1  0  0  0  0
 24 25  1  0  0  0  0
 24 26  1  0  0  0  0
 24 27  1  0  0  0  0
M  CHG  1  18  -1
M  END
$$$$

  -OEChem-01062216073D

 27 26  0     1  0  0  0  0  0999 V2000
   -3.2466   -2.8701    1.4814 H   0  0  0  0  0  0  0  0  0  0  0  0
   -3.1659   -1.8501    1.0943 C   0  0  0  0  0  0  0  0  0  0  0  0
   -3.2925   -1.1531    1.9265 H   0  0  0  0  0  0  0  0  0  0  0  0
   -3.9592   -1.6849    0.3616 H   0  0  0  0  0  0  0  0  0  0  0  0
   -1.8065   -1.6453    0.4493 C   0  0  0  0  0  0  0  0  0  0  0  0
   -1.1287   -2.6170    0.1690 O   0  0  0  0  0  0  0  0  0  0  0  0
   -1.4752   -0.3970   -0.0434 N   0  0  0  0  0  0  0  0  0  0  0  0
   -2.2411    0.2510    0.0974 H   0  0  0  0  0  0  0  0  0  0  0  0
   -0.1403    0.2489    0.0834 C   0  0  1  0  0  0  0  0  0  0  0  0
   -0.3107    1.1366    0.6982 H   0  0  0  0  0  0  0  0  0  0  0  0
    0.9663   -0.4975    0.8733 C   0  0  0  0  0  0  0  0  0  0  0  0
    1.1328   -1.4947    0.4551 H   0  0  0  0  0  0  0  0  0  0  0  0
    1.9113    0.0485    0.7806 H   0  0  0  0  0  0  0  0  0  0  0  0
    0.6111   -0.5893    2.3778 C   0  0  0  0  0  0  0  0  0  0  0  0
    0.5192    0.4214    2.7849 H   0  0  0  0  0  0  0  0  0  0  0  0
   -0.3497   -1.0876    2.5158 H   0  0  0  0  0  0  0  0  0  0  0  0
    1.6599   -1.3378    3.2041 C   0  0  0  0  0  0  0  0  0  0  0  0
    2.8514   -0.9451    3.1342 O   0  5  0  0  0  0  0  0  0  0  0  0
    1.2433   -2.2165    4.0002 O   0  0  0  0  0  0  0  0  0  0  0  0
    0.3010    0.8677   -1.2654 C   0  0  0  0  0  0  0  0  0  0  0  0
    1.4584    0.8501   -1.6617 O   0  0  0  0  0  0  0  0  0  0  0  0
   -0.6175    1.6039   -1.9958 N   0  0  0  0  0  0  0  0  0  0  0  0
   -1.5894    1.4756   -1.7427 H   0  0  0  0  0  0  0  0  0  0  0  0
   -0.3104    2.1948   -3.2913 C   0  0  0  0  0  0  0  0  0  0  0  0
   -0.0372    1.4161   -4.0107 H   0  0  0  0  0  0  0  0  0  0  0  0
   -1.1821    2.7328   -3.6747 H   0  0  0  0  0  0  0  0  0  0  0  0
    0.5198    2.9031   -3.2033 H   0  0  0  0  0  0  0  0  0  0  0  0
  1  2  1  0  0  0  0
  2  3  1  0  0  0  0
  2  4  1  0  0  0  0
  2  5  1  0  0  0  0
  5  6  2  0  0  0  0
  5  7  1  0  0  0  0
  7  8  1  0  0  0  0
  7  9  1  0  0  0  0
  9 10  1  0  0  0  0
  9 11  1  0  0  0  0
  9 20  1  0  0  0  0
 11 12  1  0  0  0  0
 11 13  1  0  0  0  0
 11 14  1  0  0  0  0
 14 15  1  0  0  0  0
 14 16  1  0  0  0  0
 14 17  1  0  0  0  0
 17 18  1  0  0  0  0
 17 19  2  0  0  0  0
 20 21  2  0  0  0  0
 20 22  1  0  0  0  0
 22 23  1  0  0  0  0
 22 24  1  0  0  0  0
 24 25  1  0  0  0  0
 24 26  1  0  0  0  0
 24 27  1  0  0  0  0
M  CHG  1  18  -1
M  END
$$$$

  -OEChem-01062216073D

 27 26  0     1  0  0  0  0  0999 V2000
   -3.4239   -2.8571    1.3259 H   0  0  0  0  0  0  0  0  0  0  0  0
   -3.2863   -1.8470    0.9289 C   0  0  0  0  0  0  0  0  0  0  0  0
   -3.5527   -1.1282    1.7075 H   0  0  0  0  0  0  0  0  0  0  0  0
   -3.9489   -1.7106    0.0711 H   0  0  0  0  0  0  0  0  0  0  0  0
   -1.8413   -1.6438    0.5088 C   0  0  0  0  0  0  0  0  0  0  0  0
   -1.1079   -2.6125    0.4467 O   0  0  0  0  0  0  0  0  0  0  0  0
   -1.4665   -0.4078    0.0136 N   0  0  0  0  0  0  0  0  0  0  0  0
   -2.2427    0.2419   -0.0030 H   0  0  0  0  0  0  0  0  0  0  0  0
   -0.1275    0.2314    0.1110 C   0  0  1  0  0  0  0  0  0  0  0  0
   -0.2861    1.1206    0.7261 H   0  0  0  0  0  0  0  0  0  0  0  0
    1.0048   -0.4949    0.8787 C   0  0  0  0  0  0  0  0  0  0  0  0
    1.1672   -1.4959    0.4677 H   0  0  0  0  0  0  0  0  0  0  0  0
    1.9412    0.0590    0.7497 H   0  0  0  0  0  0  0  0  0  0  0  0
    0.6897   -0.5715    2.3929 C   0  0  0  0  0  0  0  0  0  0  0  0
    0.5975    0.4427    2.7906 H   0  0  0  0  0  0  0  0  0  0  0  0
   -0.2636   -1.0779    2.5557 H   0  0  0  0  0  0  0  0  0  0  0  0
    1.7644   -1.2996    3.2051 C   0  0  0  0  0  0  0  0  0  0  0  0
    2.9621   -0.9620    3.0271 O   0  5  0  0  0  0  0  0  0  0  0  0
    1.3718   -2.0843    4.1050 O   0  0  0  0  0  0  0  0  0  0  0  0
    0.2889    0.8334   -1.2513 C   0  0  0  0  0  0  0  0  0  0  0  0
    1.3084    0.5082   -1.8440 O   0  0  0  0  0  0  0  0  0  0  0  0
   -0.5049    1.8146   -1.8238 N   0  0  0  0  0  0  0  0  0  0  0  0
   -1.3414    2.0900   -1.3246 H   0  0  0  0  0  0  0  0  0  0  0  0
   -0.2023    2.4482   -3.1001 C   0  0  0  0  0  0  0  0  0  0  0  0
   -0.1631    1.6999   -3.8983 H   0  0  0  0  0  0  0  0  0  0  0  0
   -0.9758    3.1801   -3.3500 H   0  0  0  0  0  0  0  0  0  0  0  0
    0.7616    2.9652   -3.0516 H   0  0  0  0  0  0  0  0  0  0  0  0
  1  2  1  0  0  0  0
  2  3  1  0  0  0  0
  2  4  1  0  0  0  0
  2  5  1  0  0  0  0
  5  6  2  0  0  0  0
  5  7  1  0  0  0  0
  7  8  1  0  0  0  0
  7  9  1  0  0  0  0
  9 10  1  0  0  0  0
  9 11  1  0  0  0  0
  9 20  1  0  0  0  0
 11 12  1  0  0  0  0
 11 13  1  0  0  0  0
 11 14  1  0  0  0  0
 14 15  1  0  0  0  0
 14 16  1  0  0  0  0
 14 17  1  0  0  0  0
 17 18  1  0  0  0  0
 17 19  2  0  0  0  0
 20 21  2  0  0  0  0
 20 22  1  0  0  0  0
 22 23  1  0  0  0  0
 22 24  1  0  0  0  0
 24 25  1  0  0  0  0
 24 26  1  0  0  0  0
 24 27  1  0  0  0  0
M  CHG  1  18  -1
M  END
$$$$

  -OEChem-01062216073D

 27 26  0     1  0  0  0  0  0999 V2000
   -3.5450   -2.8311    1.2359 H   0  0  0  0  0  0  0  0  0  0  0  0
   -3.3719   -1.8444    0.7962 C   0  0  0  0  0  0  0  0  0  0  0  0
   -3.7605   -1.0856    1.4795 H   0  0  0  0  0  0  0  0  0  0  0  0
   -3.9082   -1.7823   -0.1537 H   0  0  0  0  0  0  0  0  0  0  0  0
   -1.8860   -1.6261    0.5698 C   0  0  0  0  0  0  0  0  0  0  0  0
   -1.1362   -2.5760    0.6888 O   0  0  0  0  0  0  0  0  0  0  0  0
   -1.4762   -0.4021    0.0719 N   0  0  0  0  0  0  0  0  0  0  0  0
   -2.2459    0.2318   -0.1061 H   0  0  0  0  0  0  0  0  0  0  0  0
   -0.1335    0.2287    0.1428 C   0  0  1  0  0  0  0  0  0  0  0  0
   -0.2825    1.1170    0.7610 H   0  0  0  0  0  0  0  0  0  0  0  0
    1.0224   -0.4818    0.8846 C   0  0  0  0  0  0  0  0  0  0  0  0
    1.1733   -1.4864    0.4770 H   0  0  0  0  0  0  0  0  0  0  0  0
    1.9515    0.0741    0.7182 H   0  0  0  0  0  0  0  0  0  0  0  0
    0.7566   -0.5532    2.4086 C   0  0  0  0  0  0  0  0  0  0  0  0
    0.6708    0.4626    2.8037 H   0  0  0  0  0  0  0  0  0  0  0  0
   -0.1876   -1.0642    2.6056 H   0  0  0  0  0  0  0  0  0  0  0  0
    1.8649   -1.2684    3.1874 C   0  0  0  0  0  0  0  0  0  0  0  0
    3.0552   -0.9580    2.9264 O   0  5  0  0  0  0  0  0  0  0  0  0
    1.5153   -2.0048    4.1439 O   0  0  0  0  0  0  0  0  0  0  0  0
    0.2627    0.8175   -1.2288 C   0  0  0  0  0  0  0  0  0  0  0  0
    1.0448    0.2642   -1.9895 O   0  0  0  0  0  0  0  0  0  0  0  0
   -0.3325    1.9961   -1.6497 N   0  0  0  0  0  0  0  0  0  0  0  0
   -0.9089    2.4911   -0.9791 H   0  0  0  0  0  0  0  0  0  0  0  0
   -0.0086    2.6466   -2.9122 C   0  0  0  0  0  0  0  0  0  0  0  0
   -0.2232    1.9789   -3.7531 H   0  0  0  0  0  0  0  0  0  0  0  0
   -0.6065    3.5548   -3.0318 H   0  0  0  0  0  0  0  0  0  0  0  0
    1.0508    2.9216   -2.9399 H   0  0  0  0  0  0  0  0  0  0  0  0
  1  2  1  0  0  0  0
  2  3  1  0  0  0  0
  2  4  1  0  0  0  0
  2  5  1  0  0  0  0
  5  6  2  0  0  0  0
  5  7  1  0  0  0  0
  7  8  1  0  0  0  0
  7  9  1  0  0  0  0
  9 10  1  0  0  0  0
  9 11  1  0  0  0  0
  9 20  1  0  0  0  0
 11 12  1  0  0  0  0
 11 13  1  0  0  0  0
 11 14  1  0  0  0  0
 14 15  1  0  0  0  0
 14 16  1  0  0  0  0
 14 17  1  0  0  0  0
 17 18  1  0  0  0  0
 17 19  2  0  0  0  0
 20 21  2  0  0  0  0
 20 22  1  0  0  0  0
 22 23  1  0  0  0  0
 22 24  1  0  0  0  0
 24 25  1  0  0  0  0
 24 26  1  0  0  0  0
 24 27  1  0  0  0  0
M  CHG  1  18  -1
M  END
$$$$

  -OEChem-01062216073D

 27 26  0     1  0  0  0  0  0999 V2000
   -3.6023   -2.8262    1.1734 H   0  0  0  0  0  0  0  0  0  0  0  0
   -3.4102   -1.8484    0.7221 C   0  0  0  0  0  0  0  0  0  0  0  0
   -3.8582   -1.0781    1.3543 H   0  0  0  0  0  0  0  0  0  0  0  0
   -3.8758   -1.8184   -0.2660 H   0  0  0  0  0  0  0  0  0  0  0  0
   -1.9146   -1.6131    0.5985 C   0  0  0  0  0  0  0  0  0  0  0  0
   -1.1640   -2.5457    0.8111 O   0  0  0  0  0  0  0  0  0  0  0  0
   -1.4900   -0.3930    0.1041 N   0  0  0  0  0  0  0  0  0  0  0  0
   -2.2487    0.2223   -0.1649 H   0  0  0  0  0  0  0  0  0  0  0  0
   -0.1453    0.2312    0.1639 C   0  0  1  0  0  0  0  0  0  0  0  0
   -0.2969    1.1135    0.7896 H   0  0  0  0  0  0  0  0  0  0  0  0
    1.0249   -0.4680    0.8905 C   0  0  0  0  0  0  0  0  0  0  0  0
    1.1698   -1.4740    0.4841 H   0  0  0  0  0  0  0  0  0  0  0  0
    1.9483    0.0906    0.7033 H   0  0  0  0  0  0  0  0  0  0  0  0
    0.7909   -0.5395    2.4195 C   0  0  0  0  0  0  0  0  0  0  0  0
    0.7071    0.4761    2.8152 H   0  0  0  0  0  0  0  0  0  0  0  0
   -0.1457   -1.0557    2.6383 H   0  0  0  0  0  0  0  0  0  0  0  0
    1.9229   -1.2462    3.1720 C   0  0  0  0  0  0  0  0  0  0  0  0
    3.1045   -0.9592    2.8497 O   0  5  0  0  0  0  0  0  0  0  0  0
    1.6078   -1.9461    4.1670 O   0  0  0  0  0  0  0  0  0  0  0  0
    0.2518    0.8244   -1.2045 C   0  0  0  0  0  0  0  0  0  0  0  0
    0.7320    0.1422   -2.0994 O   0  0  0  0  0  0  0  0  0  0  0  0
   -0.0767    2.1397   -1.4906 N   0  0  0  0  0  0  0  0  0  0  0  0
   -0.3861    2.7165   -0.7160 H   0  0  0  0  0  0  0  0  0  0  0  0
    0.2580    2.7865   -2.7521 C   0  0  0  0  0  0  0  0  0  0  0  0
   -0.2170    2.2636   -3.5886 H   0  0  0  0  0  0  0  0  0  0  0  0
   -0.0944    3.8220   -2.7485 H   0  0  0  0  0  0  0  0  0  0  0  0
    1.3421    2.7889   -2.9053 H   0  0  0  0  0  0  0  0  0  0  0  0
  1  2  1  0  0  0  0
  2  3  1  0  0  0  0
  2  4  1  0  0  0  0
  2  5  1  0  0  0  0
  5  6  2  0  0  0  0
  5  7  1  0  0  0  0
  7  8  1  0  0  0  0
  7  9  1  0  0  0  0
  9 10  1  0  0  0  0
  9 11  1  0  0  0  0
  9 20  1  0  0  0  0
 11 12  1  0  0  0  0
 11 13  1  0  0  0  0
 11 14  1  0  0  0  0
 14 15  1  0  0  0  0
 14 16  1  0  0  0  0
 14 17  1  0  0  0  0
 17 18  1  0  0  0  0
 17 19  2  0  0  0  0
 20 21  2  0  0  0  0
 20 22  1  0  0  0  0
 22 23  1  0  0  0  0
 22 24  1  0  0  0  0
 24 25  1  0  0  0  0
 24 26  1  0  0  0  0
 24 27  1  0  0  0  0
M  CHG  1  18  -1
M  END
$$$$

  -OEChem-01062216073D

 27 26  0     1  0  0  0  0  0999 V2000
   -3.6457   -2.8211    1.1198 H   0  0  0  0  0  0  0  0  0  0  0  0
   -3.4366   -1.8527    0.6559 C   0  0  0  0  0  0  0  0  0  0  0  0
   -3.9379   -1.0727    1.2340 H   0  0  0  0  0  0  0  0  0  0  0  0
   -3.8332   -1.8564   -0.3623 H   0  0  0  0  0  0  0  0  0  0  0  0
   -1.9395   -1.5974    0.6274 C   0  0  0  0  0  0  0  0  0  0  0  0
   -1.1936   -2.5123    0.9201 O   0  0  0  0  0  0  0  0  0  0  0  0
   -1.5018   -0.3813    0.1353 N   0  0  0  0  0  0  0  0  0  0  0  0
   -2.2431    0.2090   -0.2238 H   0  0  0  0  0  0  0  0  0  0  0  0
   -0.1532    0.2327    0.1837 C   0  0  1  0  0  0  0  0  0  0  0  0
   -0.3085    1.1122    0.8126 H   0  0  0  0  0  0  0  0  0  0  0  0
    1.0262   -0.4588    0.8993 C   0  0  0  0  0  0  0  0  0  0  0  0
    1.1646   -1.4670    0.4956 H   0  0  0  0  0  0  0  0  0  0  0  0
    1.9459    0.0997    0.6952 H   0  0  0  0  0  0  0  0  0  0  0  0
    0.8206   -0.5259    2.4320 C   0  0  0  0  0  0  0  0  0  0  0  0
    0.7449    0.4914    2.8255 H   0  0  0  0  0  0  0  0  0  0  0  0
   -0.1110   -1.0410    2.6725 H   0  0  0  0  0  0  0  0  0  0  0  0
    1.9704   -1.2279    3.1619 C   0  0  0  0  0  0  0  0  0  0  0  0
    3.1429   -0.9723    2.7830 O   0  5  0  0  0  0  0  0  0  0  0  0
    1.6844   -1.8907    4.1904 O   0  0  0  0  0  0  0  0  0  0  0  0
    0.2494    0.8313   -1.1803 C   0  0  0  0  0  0  0  0  0  0  0  0
    0.3731    0.1319   -2.1774 O   0  0  0  0  0  0  0  0  0  0  0  0
    0.2280    2.2058   -1.3506 N   0  0  0  0  0  0  0  0  0  0  0  0
    0.2212    2.7694   -0.5067 H   0  0  0  0  0  0  0  0  0  0  0  0
    0.5575    2.8524   -2.6137 C   0  0  0  0  0  0  0  0  0  0  0  0
   -0.1378    2.5361   -3.3981 H   0  0  0  0  0  0  0  0  0  0  0  0
    0.4879    3.9392   -2.5093 H   0  0  0  0  0  0  0  0  0  0  0  0
    1.5774    2.5972   -2.9197 H   0  0  0  0  0  0  0  0  0  0  0  0
  1  2  1  0  0  0  0
  2  3  1  0  0  0  0
  2  4  1  0  0  0  0
  2  5  1  0  0  0  0
  5  6  2  0  0  0  0
  5  7  1  0  0  0  0
  7  8  1  0  0  0  0
  7  9  1  0  0  0  0
  9 10  1  0  0  0  0
  9 11  1  0  0  0  0
  9 20  1  0  0  0  0
 11 12  1  0  0  0  0
 11 13  1  0  0  0  0
 11 14  1  0  0  0  0
 14 15  1  0  0  0  0
 14 16  1  0  0  0  0
 14 17  1  0  0  0  0
 17 18  1  0  0  0  0
 17 19  2  0  0  0  0
 20 21  2  0  0  0  0
 20 22  1  0  0  0  0
 22 23  1  0  0  0  0
 22 24  1  0  0  0  0
 24 25  1  0  0  0  0
 24 26  1  0  0  0  0
 24 27  1  0  0  0  0
M  CHG  1  18  -1
M  END
$$$$

  -OEChem-01062216073D

 27 26  0     1  0  0  0  0  0999 V2000
   -3.6832   -2.8139    1.0831 H   0  0  0  0  0  0  0  0  0  0  0  0
   -3.4580   -1.8532    0.6111 C   0  0  0  0  0  0  0  0  0  0  0  0
   -3.9961   -1.0665    1.1453 H   0  0  0  0  0  0  0  0  0  0  0  0
   -3.7999   -1.8811   -0.4265 H   0  0  0  0  0  0  0  0  0  0  0  0
   -1.9638   -1.5827    0.6564 C   0  0  0  0  0  0  0  0  0  0  0  0
   -1.2263   -2.4819    1.0122 O   0  0  0  0  0  0  0  0  0  0  0  0
   -1.5140   -0.3723    0.1627 N   0  0  0  0  0  0  0  0  0  0  0  0
   -2.2316    0.1839   -0.2888 H   0  0  0  0  0  0  0  0  0  0  0  0
   -0.1602    0.2298    0.1965 C   0  0  1  0  0  0  0  0  0  0  0  0
   -0.3143    1.1119    0.8224 H   0  0  0  0  0  0  0  0  0  0  0  0
    1.0267   -0.4559    0.9049 C   0  0  0  0  0  0  0  0  0  0  0  0
    1.1540   -1.4688    0.5089 H   0  0  0  0  0  0  0  0  0  0  0  0
    1.9456    0.0968    0.6817 H   0  0  0  0  0  0  0  0  0  0  0  0
    0.8483   -0.5117    2.4411 C   0  0  0  0  0  0  0  0  0  0  0  0
    0.7808    0.5084    2.8283 H   0  0  0  0  0  0  0  0  0  0  0  0
   -0.0788   -1.0239    2.7037 H   0  0  0  0  0  0  0  0  0  0  0  0
    2.0131   -1.2098    3.1518 C   0  0  0  0  0  0  0  0  0  0  0  0
    3.1753   -0.9767    2.7285 O   0  5  0  0  0  0  0  0  0  0  0  0
    1.7549   -1.8461    4.2039 O   0  0  0  0  0  0  0  0  0  0  0  0
    0.2441    0.8296   -1.1665 C   0  0  0  0  0  0  0  0  0  0  0  0
    0.0404    0.2259   -2.2131 O   0  0  0  0  0  0  0  0  0  0  0  0
    0.5416    2.1796   -1.2467 N   0  0  0  0  0  0  0  0  0  0  0  0
    0.7967    2.6359   -0.3760 H   0  0  0  0  0  0  0  0  0  0  0  0
    0.8811    2.8431   -2.4983 C   0  0  0  0  0  0  0  0  0  0  0  0
    0.0482    2.7781   -3.2057 H   0  0  0  0  0  0  0  0  0  0  0  0
    1.0962    3.9002   -2.3164 H   0  0  0  0  0  0  0  0  0  0  0  0
    1.7655    2.3809   -2.9486 H   0  0  0  0  0  0  0  0  0  0  0  0
  1  2  1  0  0  0  0
  2  3  1  0  0  0  0
  2  4  1  0  0  0  0
  2  5  1  0  0  0  0
  5  6  2  0  0  0  0
  5  7  1  0  0  0  0
  7  8  1  0  0  0  0
  7  9  1  0  0  0  0
  9 10  1  0  0  0  0
  9 11  1  0  0  0  0
  9 20  1  0  0  0  0
 11 12  1  0  0  0  0
 11 13  1  0  0  0  0
 11 14  1  0  0  0  0
 14 15  1  0  0  0  0
 14 16  1  0  0  0  0
 14 17  1  0  0  0  0
 17 18  1  0  0  0  0
 17 19  2  0  0  0  0
 20 21  2  0  0  0  0
 20 22  1  0  0  0  0
 22 23  1  0  0  0  0
 22 24  1  0  0  0  0
 24 25  1  0  0  0  0
 24 26  1  0  0  0  0
 24 27  1  0  0  0  0
M  CHG  1  18  -1
M  END
$$$$

  -OEChem-01062216073D

 27 26  0     1  0  0  0  0  0999 V2000
   -3.6912   -2.8149    1.0672 H   0  0  0  0  0  0  0  0  0  0  0  0
   -3.4639   -1.8536    0.5975 C   0  0  0  0  0  0  0  0  0  0  0  0
   -4.0192   -1.0699    1.1182 H   0  0  0  0  0  0  0  0  0  0  0  0
   -3.7841   -1.8872   -0.4467 H   0  0  0  0  0  0  0  0  0  0  0  0
   -1.9729   -1.5716    0.6725 C   0  0  0  0  0  0  0  0  0  0  0  0
   -1.2369   -2.4637    1.0494 O   0  0  0  0  0  0  0  0  0  0  0  0
   -1.5185   -0.3641    0.1763 N   0  0  0  0  0  0  0  0  0  0  0  0
   -2.2195    0.1693   -0.3275 H   0  0  0  0  0  0  0  0  0  0  0  0
   -0.1623    0.2328    0.2032 C   0  0  1  0  0  0  0  0  0  0  0  0
   -0.3140    1.1196    0.8235 H   0  0  0  0  0  0  0  0  0  0  0  0
    1.0256   -0.4537    0.9102 C   0  0  0  0  0  0  0  0  0  0  0  0
    1.1470   -1.4686    0.5178 H   0  0  0  0  0  0  0  0  0  0  0  0
    1.9458    0.0935    0.6801 H   0  0  0  0  0  0  0  0  0  0  0  0
    0.8592   -0.5054    2.4474 C   0  0  0  0  0  0  0  0  0  0  0  0
    0.7990    0.5161    2.8323 H   0  0  0  0  0  0  0  0  0  0  0  0
   -0.0672   -1.0136    2.7196 H   0  0  0  0  0  0  0  0  0  0  0  0
    2.0293   -1.2057    3.1472 C   0  0  0  0  0  0  0  0  0  0  0  0
    3.1863   -0.9889    2.7010 O   0  5  0  0  0  0  0  0  0  0  0  0
    1.7832   -1.8296    4.2092 O   0  0  0  0  0  0  0  0  0  0  0  0
    0.2453    0.8318   -1.1591 C   0  0  0  0  0  0  0  0  0  0  0  0
   -0.2123    0.3905   -2.2079 O   0  0  0  0  0  0  0  0  0  0  0  0
    0.8456    2.0787   -1.1888 N   0  0  0  0  0  0  0  0  0  0  0  0
    1.2975    2.3764   -0.3282 H   0  0  0  0  0  0  0  0  0  0  0  0
    1.2043    2.7576   -2.4264 C   0  0  0  0  0  0  0  0  0  0  0  0
    0.3133    2.9436   -3.0350 H   0  0  0  0  0  0  0  0  0  0  0  0
    1.6750    3.7197   -2.2036 H   0  0  0  0  0  0  0  0  0  0  0  0
    1.9088    2.1512   -3.0049 H   0  0  0  0  0  0  0  0  0  0  0  0
  1  2  1  0  0  0  0
  2  3  1  0  0  0  0
  2  4  1  0  0  0  0
  2  5  1  0  0  0  0
  5  6  2  0  0  0  0
  5  7  1  0  0  0  0
  7  8  1  0  0  0  0
  7  9  1  0  0  0  0
  9 10  1  0  0  0  0
  9 11  1  0  0  0  0
  9 20  1  0  0  0  0
 11 12  1  0  0  0  0
 11 13  1  0  0  0  0
 11 14  1  0  0  0  0
 14 15  1  0  0  0  0
 14 16  1  0  0  0  0
 14 17  1  0  0  0  0
 17 18  1  0  0  0  0
 17 19  2  0  0  0  0
 20 21  2  0  0  0  0
 20 22  1  0  0  0  0
 22 23  1  0  0  0  0
 22 24  1  0  0  0  0
 24 25  1  0  0  0  0
 24 26  1  0  0  0  0
 24 27  1  0  0  0  0
M  CHG  1  18  -1
M  END
$$$$

  -OEChem-01062216073D

 27 26  0     1  0  0  0  0  0999 V2000
   -3.7002   -2.7943    1.0692 H   0  0  0  0  0  0  0  0  0  0  0  0
   -3.4623   -1.8433    0.5841 C   0  0  0  0  0  0  0  0  0  0  0  0
   -4.0298   -1.0487    1.0743 H   0  0  0  0  0  0  0  0  0  0  0  0
   -3.7579   -1.8991   -0.4665 H   0  0  0  0  0  0  0  0  0  0  0  0
   -1.9739   -1.5585    0.6882 C   0  0  0  0  0  0  0  0  0  0  0  0
   -1.2432   -2.4511    1.0736 O   0  0  0  0  0  0  0  0  0  0  0  0
   -1.5134   -0.3525    0.1948 N   0  0  0  0  0  0  0  0  0  0  0  0
   -2.2015    0.1676   -0.3409 H   0  0  0  0  0  0  0  0  0  0  0  0
   -0.1587    0.2471    0.2229 C   0  0  1  0  0  0  0  0  0  0  0  0
   -0.3040    1.1370    0.8410 H   0  0  0  0  0  0  0  0  0  0  0  0
    1.0278   -0.4491    0.9248 C   0  0  0  0  0  0  0  0  0  0  0  0
    1.1443   -1.4608    0.5224 H   0  0  0  0  0  0  0  0  0  0  0  0
    1.9511    0.0945    0.7005 H   0  0  0  0  0  0  0  0  0  0  0  0
    0.8677   -0.5167    2.4617 C   0  0  0  0  0  0  0  0  0  0  0  0
    0.8133    0.5009    2.8578 H   0  0  0  0  0  0  0  0  0  0  0  0
   -0.0583   -1.0241    2.7359 H   0  0  0  0  0  0  0  0  0  0  0  0
    2.0420   -1.2284    3.1436 C   0  0  0  0  0  0  0  0  0  0  0  0
    3.1951   -1.0149    2.6847 O   0  5  0  0  0  0  0  0  0  0  0  0
    1.8048   -1.8633    4.2010 O   0  0  0  0  0  0  0  0  0  0  0  0
    0.2424    0.8441   -1.1427 C   0  0  0  0  0  0  0  0  0  0  0  0
   -0.3971    0.5842   -2.1577 O   0  0  0  0  0  0  0  0  0  0  0  0
    1.1051    1.9252   -1.1767 N   0  0  0  0  0  0  0  0  0  0  0  0
    1.6824    2.0611   -0.3503 H   0  0  0  0  0  0  0  0  0  0  0  0
    1.4963    2.5918   -2.4109 C   0  0  0  0  0  0  0  0  0  0  0  0
    0.6183    2.9985   -2.9231 H   0  0  0  0  0  0  0  0  0  0  0  0
    2.1790    3.4178   -2.1904 H   0  0  0  0  0  0  0  0  0  0  0  0
    2.0038    1.8896   -3.0802 H   0  0  0  0  0  0  0  0  0  0  0  0
  1  2  1  0  0  0  0
  2  3  1  0  0  0  0
  2  4  1  0  0  0  0
  2  5  1  0  0  0  0
  5  6  2  0  0  0  0
  5  7  1  0  0  0  0
  7  8  1  0  0  0  0
  7  9  1  0  0  0  0
  9 10  1  0  0  0  0
  9 11  1  0  0  0  0
  9 20  1  0  0  0  0
 11 12  1  0  0  0  0
 11 13  1  0  0  0  0
 11 14  1  0  0  0  0
 14 15  1  0  0  0  0
 14 16  1  0  0  0  0
 14 17  1  0  0  0  0
 17 18  1  0  0  0  0
 17 19  2  0  0  0  0
 20 21  2  0  0  0  0
 20 22  1  0  0  0  0
 22 23  1  0  0  0  0
 22 24  1  0  0  0  0
 24 25  1  0  0  0  0
 24 26  1  0  0  0  0
 24 27  1  0  0  0  0
M  CHG  1  18  -1
M  END
$$$$

  -OEChem-01062216073D

 27 26  0     1  0  0  0  0  0999 V2000
   -3.6803   -2.7922    1.0742 H   0  0  0  0  0  0  0  0  0  0  0  0
   -3.4473   -1.8349    0.5991 C   0  0  0  0  0  0  0  0  0  0  0  0
   -3.9991   -1.0451    1.1143 H   0  0  0  0  0  0  0  0  0  0  0  0
   -3.7656   -1.8721   -0.4455 H   0  0  0  0  0  0  0  0  0  0  0  0
   -1.9553   -1.5603    0.6757 C   0  0  0  0  0  0  0  0  0  0  0  0
   -1.2208   -2.4653    1.0245 O   0  0  0  0  0  0  0  0  0  0  0  0
   -1.4955   -0.3505    0.1913 N   0  0  0  0  0  0  0  0  0  0  0  0
   -2.1884    0.1833   -0.3254 H   0  0  0  0  0  0  0  0  0  0  0  0
   -0.1455    0.2597    0.2326 C   0  0  1  0  0  0  0  0  0  0  0  0
   -0.2913    1.1489    0.8513 H   0  0  0  0  0  0  0  0  0  0  0  0
    1.0321   -0.4505    0.9398 C   0  0  0  0  0  0  0  0  0  0  0  0
    1.1500   -1.4571    0.5257 H   0  0  0  0  0  0  0  0  0  0  0  0
    1.9620    0.0895    0.7392 H   0  0  0  0  0  0  0  0  0  0  0  0
    0.8537   -0.5377    2.4735 C   0  0  0  0  0  0  0  0  0  0  0  0
    0.7975    0.4747    2.8821 H   0  0  0  0  0  0  0  0  0  0  0  0
   -0.0766   -1.0465    2.7298 H   0  0  0  0  0  0  0  0  0  0  0  0
    2.0176   -1.2622    3.1599 C   0  0  0  0  0  0  0  0  0  0  0  0
    3.1742   -1.0703    2.6998 O   0  5  0  0  0  0  0  0  0  0  0  0
    1.7702   -1.8864    4.2214 O   0  0  0  0  0  0  0  0  0  0  0  0
    0.2542    0.8613   -1.1330 C   0  0  0  0  0  0  0  0  0  0  0  0
   -0.5038    0.7883   -2.0966 O   0  0  0  0  0  0  0  0  0  0  0  0
    1.3265    1.7319   -1.2115 N   0  0  0  0  0  0  0  0  0  0  0  0
    1.9784    1.7110   -0.4302 H   0  0  0  0  0  0  0  0  0  0  0  0
    1.7475    2.3727   -2.4490 C   0  0  0  0  0  0  0  0  0  0  0  0
    0.9406    2.9914   -2.8552 H   0  0  0  0  0  0  0  0  0  0  0  0
    2.6129    3.0154   -2.2624 H   0  0  0  0  0  0  0  0  0  0  0  0
    2.0272    1.6201   -3.1933 H   0  0  0  0  0  0  0  0  0  0  0  0
  1  2  1  0  0  0  0
  2  3  1  0  0  0  0
  2  4  1  0  0  0  0
  2  5  1  0  0  0  0
  5  6  2  0  0  0  0
  5  7  1  0  0  0  0
  7  8  1  0  0  0  0
  7  9  1  0  0  0  0
  9 10  1  0  0  0  0
  9 11  1  0  0  0  0
  9 20  1  0  0  0  0
 11 12  1  0  0  0  0
 11 13  1  0  0  0  0
 11 14  1  0  0  0  0
 14 15  1  0  0  0  0
 14 16  1  0  0  0  0
 14 17  1  0  0  0  0
 17 18  1  0  0  0  0
 17 19  2  0  0  0  0
 20 21  2  0  0  0  0
 20 22  1  0  0  0  0
 22 23  1  0  0  0  0
 22 24  1  0  0  0  0
 24 25  1  0  0  0  0
 24 26  1  0  0  0  0
 24 27  1  0  0  0  0
M  CHG  1  18  -1
M  END
$$$$

  -OEChem-01062216073D

 27 26  0     1  0  0  0  0  0999 V2000
   -3.5975   -1.6771    1.7792 H   0  0  0  0  0  0  0  0  0  0  0  0
   -2.5096   -1.7181    1.6846 C   0  0  0  0  0  0  0  0  0  0  0  0
   -2.0803   -0.9203    2.2955 H   0  0  0  0  0  0  0  0  0  0  0  0
   -2.1590   -2.6839    2.0582 H   0  0  0  0  0  0  0  0  0  0  0  0
   -2.1147   -1.5497    0.2237 C   0  0  0  0  0  0  0  0  0  0  0  0
   -2.6949   -2.2285   -0.6073 O   0  0  0  0  0  0  0  0  0  0  0  0
   -1.6500   -0.3524   -0.2625 N   0  0  0  0  0  0  0  0  0  0  0  0
   -1.8576   -0.2825   -1.2607 H   0  0  0  0  0  0  0  0  0  0  0  0
   -0.4226    0.3947    0.0958 C   0  0  1  0  0  0  0  0  0  0  0  0
   -0.6688    1.1072    0.8876 H   0  0  0  0  0  0  0  0  0  0  0  0
    0.8323   -0.4150    0.5390 C   0  0  0  0  0  0  0  0  0  0  0  0
    1.0707   -1.1321   -0.2546 H   0  0  0  0  0  0  0  0  0  0  0  0
    1.6831    0.2666    0.6275 H   0  0  0  0  0  0  0  0  0  0  0  0
    0.7651   -1.1823    1.8684 C   0  0  0  0  0  0  0  0  0  0  0  0
   -0.0184   -1.9319    1.8349 H   0  0  0  0  0  0  0  0  0  0  0  0
    0.5607   -0.4932    2.6925 H   0  0  0  0  0  0  0  0  0  0  0  0
    2.0741   -1.9307    2.1320 C   0  0  0  0  0  0  0  0  0  0  0  0
    3.1296   -1.2480    2.1481 O   0  5  0  0  0  0  0  0  0  0  0  0
    2.0159   -3.1651    2.3478 O   0  0  0  0  0  0  0  0  0  0  0  0
    0.0320    1.1986   -1.1556 C   0  0  0  0  0  0  0  0  0  0  0  0
   -0.6555    1.2151   -2.1730 O   0  0  0  0  0  0  0  0  0  0  0  0
    1.1612    1.9998   -1.1244 N   0  0  0  0  0  0  0  0  0  0  0  0
    1.7828    1.8744   -0.3290 H   0  0  0  0  0  0  0  0  0  0  0  0
    1.6669    2.7127   -2.2892 C   0  0  0  0  0  0  0  0  0  0  0  0
    0.9202    3.4231   -2.6586 H   0  0  0  0  0  0  0  0  0  0  0  0
    2.5707    3.2692   -2.0242 H   0  0  0  0  0  0  0  0  0  0  0  0
    1.9146    2.0091   -3.0907 H   0  0  0  0  0  0  0  0  0  0  0  0
  1  2  1  0  0  0  0
  2  3  1  0  0  0  0
  2  4  1  0  0  0  0
  2  5  1  0  0  0  0
  5  6  2  0  0  0  0
  5  7  1  0  0  0  0
  7  8  1  0  0  0  0
  7  9  1  0  0  0  0
  9 10  1  0  0  0  0
  9 11  1  0  0  0  0
  9 20  1  0  0  0  0
 11 12  1  0  0  0  0
 11 13  1  0  0  0  0
 11 14  1  0  0  0  0
 14 15  1  0  0  0  0
 14 16  1  0  0  0  0
 14 17  1  0  0  0  0
 17 18  1  0  0  0  0
 17 19  2  0  0  0  0
 20 21  2  0  0  0  0
 20 22  1  0  0  0  0
 22 23  1  0  0  0  0
 22 24  1  0  0  0  0
 24 25  1  0  0  0  0
 24 26  1  0  0  0  0
 24 27  1  0  0  0  0
M  CHG  1  18  -1
M  END
$$$$

  -OEChem-01062216073D

 27 26  0     1  0  0  0  0  0999 V2000
   -3.5989   -1.6863    1.7670 H   0  0  0  0  0  0  0  0  0  0  0  0
   -2.5103   -1.7265    1.6794 C   0  0  0  0  0  0  0  0  0  0  0  0
   -2.0855   -0.9291    2.2939 H   0  0  0  0  0  0  0  0  0  0  0  0
   -2.1614   -2.6926    2.0543 H   0  0  0  0  0  0  0  0  0  0  0  0
   -2.1062   -1.5548    0.2214 C   0  0  0  0  0  0  0  0  0  0  0  0
   -2.6863   -2.2268   -0.6155 O   0  0  0  0  0  0  0  0  0  0  0  0
   -1.6353   -0.3568   -0.2575 N   0  0  0  0  0  0  0  0  0  0  0  0
   -1.8663   -0.2611   -1.2481 H   0  0  0  0  0  0  0  0  0  0  0  0
   -0.4079    0.3900    0.1031 C   0  0  1  0  0  0  0  0  0  0  0  0
   -0.6514    1.1066    0.8921 H   0  0  0  0  0  0  0  0  0  0  0  0
    0.8392   -0.4286    0.5550 C   0  0  0  0  0  0  0  0  0  0  0  0
    1.0850   -1.1441   -0.2380 H   0  0  0  0  0  0  0  0  0  0  0  0
    1.6883    0.2521    0.6602 H   0  0  0  0  0  0  0  0  0  0  0  0
    0.7647   -1.1943    1.8846 C   0  0  0  0  0  0  0  0  0  0  0  0
   -0.0221   -1.9401    1.8495 H   0  0  0  0  0  0  0  0  0  0  0  0
    0.5621   -0.5038    2.7078 H   0  0  0  0  0  0  0  0  0  0  0  0
    2.0696   -1.9504    2.1511 C   0  0  0  0  0  0  0  0  0  0  0  0
    3.1367   -1.2862    2.1158 O   0  5  0  0  0  0  0  0  0  0  0  0
    1.9966   -3.1747    2.4142 O   0  0  0  0  0  0  0  0  0  0  0  0
    0.0346    1.1919   -1.1582 C   0  0  0  0  0  0  0  0  0  0  0  0
   -0.7623    1.3918   -2.0709 O   0  0  0  0  0  0  0  0  0  0  0  0
    1.2944    1.7564   -1.2776 N   0  0  0  0  0  0  0  0  0  0  0  0
    1.9815    1.4920   -0.5751 H   0  0  0  0  0  0  0  0  0  0  0  0
    1.7575    2.4487   -2.4722 C   0  0  0  0  0  0  0  0  0  0  0  0
    1.1051    3.2977   -2.7009 H   0  0  0  0  0  0  0  0  0  0  0  0
    2.7724    2.8267   -2.3167 H   0  0  0  0  0  0  0  0  0  0  0  0
    1.7676    1.7674   -3.3290 H   0  0  0  0  0  0  0  0  0  0  0  0
  1  2  1  0  0  0  0
  2  3  1  0  0  0  0
  2  4  1  0  0  0  0
  2  5  1  0  0  0  0
  5  6  2  0  0  0  0
  5  7  1  0  0  0  0
  7  8  1  0  0  0  0
  7  9  1  0  0  0  0
  9 10  1  0  0  0  0
  9 11  1  0  0  0  0
  9 20  1  0  0  0  0
 11 12  1  0  0  0  0
 11 13  1  0  0  0  0
 11 14  1  0  0  0  0
 14 15  1  0  0  0  0
 14 16  1  0  0  0  0
 14 17  1  0  0  0  0
 17 18  1  0  0  0  0
 17 19  2  0  0  0  0
 20 21  2  0  0  0  0
 20 22  1  0  0  0  0
 22 23  1  0  0  0  0
 22 24  1  0  0  0  0
 24 25  1  0  0  0  0
 24 26  1  0  0  0  0
 24 27  1  0  0  0  0
M  CHG  1  18  -1
M  END
$$$$

  -OEChem-01062216073D

 27 26  0     1  0  0  0  0  0999 V2000
   -2.0542   -0.9044    2.3301 H   0  0  0  0  0  0  0  0  0  0  0  0
   -2.5402   -1.6508    1.6969 C   0  0  0  0  0  0  0  0  0  0  0  0
   -3.6218   -1.5549    1.8204 H   0  0  0  0  0  0  0  0  0  0  0  0
   -2.2350   -2.6493    2.0212 H   0  0  0  0  0  0  0  0  0  0  0  0
   -2.1694   -1.4407    0.2352 C   0  0  0  0  0  0  0  0  0  0  0  0
   -2.8097   -2.0427   -0.6109 O   0  0  0  0  0  0  0  0  0  0  0  0
   -1.6435   -0.2532   -0.2104 N   0  0  0  0  0  0  0  0  0  0  0  0
   -1.9153   -0.0884   -1.1804 H   0  0  0  0  0  0  0  0  0  0  0  0
   -0.3667    0.4098    0.1416 C   0  0  1  0  0  0  0  0  0  0  0  0
   -0.5479    1.1128    0.9591 H   0  0  0  0  0  0  0  0  0  0  0  0
    0.8430   -0.4899    0.5355 C   0  0  0  0  0  0  0  0  0  0  0  0
    1.0367   -1.1889   -0.2860 H   0  0  0  0  0  0  0  0  0  0  0  0
    1.7226    0.1510    0.6470 H   0  0  0  0  0  0  0  0  0  0  0  0
    0.7628   -1.2957    1.8418 C   0  0  0  0  0  0  0  0  0  0  0  0
   -0.0646   -1.9955    1.7989 H   0  0  0  0  0  0  0  0  0  0  0  0
    0.6160   -0.6217    2.6902 H   0  0  0  0  0  0  0  0  0  0  0  0
    2.0250   -2.1374    2.0640 C   0  0  0  0  0  0  0  0  0  0  0  0
    3.1351   -1.6206    1.7764 O   0  5  0  0  0  0  0  0  0  0  0  0
    1.8759   -3.2820    2.5552 O   0  0  0  0  0  0  0  0  0  0  0  0
    0.0718    1.2299   -1.1100 C   0  0  0  0  0  0  0  0  0  0  0  0
   -0.7842    1.6972   -1.8555 O   0  0  0  0  0  0  0  0  0  0  0  0
    1.3968    1.4824   -1.4282 N   0  0  0  0  0  0  0  0  0  0  0  0
    2.1012    1.0044   -0.8697 H   0  0  0  0  0  0  0  0  0  0  0  0
    1.8210    2.1779   -2.6350 C   0  0  0  0  0  0  0  0  0  0  0  0
    1.3836    3.1808   -2.6738 H   0  0  0  0  0  0  0  0  0  0  0  0
    2.9106    2.2766   -2.6471 H   0  0  0  0  0  0  0  0  0  0  0  0
    1.5119    1.6209   -3.5252 H   0  0  0  0  0  0  0  0  0  0  0  0
  1  2  1  0  0  0  0
  2  3  1  0  0  0  0
  2  4  1  0  0  0  0
  2  5  1  0  0  0  0
  5  6  2  0  0  0  0
  5  7  1  0  0  0  0
  7  8  1  0  0  0  0
  7  9  1  0  0  0  0
  9 10  1  0  0  0  0
  9 11  1  0  0  0  0
  9 20  1  0  0  0  0
 11 12  1  0  0  0  0
 11 13  1  0  0  0  0
 11 14  1  0  0  0  0
 14 15  1  0  0  0  0
 14 16  1  0  0  0  0
 14 17  1  0  0  0  0
 17 18  1  0  0  0  0
 17 19  2  0  0  0  0
 20 21  2  0  0  0  0
 20 22  1  0  0  0  0
 22 23  1  0  0  0  0
 22 24  1  0  0  0  0
 24 25  1  0  0  0  0
 24 26  1  0  0  0  0
 24 27  1  0  0  0  0
M  CHG  1  18  -1
M  END
$$$$

  -OEChem-01062216073D

 27 26  0     1  0  0  0  0  0999 V2000
   -3.6020   -1.6825    1.7735 H   0  0  0  0  0  0  0  0  0  0  0  0
   -2.5149   -1.7321    1.6726 C   0  0  0  0  0  0  0  0  0  0  0  0
   -2.0758   -0.9489    2.2950 H   0  0  0  0  0  0  0  0  0  0  0  0
   -2.1719   -2.7072    2.0286 H   0  0  0  0  0  0  0  0  0  0  0  0
   -2.1252   -1.5410    0.2134 C   0  0  0  0  0  0  0  0  0  0  0  0
   -2.7180   -2.1929   -0.6303 O   0  0  0  0  0  0  0  0  0  0  0  0
   -1.6407   -0.3447   -0.2550 N   0  0  0  0  0  0  0  0  0  0  0  0
   -1.9088   -0.2118   -1.2298 H   0  0  0  0  0  0  0  0  0  0  0  0
   -0.4019    0.3807    0.1076 C   0  0  1  0  0  0  0  0  0  0  0  0
   -0.6330    1.1005    0.8978 H   0  0  0  0  0  0  0  0  0  0  0  0
    0.8356   -0.4496    0.5589 C   0  0  0  0  0  0  0  0  0  0  0  0
    1.0771   -1.1672   -0.2334 H   0  0  0  0  0  0  0  0  0  0  0  0
    1.6815    0.2382    0.6639 H   0  0  0  0  0  0  0  0  0  0  0  0
    0.7646   -1.2198    1.8876 C   0  0  0  0  0  0  0  0  0  0  0  0
   -0.0265   -1.9606    1.8450 H   0  0  0  0  0  0  0  0  0  0  0  0
    0.5624   -0.5268    2.7088 H   0  0  0  0  0  0  0  0  0  0  0  0
    2.0526   -2.0012    2.1792 C   0  0  0  0  0  0  0  0  0  0  0  0
    3.1127   -1.6554    1.5961 O   0  5  0  0  0  0  0  0  0  0  0  0
    1.9716   -2.9266    3.0221 O   0  0  0  0  0  0  0  0  0  0  0  0
    0.0276    1.1809   -1.1576 C   0  0  0  0  0  0  0  0  0  0  0  0
   -0.8270    1.7827   -1.7999 O   0  0  0  0  0  0  0  0  0  0  0  0
    1.3314    1.2309   -1.6251 N   0  0  0  0  0  0  0  0  0  0  0  0
    2.0183    0.6614   -1.1333 H   0  0  0  0  0  0  0  0  0  0  0  0
    1.7320    1.9077   -2.8501 C   0  0  0  0  0  0  0  0  0  0  0  0
    1.4793    2.9716   -2.8001 H   0  0  0  0  0  0  0  0  0  0  0  0
    2.8130    1.8160   -2.9918 H   0  0  0  0  0  0  0  0  0  0  0  0
    1.2295    1.4630   -3.7151 H   0  0  0  0  0  0  0  0  0  0  0  0
  1  2  1  0  0  0  0
  2  3  1  0  0  0  0
  2  4  1  0  0  0  0
  2  5  1  0  0  0  0
  5  6  2  0  0  0  0
  5  7  1  0  0  0  0
  7  8  1  0  0  0  0
  7  9  1  0  0  0  0
  9 10  1  0  0  0  0
  9 11  1  0  0  0  0
  9 20  1  0  0  0  0
 11 12  1  0  0  0  0
 11 13  1  0  0  0  0
 11 14  1  0  0  0  0
 14 15  1  0  0  0  0
 14 16  1  0  0  0  0
 14 17  1  0  0  0  0
 17 18  1  0  0  0  0
 17 19  2  0  0  0  0
 20 21  2  0  0  0  0
 20 22  1  0  0  0  0
 22 23  1  0  0  0  0
 22 24  1  0  0  0  0
 24 25  1  0  0  0  0
 24 26  1  0  0  0  0
 24 27  1  0  0  0  0
M  CHG  1  18  -1
M  END
$$$$

  -OEChem-01062216073D

 27 26  0     1  0  0  0  0  0999 V2000
   -3.6081   -1.6654    1.7930 H   0  0  0  0  0  0  0  0  0  0  0  0
   -2.5214   -1.7204    1.6915 C   0  0  0  0  0  0  0  0  0  0  0  0
   -2.0785   -0.9321    2.3050 H   0  0  0  0  0  0  0  0  0  0  0  0
   -2.1815   -2.6929    2.0571 H   0  0  0  0  0  0  0  0  0  0  0  0
   -2.1332   -1.5467    0.2296 C   0  0  0  0  0  0  0  0  0  0  0  0
   -2.7196   -2.2135   -0.6070 O   0  0  0  0  0  0  0  0  0  0  0  0
   -1.6572   -0.3535   -0.2540 N   0  0  0  0  0  0  0  0  0  0  0  0
   -1.9264   -0.2394   -1.2300 H   0  0  0  0  0  0  0  0  0  0  0  0
   -0.4177    0.3745    0.0997 C   0  0  1  0  0  0  0  0  0  0  0  0
   -0.6467    1.0995    0.8859 H   0  0  0  0  0  0  0  0  0  0  0  0
    0.8218   -0.4518    0.5516 C   0  0  0  0  0  0  0  0  0  0  0  0
    1.0473   -1.1829   -0.2334 H   0  0  0  0  0  0  0  0  0  0  0  0
    1.6736    0.2333    0.6331 H   0  0  0  0  0  0  0  0  0  0  0  0
    0.7592   -1.2142    1.8852 C   0  0  0  0  0  0  0  0  0  0  0  0
   -0.0289   -1.9586    1.8498 H   0  0  0  0  0  0  0  0  0  0  0  0
    0.5570   -0.5163    2.7022 H   0  0  0  0  0  0  0  0  0  0  0  0
    2.0473   -1.9943    2.1813 C   0  0  0  0  0  0  0  0  0  0  0  0
    3.0274   -1.8707    1.4017 O   0  5  0  0  0  0  0  0  0  0  0  0
    2.0450   -2.7022    3.2168 O   0  0  0  0  0  0  0  0  0  0  0  0
    0.0108    1.1656   -1.1678 C   0  0  0  0  0  0  0  0  0  0  0  0
   -0.7877    1.9453   -1.6748 O   0  0  0  0  0  0  0  0  0  0  0  0
    1.2258    0.9796   -1.8073 N   0  0  0  0  0  0  0  0  0  0  0  0
    1.8629    0.2971   -1.3989 H   0  0  0  0  0  0  0  0  0  0  0  0
    1.6129    1.6567   -3.0363 C   0  0  0  0  0  0  0  0  0  0  0  0
    1.6201    2.7414   -2.8893 H   0  0  0  0  0  0  0  0  0  0  0  0
    2.6164    1.3417   -3.3374 H   0  0  0  0  0  0  0  0  0  0  0  0
    0.9161    1.4120   -3.8444 H   0  0  0  0  0  0  0  0  0  0  0  0
  1  2  1  0  0  0  0
  2  3  1  0  0  0  0
  2  4  1  0  0  0  0
  2  5  1  0  0  0  0
  5  6  2  0  0  0  0
  5  7  1  0  0  0  0
  7  8  1  0  0  0  0
  7  9  1  0  0  0  0
  9 10  1  0  0  0  0
  9 11  1  0  0  0  0
  9 20  1  0  0  0  0
 11 12  1  0  0  0  0
 11 13  1  0  0  0  0
 11 14  1  0  0  0  0
 14 15  1  0  0  0  0
 14 16  1  0  0  0  0
 14 17  1  0  0  0  0
 17 18  1  0  0  0  0
 17 19  2  0  0  0  0
 20 21  2  0  0  0  0
 20 22  1  0  0  0  0
 22 23  1  0  0  0  0
 22 24  1  0  0  0  0
 24 25  1  0  0  0  0
 24 26  1  0  0  0  0
 24 27  1  0  0  0  0
M  CHG  1  18  -1
M  END
$$$$

  -OEChem-01062216073D

 27 26  0     1  0  0  0  0  0999 V2000
   -3.6165   -1.6256    1.8386 H   0  0  0  0  0  0  0  0  0  0  0  0
   -2.5317   -1.6937    1.7268 C   0  0  0  0  0  0  0  0  0  0  0  0
   -2.0739   -0.9067    2.3312 H   0  0  0  0  0  0  0  0  0  0  0  0
   -2.1989   -2.6675    2.0955 H   0  0  0  0  0  0  0  0  0  0  0  0
   -2.1558   -1.5332    0.2603 C   0  0  0  0  0  0  0  0  0  0  0  0
   -2.7521   -2.2018   -0.5678 O   0  0  0  0  0  0  0  0  0  0  0  0
   -1.6814   -0.3453   -0.2371 N   0  0  0  0  0  0  0  0  0  0  0  0
   -1.9549   -0.2486   -1.2131 H   0  0  0  0  0  0  0  0  0  0  0  0
   -0.4314    0.3731    0.0985 C   0  0  1  0  0  0  0  0  0  0  0  0
   -0.6443    1.1002    0.8877 H   0  0  0  0  0  0  0  0  0  0  0  0
    0.8077   -0.4618    0.5339 C   0  0  0  0  0  0  0  0  0  0  0  0
    1.0053   -1.2045   -0.2473 H   0  0  0  0  0  0  0  0  0  0  0  0
    1.6714    0.2113    0.5860 H   0  0  0  0  0  0  0  0  0  0  0  0
    0.7549   -1.2202    1.8704 C   0  0  0  0  0  0  0  0  0  0  0  0
   -0.0388   -1.9591    1.8475 H   0  0  0  0  0  0  0  0  0  0  0  0
    0.5675   -0.5173    2.6870 H   0  0  0  0  0  0  0  0  0  0  0  0
    2.0386   -2.0115    2.1542 C   0  0  0  0  0  0  0  0  0  0  0  0
    2.9401   -2.0475    1.2773 O   0  5  0  0  0  0  0  0  0  0  0  0
    2.1077   -2.5771    3.2716 O   0  0  0  0  0  0  0  0  0  0  0  0
   -0.0044    1.1592   -1.1687 C   0  0  0  0  0  0  0  0  0  0  0  0
   -0.6845    2.1127   -1.5285 O   0  0  0  0  0  0  0  0  0  0  0  0
    1.0443    0.7634   -1.9823 N   0  0  0  0  0  0  0  0  0  0  0  0
    1.6044   -0.0249   -1.6620 H   0  0  0  0  0  0  0  0  0  0  0  0
    1.4296    1.4508   -3.2061 C   0  0  0  0  0  0  0  0  0  0  0  0
    1.6845    2.4945   -2.9958 H   0  0  0  0  0  0  0  0  0  0  0  0
    2.3027    0.9638   -3.6504 H   0  0  0  0  0  0  0  0  0  0  0  0
    0.6114    1.4243   -3.9329 H   0  0  0  0  0  0  0  0  0  0  0  0
  1  2  1  0  0  0  0
  2  3  1  0  0  0  0
  2  4  1  0  0  0  0
  2  5  1  0  0  0  0
  5  6  2  0  0  0  0
  5  7  1  0  0  0  0
  7  8  1  0  0  0  0
  7  9  1  0  0  0  0
  9 10  1  0  0  0  0
  9 11  1  0  0  0  0
  9 20  1  0  0  0  0
 11 12  1  0  0  0  0
 11 13  1  0  0  0  0
 11 14  1  0  0  0  0
 14 15  1  0  0  0  0
 14 16  1  0  0  0  0
 14 17  1  0  0  0  0
 17 18  1  0  0  0  0
 17 19  2  0  0  0  0
 20 21  2  0  0  0  0
 20 22  1  0  0  0  0
 22 23  1  0  0  0  0
 22 24  1  0  0  0  0
 24 25  1  0  0  0  0
 24 26  1  0  0  0  0
 24 27  1  0  0  0  0
M  CHG  1  18  -1
M  END
$$$$

  -OEChem-01062216073D

 27 26  0     1  0  0  0  0  0999 V2000
   -3.6275   -1.6633    1.8400 H   0  0  0  0  0  0  0  0  0  0  0  0
   -2.5426   -1.7247    1.7229 C   0  0  0  0  0  0  0  0  0  0  0  0
   -2.0860   -0.9418    2.3333 H   0  0  0  0  0  0  0  0  0  0  0  0
   -2.2034   -2.7008    2.0794 H   0  0  0  0  0  0  0  0  0  0  0  0
   -2.1742   -1.5469    0.2566 C   0  0  0  0  0  0  0  0  0  0  0  0
   -2.7759   -2.2039   -0.5767 O   0  0  0  0  0  0  0  0  0  0  0  0
   -1.7070   -0.3529   -0.2326 N   0  0  0  0  0  0  0  0  0  0  0  0
   -1.9735   -0.2619   -1.2106 H   0  0  0  0  0  0  0  0  0  0  0  0
   -0.4630    0.3701    0.1145 C   0  0  1  0  0  0  0  0  0  0  0  0
   -0.6830    1.0884    0.9102 H   0  0  0  0  0  0  0  0  0  0  0  0
    0.7872   -0.4538    0.5395 C   0  0  0  0  0  0  0  0  0  0  0  0
    0.9954   -1.1853   -0.2484 H   0  0  0  0  0  0  0  0  0  0  0  0
    1.6450    0.2261    0.5970 H   0  0  0  0  0  0  0  0  0  0  0  0
    0.7348   -1.2260    1.8659 C   0  0  0  0  0  0  0  0  0  0  0  0
   -0.0439   -1.9810    1.8383 H   0  0  0  0  0  0  0  0  0  0  0  0
    0.5341   -0.5395    2.6939 H   0  0  0  0  0  0  0  0  0  0  0  0
    2.0407   -1.9878    2.1046 C   0  0  0  0  0  0  0  0  0  0  0  0
    2.4442   -2.7596    1.1989 O   0  5  0  0  0  0  0  0  0  0  0  0
    2.6356   -1.7847    3.1903 O   0  0  0  0  0  0  0  0  0  0  0  0
   -0.0357    1.1648   -1.1431 C   0  0  0  0  0  0  0  0  0  0  0  0
   -0.5352    2.2629   -1.3535 O   0  0  0  0  0  0  0  0  0  0  0  0
    0.8015    0.6262   -2.1051 N   0  0  0  0  0  0  0  0  0  0  0  0
    1.2130   -0.2823   -1.9007 H   0  0  0  0  0  0  0  0  0  0  0  0
    1.2064    1.3275   -3.3143 C   0  0  0  0  0  0  0  0  0  0  0  0
    1.7034    2.2699   -3.0627 H   0  0  0  0  0  0  0  0  0  0  0  0
    1.9045    0.7113   -3.8888 H   0  0  0  0  0  0  0  0  0  0  0  0
    0.3357    1.5414   -3.9423 H   0  0  0  0  0  0  0  0  0  0  0  0
  1  2  1  0  0  0  0
  2  3  1  0  0  0  0
  2  4  1  0  0  0  0
  2  5  1  0  0  0  0
  5  6  2  0  0  0  0
  5  7  1  0  0  0  0
  7  8  1  0  0  0  0
  7  9  1  0  0  0  0
  9 10  1  0  0  0  0
  9 11  1  0  0  0  0
  9 20  1  0  0  0  0
 11 12  1  0  0  0  0
 11 13  1  0  0  0  0
 11 14  1  0  0  0  0
 14 15  1  0  0  0  0
 14 16  1  0  0  0  0
 14 17  1  0  0  0  0
 17 18  1  0  0  0  0
 17 19  2  0  0  0  0
 20 21  2  0  0  0  0
 20 22  1  0  0  0  0
 22 23  1  0  0  0  0
 22 24  1  0  0  0  0
 24 25  1  0  0  0  0
 24 26  1  0  0  0  0
 24 27  1  0  0  0  0
M  CHG  1  18  -1
M  END
$$$$

  -OEChem-01062216073D

 27 26  0     1  0  0  0  0  0999 V2000
   -3.6293   -1.6741    1.8714 H   0  0  0  0  0  0  0  0  0  0  0  0
   -2.5459   -1.7342    1.7417 C   0  0  0  0  0  0  0  0  0  0  0  0
   -2.0822   -0.9568    2.3538 H   0  0  0  0  0  0  0  0  0  0  0  0
   -2.2023   -2.7132    2.0858 H   0  0  0  0  0  0  0  0  0  0  0  0
   -2.1936   -1.5443    0.2730 C   0  0  0  0  0  0  0  0  0  0  0  0
   -2.7957   -2.2003   -0.5606 O   0  0  0  0  0  0  0  0  0  0  0  0
   -1.7345   -0.3477   -0.2173 N   0  0  0  0  0  0  0  0  0  0  0  0
   -1.9972   -0.2653   -1.1969 H   0  0  0  0  0  0  0  0  0  0  0  0
   -0.4956    0.3836    0.1320 C   0  0  1  0  0  0  0  0  0  0  0  0
   -0.7149    1.0961    0.9333 H   0  0  0  0  0  0  0  0  0  0  0  0
    0.7669   -0.4325    0.5332 C   0  0  0  0  0  0  0  0  0  0  0  0
    0.9834   -1.1471   -0.2680 H   0  0  0  0  0  0  0  0  0  0  0  0
    1.6165    0.2573    0.5965 H   0  0  0  0  0  0  0  0  0  0  0  0
    0.7283   -1.2253    1.8477 C   0  0  0  0  0  0  0  0  0  0  0  0
   -0.0435   -1.9871    1.8123 H   0  0  0  0  0  0  0  0  0  0  0  0
    0.5257   -0.5544    2.6878 H   0  0  0  0  0  0  0  0  0  0  0  0
    2.0427   -1.9772    2.0661 C   0  0  0  0  0  0  0  0  0  0  0  0
    2.4024   -2.7927    1.1807 O   0  5  0  0  0  0  0  0  0  0  0  0
    2.6850   -1.7280    3.1147 O   0  0  0  0  0  0  0  0  0  0  0  0
   -0.0729    1.1779   -1.1237 C   0  0  0  0  0  0  0  0  0  0  0  0
   -0.3560    2.3656   -1.2138 O   0  0  0  0  0  0  0  0  0  0  0  0
    0.5051    0.5440   -2.2096 N   0  0  0  0  0  0  0  0  0  0  0  0
    0.7795   -0.4272   -2.0781 H   0  0  0  0  0  0  0  0  0  0  0  0
    0.9320    1.2382   -3.4153 C   0  0  0  0  0  0  0  0  0  0  0  0
    1.6940    1.9869   -3.1762 H   0  0  0  0  0  0  0  0  0  0  0  0
    1.3576    0.5250   -4.1276 H   0  0  0  0  0  0  0  0  0  0  0  0
    0.0814    1.7361   -3.8919 H   0  0  0  0  0  0  0  0  0  0  0  0
  1  2  1  0  0  0  0
  2  3  1  0  0  0  0
  2  4  1  0  0  0  0
  2  5  1  0  0  0  0
  5  6  2  0  0  0  0
  5  7  1  0  0  0  0
  7  8  1  0  0  0  0
  7  9  1  0  0  0  0
  9 10  1  0  0  0  0
  9 11  1  0  0  0  0
  9 20  1  0  0  0  0
 11 12  1  0  0  0  0
 11 13  1  0  0  0  0
 11 14  1  0  0  0  0
 14 15  1  0  0  0  0
 14 16  1  0  0  0  0
 14 17  1  0  0  0  0
 17 18  1  0  0  0  0
 17 19  2  0  0  0  0
 20 21  2  0  0  0  0
 20 22  1  0  0  0  0
 22 23  1  0  0  0  0
 22 24  1  0  0  0  0
 24 25  1  0  0  0  0
 24 26  1  0  0  0  0
 24 27  1  0  0  0  0
M  CHG  1  18  -1
M  END
$$$$

  -OEChem-01062216073D

 27 26  0     1  0  0  0  0  0999 V2000
   -3.6305   -1.6703    1.9060 H   0  0  0  0  0  0  0  0  0  0  0  0
   -2.5482   -1.7303    1.7665 C   0  0  0  0  0  0  0  0  0  0  0  0
   -2.0789   -0.9550    2.3772 H   0  0  0  0  0  0  0  0  0  0  0  0
   -2.2019   -2.7104    2.1050 H   0  0  0  0  0  0  0  0  0  0  0  0
   -2.2084   -1.5354    0.2955 C   0  0  0  0  0  0  0  0  0  0  0  0
   -2.8093   -2.1927   -0.5379 O   0  0  0  0  0  0  0  0  0  0  0  0
   -1.7569   -0.3363   -0.1951 N   0  0  0  0  0  0  0  0  0  0  0  0
   -2.0184   -0.2556   -1.1749 H   0  0  0  0  0  0  0  0  0  0  0  0
   -0.5240    0.4036    0.1588 C   0  0  1  0  0  0  0  0  0  0  0  0
   -0.7412    1.1082    0.9676 H   0  0  0  0  0  0  0  0  0  0  0  0
    0.7487   -0.4091    0.5301 C   0  0  0  0  0  0  0  0  0  0  0  0
    0.9703   -1.0991   -0.2913 H   0  0  0  0  0  0  0  0  0  0  0  0
    1.5912    0.2883    0.6058 H   0  0  0  0  0  0  0  0  0  0  0  0
    0.7252   -1.2306    1.8273 C   0  0  0  0  0  0  0  0  0  0  0  0
   -0.0418   -1.9968    1.7822 H   0  0  0  0  0  0  0  0  0  0  0  0
    0.5245   -0.5794    2.6833 H   0  0  0  0  0  0  0  0  0  0  0  0
    2.0469   -1.9759    2.0186 C   0  0  0  0  0  0  0  0  0  0  0  0
    2.3734   -2.8153    1.1427 O   0  5  0  0  0  0  0  0  0  0  0  0
    2.7252   -1.7022    3.0381 O   0  0  0  0  0  0  0  0  0  0  0  0
   -0.1025    1.1985   -1.0944 C   0  0  0  0  0  0  0  0  0  0  0  0
   -0.1419    2.4219   -1.0885 O   0  0  0  0  0  0  0  0  0  0  0  0
    0.1898    0.5362   -2.2737 N   0  0  0  0  0  0  0  0  0  0  0  0
    0.3047   -0.4728   -2.2083 H   0  0  0  0  0  0  0  0  0  0  0  0
    0.6278    1.2138   -3.4849 C   0  0  0  0  0  0  0  0  0  0  0  0
    1.5678    1.7460   -3.3068 H   0  0  0  0  0  0  0  0  0  0  0  0
    0.7870    0.4851   -4.2853 H   0  0  0  0  0  0  0  0  0  0  0  0
   -0.1291    1.9315   -3.8174 H   0  0  0  0  0  0  0  0  0  0  0  0
  1  2  1  0  0  0  0
  2  3  1  0  0  0  0
  2  4  1  0  0  0  0
  2  5  1  0  0  0  0
  5  6  2  0  0  0  0
  5  7  1  0  0  0  0
  7  8  1  0  0  0  0
  7  9  1  0  0  0  0
  9 10  1  0  0  0  0
  9 11  1  0  0  0  0
  9 20  1  0  0  0  0
 11 12  1  0  0  0  0
 11 13  1  0  0  0  0
 11 14  1  0  0  0  0
 14 15  1  0  0  0  0
 14 16  1  0  0  0  0
 14 17  1  0  0  0  0
 17 18  1  0  0  0  0
 17 19  2  0  0  0  0
 20 21  2  0  0  0  0
 20 22  1  0  0  0  0
 22 23  1  0  0  0  0
 22 24  1  0  0  0  0
 24 25  1  0  0  0  0
 24 26  1  0  0  0  0
 24 27  1  0  0  0  0
M  CHG  1  18  -1
M  END
$$$$

  -OEChem-01062216073D

 27 26  0     1  0  0  0  0  0999 V2000
   -3.6182   -1.6932    1.9462 H   0  0  0  0  0  0  0  0  0  0  0  0
   -2.5388   -1.7518    1.7873 C   0  0  0  0  0  0  0  0  0  0  0  0
   -2.0589   -0.9859    2.4013 H   0  0  0  0  0  0  0  0  0  0  0  0
   -2.1875   -2.7371    2.1050 H   0  0  0  0  0  0  0  0  0  0  0  0
   -2.2243   -1.5361    0.3133 C   0  0  0  0  0  0  0  0  0  0  0  0
   -2.8443   -2.1755   -0.5201 O   0  0  0  0  0  0  0  0  0  0  0  0
   -1.7743   -0.3341   -0.1722 N   0  0  0  0  0  0  0  0  0  0  0  0
   -2.0572   -0.2330   -1.1441 H   0  0  0  0  0  0  0  0  0  0  0  0
   -0.5505    0.4212    0.1853 C   0  0  1  0  0  0  0  0  0  0  0  0
   -0.7700    1.1187    0.9996 H   0  0  0  0  0  0  0  0  0  0  0  0
    0.7319   -0.3854    0.5335 C   0  0  0  0  0  0  0  0  0  0  0  0
    0.9555   -1.0544   -0.3052 H   0  0  0  0  0  0  0  0  0  0  0  0
    1.5677    0.3191    0.6187 H   0  0  0  0  0  0  0  0  0  0  0  0
    0.7250   -1.2305    1.8161 C   0  0  0  0  0  0  0  0  0  0  0  0
   -0.0337   -2.0045    1.7596 H   0  0  0  0  0  0  0  0  0  0  0  0
    0.5214   -0.5974    2.6847 H   0  0  0  0  0  0  0  0  0  0  0  0
    2.0537   -1.9679    1.9890 C   0  0  0  0  0  0  0  0  0  0  0  0
    2.3793   -2.7957    1.1018 O   0  5  0  0  0  0  0  0  0  0  0  0
    2.7335   -1.7066    3.0109 O   0  0  0  0  0  0  0  0  0  0  0  0
   -0.1241    1.2200   -1.0640 C   0  0  0  0  0  0  0  0  0  0  0  0
    0.0730    2.4255   -0.9877 O   0  0  0  0  0  0  0  0  0  0  0  0
   -0.1147    0.6078   -2.3059 N   0  0  0  0  0  0  0  0  0  0  0  0
   -0.1386   -0.4095   -2.3006 H   0  0  0  0  0  0  0  0  0  0  0  0
    0.3161    1.2851   -3.5204 C   0  0  0  0  0  0  0  0  0  0  0  0
    1.3616    1.5977   -3.4334 H   0  0  0  0  0  0  0  0  0  0  0  0
    0.2242    0.6119   -4.3779 H   0  0  0  0  0  0  0  0  0  0  0  0
   -0.3037    2.1678   -3.7081 H   0  0  0  0  0  0  0  0  0  0  0  0
  1  2  1  0  0  0  0
  2  3  1  0  0  0  0
  2  4  1  0  0  0  0
  2  5  1  0  0  0  0
  5  6  2  0  0  0  0
  5  7  1  0  0  0  0
  7  8  1  0  0  0  0
  7  9  1  0  0  0  0
  9 10  1  0  0  0  0
  9 11  1  0  0  0  0
  9 20  1  0  0  0  0
 11 12  1  0  0  0  0
 11 13  1  0  0  0  0
 11 14  1  0  0  0  0
 14 15  1  0  0  0  0
 14 16  1  0  0  0  0
 14 17  1  0  0  0  0
 17 18  1  0  0  0  0
 17 19  2  0  0  0  0
 20 21  2  0  0  0  0
 20 22  1  0  0  0  0
 22 23  1  0  0  0  0
 22 24  1  0  0  0  0
 24 25  1  0  0  0  0
 24 26  1  0  0  0  0
 24 27  1  0  0  0  0
M  CHG  1  18  -1
M  END
$$$$

  -OEChem-01062216073D

 27 26  0     1  0  0  0  0  0999 V2000
   -3.6051   -1.7691    1.9527 H   0  0  0  0  0  0  0  0  0  0  0  0
   -2.5244   -1.7966    1.7927 C   0  0  0  0  0  0  0  0  0  0  0  0
   -2.0649   -1.0217    2.4113 H   0  0  0  0  0  0  0  0  0  0  0  0
   -2.1464   -2.7742    2.1037 H   0  0  0  0  0  0  0  0  0  0  0  0
   -2.2165   -1.5622    0.3203 C   0  0  0  0  0  0  0  0  0  0  0  0
   -2.8472   -2.1850   -0.5178 O   0  0  0  0  0  0  0  0  0  0  0  0
   -1.7749   -0.3534   -0.1554 N   0  0  0  0  0  0  0  0  0  0  0  0
   -2.0910   -0.2246   -1.1128 H   0  0  0  0  0  0  0  0  0  0  0  0
   -0.5641    0.4245    0.2031 C   0  0  1  0  0  0  0  0  0  0  0  0
   -0.7932    1.1130    1.0223 H   0  0  0  0  0  0  0  0  0  0  0  0
    0.7272   -0.3710    0.5445 C   0  0  0  0  0  0  0  0  0  0  0  0
    0.9561   -1.0312   -0.2999 H   0  0  0  0  0  0  0  0  0  0  0  0
    1.5573    0.3397    0.6344 H   0  0  0  0  0  0  0  0  0  0  0  0
    0.7275   -1.2223    1.8231 C   0  0  0  0  0  0  0  0  0  0  0  0
   -0.0237   -2.0022    1.7623 H   0  0  0  0  0  0  0  0  0  0  0  0
    0.5166   -0.5946    2.6939 H   0  0  0  0  0  0  0  0  0  0  0  0
    2.0603   -1.9514    1.9983 C   0  0  0  0  0  0  0  0  0  0  0  0
    2.3846   -2.7890    1.1198 O   0  5  0  0  0  0  0  0  0  0  0  0
    2.7396   -1.6821    3.0187 O   0  0  0  0  0  0  0  0  0  0  0  0
   -0.1363    1.2381   -1.0387 C   0  0  0  0  0  0  0  0  0  0  0  0
    0.2710    2.3852   -0.9103 O   0  0  0  0  0  0  0  0  0  0  0  0
   -0.3911    0.7541   -2.3119 N   0  0  0  0  0  0  0  0  0  0  0  0
   -0.5473   -0.2488   -2.3779 H   0  0  0  0  0  0  0  0  0  0  0  0
    0.0039    1.4680   -3.5180 C   0  0  0  0  0  0  0  0  0  0  0  0
    1.0903    1.6006   -3.5454 H   0  0  0  0  0  0  0  0  0  0  0  0
   -0.3005    0.9034   -4.4043 H   0  0  0  0  0  0  0  0  0  0  0  0
   -0.4748    2.4520   -3.5560 H   0  0  0  0  0  0  0  0  0  0  0  0
  1  2  1  0  0  0  0
  2  3  1  0  0  0  0
  2  4  1  0  0  0  0
  2  5  1  0  0  0  0
  5  6  2  0  0  0  0
  5  7  1  0  0  0  0
  7  8  1  0  0  0  0
  7  9  1  0  0  0  0
  9 10  1  0  0  0  0
  9 11  1  0  0  0  0
  9 20  1  0  0  0  0
 11 12  1  0  0  0  0
 11 13  1  0  0  0  0
 11 14  1  0  0  0  0
 14 15  1  0  0  0  0
 14 16  1  0  0  0  0
 14 17  1  0  0  0  0
 17 18  1  0  0  0  0
 17 19  2  0  0  0  0
 20 21  2  0  0  0  0
 20 22  1  0  0  0  0
 22 23  1  0  0  0  0
 22 24  1  0  0  0  0
 24 25  1  0  0  0  0
 24 26  1  0  0  0  0
 24 27  1  0  0  0  0
M  CHG  1  18  -1
M  END
$$$$

  -OEChem-01062216073D

 27 26  0     1  0  0  0  0  0999 V2000
   -3.6006   -1.7985    1.9611 H   0  0  0  0  0  0  0  0  0  0  0  0
   -2.5200   -1.8156    1.7986 C   0  0  0  0  0  0  0  0  0  0  0  0
   -2.0667   -1.0397    2.4205 H   0  0  0  0  0  0  0  0  0  0  0  0
   -2.1330   -2.7915    2.1038 H   0  0  0  0  0  0  0  0  0  0  0  0
   -2.2169   -1.5701    0.3268 C   0  0  0  0  0  0  0  0  0  0  0  0
   -2.8728   -2.1659   -0.5119 O   0  0  0  0  0  0  0  0  0  0  0  0
   -1.7681   -0.3610   -0.1415 N   0  0  0  0  0  0  0  0  0  0  0  0
   -2.1228   -0.2012   -1.0790 H   0  0  0  0  0  0  0  0  0  0  0  0
   -0.5599    0.4247    0.2143 C   0  0  1  0  0  0  0  0  0  0  0  0
   -0.7900    1.1111    1.0348 H   0  0  0  0  0  0  0  0  0  0  0  0
    0.7284   -0.3785    0.5575 C   0  0  0  0  0  0  0  0  0  0  0  0
    0.9529   -1.0397   -0.2875 H   0  0  0  0  0  0  0  0  0  0  0  0
    1.5640    0.3255    0.6480 H   0  0  0  0  0  0  0  0  0  0  0  0
    0.7273   -1.2292    1.8368 C   0  0  0  0  0  0  0  0  0  0  0  0
   -0.0264   -2.0062    1.7781 H   0  0  0  0  0  0  0  0  0  0  0  0
    0.5212   -0.6003    2.7080 H   0  0  0  0  0  0  0  0  0  0  0  0
    2.0573   -1.9637    2.0094 C   0  0  0  0  0  0  0  0  0  0  0  0
    2.3555   -2.8337    1.1538 O   0  5  0  0  0  0  0  0  0  0  0  0
    2.7581   -1.6696    3.0083 O   0  0  0  0  0  0  0  0  0  0  0  0
   -0.1210    1.2470   -1.0223 C   0  0  0  0  0  0  0  0  0  0  0  0
    0.4816    2.3017   -0.8694 O   0  0  0  0  0  0  0  0  0  0  0  0
   -0.6152    0.9497   -2.2835 N   0  0  0  0  0  0  0  0  0  0  0  0
   -0.9104   -0.0131   -2.4198 H   0  0  0  0  0  0  0  0  0  0  0  0
   -0.2589    1.7224   -3.4655 C   0  0  0  0  0  0  0  0  0  0  0  0
    0.8222    1.6866   -3.6347 H   0  0  0  0  0  0  0  0  0  0  0  0
   -0.7634    1.3141   -4.3462 H   0  0  0  0  0  0  0  0  0  0  0  0
   -0.5651    2.7670   -3.3479 H   0  0  0  0  0  0  0  0  0  0  0  0
  1  2  1  0  0  0  0
  2  3  1  0  0  0  0
  2  4  1  0  0  0  0
  2  5  1  0  0  0  0
  5  6  2  0  0  0  0
  5  7  1  0  0  0  0
  7  8  1  0  0  0  0
  7  9  1  0  0  0  0
  9 10  1  0  0  0  0
  9 11  1  0  0  0  0
  9 20  1  0  0  0  0
 11 12  1  0  0  0  0
 11 13  1  0  0  0  0
 11 14  1  0  0  0  0
 14 15  1  0  0  0  0
 14 16  1  0  0  0  0
 14 17  1  0  0  0  0
 17 18  1  0  0  0  0
 17 19  2  0  0  0  0
 20 21  2  0  0  0  0
 20 22  1  0  0  0  0
 22 23  1  0  0  0  0
 22 24  1  0  0  0  0
 24 25  1  0  0  0  0
 24 26  1  0  0  0  0
 24 27  1  0  0  0  0
M  CHG  1  18  -1
M  END
$$$$

  -OEChem-01062216073D

 27 26  0     1  0  0  0  0  0999 V2000
   -3.5945   -1.8123    1.9515 H   0  0  0  0  0  0  0  0  0  0  0  0
   -2.5118   -1.8298    1.8041 C   0  0  0  0  0  0  0  0  0  0  0  0
   -2.0677   -1.0490    2.4265 H   0  0  0  0  0  0  0  0  0  0  0  0
   -2.1284   -2.8028    2.1224 H   0  0  0  0  0  0  0  0  0  0  0  0
   -2.1880   -1.5959    0.3346 C   0  0  0  0  0  0  0  0  0  0  0  0
   -2.8372   -2.1959   -0.5064 O   0  0  0  0  0  0  0  0  0  0  0  0
   -1.7552   -0.3823   -0.1371 N   0  0  0  0  0  0  0  0  0  0  0  0
   -2.1065   -0.2465   -1.0770 H   0  0  0  0  0  0  0  0  0  0  0  0
   -0.5503    0.4153    0.2088 C   0  0  1  0  0  0  0  0  0  0  0  0
   -0.7847    1.0990    1.0299 H   0  0  0  0  0  0  0  0  0  0  0  0
    0.7364   -0.3909    0.5647 C   0  0  0  0  0  0  0  0  0  0  0  0
    0.9599   -1.0614   -0.2730 H   0  0  0  0  0  0  0  0  0  0  0  0
    1.5768    0.3072    0.6522 H   0  0  0  0  0  0  0  0  0  0  0  0
    0.7309   -1.2261    1.8553 C   0  0  0  0  0  0  0  0  0  0  0  0
   -0.0239   -2.0019    1.8048 H   0  0  0  0  0  0  0  0  0  0  0  0
    0.5242   -0.5858    2.7178 H   0  0  0  0  0  0  0  0  0  0  0  0
    2.0556   -1.9664    2.0441 C   0  0  0  0  0  0  0  0  0  0  0  0
    2.3660   -2.8321    1.1885 O   0  5  0  0  0  0  0  0  0  0  0  0
    2.7342   -1.6897    3.0633 O   0  0  0  0  0  0  0  0  0  0  0  0
   -0.1124    1.2542   -1.0233 C   0  0  0  0  0  0  0  0  0  0  0  0
    0.6738    2.1818   -0.8782 O   0  0  0  0  0  0  0  0  0  0  0  0
   -0.8047    1.1929   -2.2250 N   0  0  0  0  0  0  0  0  0  0  0  0
   -1.2792    0.3177   -2.4169 H   0  0  0  0  0  0  0  0  0  0  0  0
   -0.4718    2.0376   -3.3652 C   0  0  0  0  0  0  0  0  0  0  0  0
    0.5591    1.8579   -3.6873 H   0  0  0  0  0  0  0  0  0  0  0  0
   -1.1411    1.8185   -4.2024 H   0  0  0  0  0  0  0  0  0  0  0  0
   -0.5825    3.0954   -3.1054 H   0  0  0  0  0  0  0  0  0  0  0  0
  1  2  1  0  0  0  0
  2  3  1  0  0  0  0
  2  4  1  0  0  0  0
  2  5  1  0  0  0  0
  5  6  2  0  0  0  0
  5  7  1  0  0  0  0
  7  8  1  0  0  0  0
  7  9  1  0  0  0  0
  9 10  1  0  0  0  0
  9 11  1  0  0  0  0
  9 20  1  0  0  0  0
 11 12  1  0  0  0  0
 11 13  1  0  0  0  0
 11 14  1  0  0  0  0
 14 15  1  0  0  0  0
 14 16  1  0  0  0  0
 14 17  1  0  0  0  0
 17 18  1  0  0  0  0
 17 19  2  0  0  0  0
 20 21  2  0  0  0  0
 20 22  1  0  0  0  0
 22 23  1  0  0  0  0
 22 24  1  0  0  0  0
 24 25  1  0  0  0  0
 24 26  1  0  0  0  0
 24 27  1  0  0  0  0
M  CHG  1  18  -1
M  END
$$$$

  -OEChem-01062216073D

 27 26  0     1  0  0  0  0  0999 V2000
   -3.6142   -1.7796    1.7910 H   0  0  0  0  0  0  0  0  0  0  0  0
   -2.5237   -1.8170    1.7324 C   0  0  0  0  0  0  0  0  0  0  0  0
   -2.1155   -1.0320    2.3740 H   0  0  0  0  0  0  0  0  0  0  0  0
   -2.1822   -2.7893    2.0978 H   0  0  0  0  0  0  0  0  0  0  0  0
   -2.0780   -1.6176    0.2904 C   0  0  0  0  0  0  0  0  0  0  0  0
   -2.6112   -2.2816   -0.5825 O   0  0  0  0  0  0  0  0  0  0  0  0
   -1.6886   -0.3900   -0.1798 N   0  0  0  0  0  0  0  0  0  0  0  0
   -1.8243   -0.4384   -1.1851 H   0  0  0  0  0  0  0  0  0  0  0  0
   -0.4771    0.3923    0.1819 C   0  0  1  0  0  0  0  0  0  0  0  0
   -0.7227    1.0717    1.0030 H   0  0  0  0  0  0  0  0  0  0  0  0
    0.7951   -0.4175    0.5854 C   0  0  0  0  0  0  0  0  0  0  0  0
    1.0369   -1.1054   -0.2325 H   0  0  0  0  0  0  0  0  0  0  0  0
    1.6400    0.2721    0.6885 H   0  0  0  0  0  0  0  0  0  0  0  0
    0.7386   -1.2221    1.8953 C   0  0  0  0  0  0  0  0  0  0  0  0
   -0.0274   -1.9875    1.8490 H   0  0  0  0  0  0  0  0  0  0  0  0
    0.5187   -0.5568    2.7353 H   0  0  0  0  0  0  0  0  0  0  0  0
    2.0478   -1.9725    2.1397 C   0  0  0  0  0  0  0  0  0  0  0  0
    2.2971   -2.9622    1.4081 O   0  5  0  0  0  0  0  0  0  0  0  0
    2.7765   -1.5739    3.0811 O   0  0  0  0  0  0  0  0  0  0  0  0
   -0.0736    1.2574   -1.0480 C   0  0  0  0  0  0  0  0  0  0  0  0
    0.9679    1.8993   -1.0812 O   0  0  0  0  0  0  0  0  0  0  0  0
   -0.9645    1.4483   -2.0948 N   0  0  0  0  0  0  0  0  0  0  0  0
   -1.9102    1.1092   -1.9570 H   0  0  0  0  0  0  0  0  0  0  0  0
   -0.7082    2.3490   -3.2111 C   0  0  0  0  0  0  0  0  0  0  0  0
    0.2434    2.1023   -3.6934 H   0  0  0  0  0  0  0  0  0  0  0  0
   -1.5034    2.2584   -3.9569 H   0  0  0  0  0  0  0  0  0  0  0  0
   -0.6708    3.3867   -2.8643 H   0  0  0  0  0  0  0  0  0  0  0  0
  1  2  1  0  0  0  0
  2  3  1  0  0  0  0
  2  4  1  0  0  0  0
  2  5  1  0  0  0  0
  5  6  2  0  0  0  0
  5  7  1  0  0  0  0
  7  8  1  0  0  0  0
  7  9  1  0  0  0  0
  9 10  1  0  0  0  0
  9 11  1  0  0  0  0
  9 20  1  0  0  0  0
 11 12  1  0  0  0  0
 11 13  1  0  0  0  0
 11 14  1  0  0  0  0
 14 15  1  0  0  0  0
 14 16  1  0  0  0  0
 14 17  1  0  0  0  0
 17 18  1  0  0  0  0
 17 19  2  0  0  0  0
 20 21  2  0  0  0  0
 20 22  1  0  0  0  0
 22 23  1  0  0  0  0
 22 24  1  0  0  0  0
 24 25  1  0  0  0  0
 24 26  1  0  0  0  0
 24 27  1  0  0  0  0
M  CHG  1  18  -1
M  END
$$$$

  -OEChem-01062216073D

 27 26  0     1  0  0  0  0  0999 V2000
   -3.6071   -1.7913    1.7236 H   0  0  0  0  0  0  0  0  0  0  0  0
   -2.5159   -1.8225    1.6748 C   0  0  0  0  0  0  0  0  0  0  0  0
   -2.1182   -1.0481    2.3354 H   0  0  0  0  0  0  0  0  0  0  0  0
   -2.1740   -2.8002    2.0247 H   0  0  0  0  0  0  0  0  0  0  0  0
   -2.0566   -1.5940    0.2411 C   0  0  0  0  0  0  0  0  0  0  0  0
   -2.5980   -2.2284   -0.6486 O   0  0  0  0  0  0  0  0  0  0  0  0
   -1.6493   -0.3592   -0.1961 N   0  0  0  0  0  0  0  0  0  0  0  0
   -1.7971   -0.3622   -1.2027 H   0  0  0  0  0  0  0  0  0  0  0  0
   -0.4302    0.4014    0.1847 C   0  0  1  0  0  0  0  0  0  0  0  0
   -0.6766    1.0742    1.0106 H   0  0  0  0  0  0  0  0  0  0  0  0
    0.8319   -0.4169    0.6015 C   0  0  0  0  0  0  0  0  0  0  0  0
    1.0821   -1.1048   -0.2139 H   0  0  0  0  0  0  0  0  0  0  0  0
    1.6778    0.2694    0.7190 H   0  0  0  0  0  0  0  0  0  0  0  0
    0.7475   -1.2214    1.9096 C   0  0  0  0  0  0  0  0  0  0  0  0
   -0.0270   -1.9771    1.8504 H   0  0  0  0  0  0  0  0  0  0  0  0
    0.5216   -0.5549    2.7472 H   0  0  0  0  0  0  0  0  0  0  0  0
    2.0456   -1.9832    2.1751 C   0  0  0  0  0  0  0  0  0  0  0  0
    2.2446   -3.0392    1.5254 O   0  5  0  0  0  0  0  0  0  0  0  0
    2.8171   -1.5229    3.0524 O   0  0  0  0  0  0  0  0  0  0  0  0
   -0.0427    1.2790   -1.0413 C   0  0  0  0  0  0  0  0  0  0  0  0
    1.0929    1.6805   -1.2568 O   0  0  0  0  0  0  0  0  0  0  0  0
   -1.0428    1.7263   -1.8916 N   0  0  0  0  0  0  0  0  0  0  0  0
   -1.9990    1.5180   -1.6221 H   0  0  0  0  0  0  0  0  0  0  0  0
   -0.8087    2.6286   -3.0114 C   0  0  0  0  0  0  0  0  0  0  0  0
   -0.0514    2.2147   -3.6854 H   0  0  0  0  0  0  0  0  0  0  0  0
   -1.7327    2.7706   -3.5798 H   0  0  0  0  0  0  0  0  0  0  0  0
   -0.4675    3.6043   -2.6510 H   0  0  0  0  0  0  0  0  0  0  0  0
  1  2  1  0  0  0  0
  2  3  1  0  0  0  0
  2  4  1  0  0  0  0
  2  5  1  0  0  0  0
  5  6  2  0  0  0  0
  5  7  1  0  0  0  0
  7  8  1  0  0  0  0
  7  9  1  0  0  0  0
  9 10  1  0  0  0  0
  9 11  1  0  0  0  0
  9 20  1  0  0  0  0
 11 12  1  0  0  0  0
 11 13  1  0  0  0  0
 11 14  1  0  0  0  0
 14 15  1  0  0  0  0
 14 16  1  0  0  0  0
 14 17  1  0  0  0  0
 17 18  1  0  0  0  0
 17 19  2  0  0  0  0
 20 21  2  0  0  0  0
 20 22  1  0  0  0  0
 22 23  1  0  0  0  0
 22 24  1  0  0  0  0
 24 25  1  0  0  0  0
 24 26  1  0  0  0  0
 24 27  1  0  0  0  0
M  CHG  1  18  -1
M  END
$$$$

  -OEChem-01062216073D

 27 26  0     1  0  0  0  0  0999 V2000
   -3.6024   -1.8324    1.6328 H   0  0  0  0  0  0  0  0  0  0  0  0
   -2.5102   -1.8432    1.5976 C   0  0  0  0  0  0  0  0  0  0  0  0
   -2.1352   -1.0733    2.2765 H   0  0  0  0  0  0  0  0  0  0  0  0
   -2.1554   -2.8207    1.9353 H   0  0  0  0  0  0  0  0  0  0  0  0
   -2.0375   -1.5808    0.1740 C   0  0  0  0  0  0  0  0  0  0  0  0
   -2.5817   -2.1869   -0.7335 O   0  0  0  0  0  0  0  0  0  0  0  0
   -1.6155   -0.3385   -0.2277 N   0  0  0  0  0  0  0  0  0  0  0  0
   -1.7686   -0.2973   -1.2334 H   0  0  0  0  0  0  0  0  0  0  0  0
   -0.3986    0.4059    0.1854 C   0  0  1  0  0  0  0  0  0  0  0  0
   -0.6580    1.0680    1.0158 H   0  0  0  0  0  0  0  0  0  0  0  0
    0.8564   -0.4097    0.6231 C   0  0  0  0  0  0  0  0  0  0  0  0
    1.1243   -1.0962   -0.1879 H   0  0  0  0  0  0  0  0  0  0  0  0
    1.6965    0.2813    0.7563 H   0  0  0  0  0  0  0  0  0  0  0  0
    0.7424   -1.2193    1.9250 C   0  0  0  0  0  0  0  0  0  0  0  0
   -0.0312   -1.9736    1.8432 H   0  0  0  0  0  0  0  0  0  0  0  0
    0.4964   -0.5576    2.7606 H   0  0  0  0  0  0  0  0  0  0  0  0
    2.0342   -1.9806    2.2192 C   0  0  0  0  0  0  0  0  0  0  0  0
    2.1817   -3.1080    1.6868 O   0  5  0  0  0  0  0  0  0  0  0  0
    2.8549   -1.4428    3.0027 O   0  0  0  0  0  0  0  0  0  0  0  0
   -0.0068    1.3000   -1.0240 C   0  0  0  0  0  0  0  0  0  0  0  0
    1.1374    1.4590   -1.4273 O   0  0  0  0  0  0  0  0  0  0  0  0
   -1.0129    2.0039   -1.6652 N   0  0  0  0  0  0  0  0  0  0  0  0
   -1.9534    1.8988   -1.2972 H   0  0  0  0  0  0  0  0  0  0  0  0
   -0.7852    2.9092   -2.7834 C   0  0  0  0  0  0  0  0  0  0  0  0
   -0.2992    2.3820   -3.6109 H   0  0  0  0  0  0  0  0  0  0  0  0
   -1.7379    3.3100   -3.1418 H   0  0  0  0  0  0  0  0  0  0  0  0
   -0.1503    3.7459   -2.4743 H   0  0  0  0  0  0  0  0  0  0  0  0
  1  2  1  0  0  0  0
  2  3  1  0  0  0  0
  2  4  1  0  0  0  0
  2  5  1  0  0  0  0
  5  6  2  0  0  0  0
  5  7  1  0  0  0  0
  7  8  1  0  0  0  0
  7  9  1  0  0  0  0
  9 10  1  0  0  0  0
  9 11  1  0  0  0  0
  9 20  1  0  0  0  0
 11 12  1  0  0  0  0
 11 13  1  0  0  0  0
 11 14  1  0  0  0  0
 14 15  1  0  0  0  0
 14 16  1  0  0  0  0
 14 17  1  0  0  0  0
 17 18  1  0  0  0  0
 17 19  2  0  0  0  0
 20 21  2  0  0  0  0
 20 22  1  0  0  0  0
 22 23  1  0  0  0  0
 22 24  1  0  0  0  0
 24 25  1  0  0  0  0
 24 26  1  0  0  0  0
 24 27  1  0  0  0  0
M  CHG  1  18  -1
M  END
$$$$

  -OEChem-01062216073D

 27 26  0     1  0  0  0  0  0999 V2000
   -3.5936   -1.6651    1.7916 H   0  0  0  0  0  0  0  0  0  0  0  0
   -2.5044   -1.7106    1.7144 C   0  0  0  0  0  0  0  0  0  0  0  0
   -2.0803   -0.9325    2.3539 H   0  0  0  0  0  0  0  0  0  0  0  0
   -2.1660   -2.6880    2.0685 H   0  0  0  0  0  0  0  0  0  0  0  0
   -2.0809   -1.5062    0.2661 C   0  0  0  0  0  0  0  0  0  0  0  0
   -2.6854   -2.1159   -0.6001 O   0  0  0  0  0  0  0  0  0  0  0  0
   -1.6227   -0.2942   -0.1860 N   0  0  0  0  0  0  0  0  0  0  0  0
   -1.8184   -0.2642   -1.1848 H   0  0  0  0  0  0  0  0  0  0  0  0
   -0.3626    0.4062    0.1626 C   0  0  1  0  0  0  0  0  0  0  0  0
   -0.5672    1.1011    0.9814 H   0  0  0  0  0  0  0  0  0  0  0  0
    0.8775   -0.4350    0.5890 C   0  0  0  0  0  0  0  0  0  0  0  0
    1.0912   -1.1638   -0.2012 H   0  0  0  0  0  0  0  0  0  0  0  0
    1.7449    0.2313    0.6606 H   0  0  0  0  0  0  0  0  0  0  0  0
    0.7769   -1.1909    1.9233 C   0  0  0  0  0  0  0  0  0  0  0  0
   -0.0265   -1.9174    1.8943 H   0  0  0  0  0  0  0  0  0  0  0  0
    0.5828   -0.4896    2.7401 H   0  0  0  0  0  0  0  0  0  0  0  0
    2.0503   -1.9862    2.2074 C   0  0  0  0  0  0  0  0  0  0  0  0
    2.9534   -1.4088    2.8619 O   0  5  0  0  0  0  0  0  0  0  0  0
    2.1048   -3.1719    1.7984 O   0  0  0  0  0  0  0  0  0  0  0  0
    0.0212    1.2476   -1.0829 C   0  0  0  0  0  0  0  0  0  0  0  0
    1.0515    1.1031   -1.7270 O   0  0  0  0  0  0  0  0  0  0  0  0
   -0.8776    2.2089   -1.5118 N   0  0  0  0  0  0  0  0  0  0  0  0
   -1.7527    2.2808   -1.0025 H   0  0  0  0  0  0  0  0  0  0  0  0
   -0.6698    3.0446   -2.6864 C   0  0  0  0  0  0  0  0  0  0  0  0
   -0.5867    2.4263   -3.5861 H   0  0  0  0  0  0  0  0  0  0  0  0
   -1.5127    3.7302   -2.8140 H   0  0  0  0  0  0  0  0  0  0  0  0
    0.2444    3.6371   -2.5774 H   0  0  0  0  0  0  0  0  0  0  0  0
  1  2  1  0  0  0  0
  2  3  1  0  0  0  0
  2  4  1  0  0  0  0
  2  5  1  0  0  0  0
  5  6  2  0  0  0  0
  5  7  1  0  0  0  0
  7  8  1  0  0  0  0
  7  9  1  0  0  0  0
  9 10  1  0  0  0  0
  9 11  1  0  0  0  0
  9 20  1  0  0  0  0
 11 12  1  0  0  0  0
 11 13  1  0  0  0  0
 11 14  1  0  0  0  0
 14 15  1  0  0  0  0
 14 16  1  0  0  0  0
 14 17  1  0  0  0  0
 17 18  1  0  0  0  0
 17 19  2  0  0  0  0
 20 21  2  0  0  0  0
 20 22  1  0  0  0  0
 22 23  1  0  0  0  0
 22 24  1  0  0  0  0
 24 25  1  0  0  0  0
 24 26  1  0  0  0  0
 24 27  1  0  0  0  0
M  CHG  1  18  -1
M  END
$$$$

  -OEChem-01062216073D

 27 26  0     1  0  0  0  0  0999 V2000
   -3.5953   -1.6632    1.7673 H   0  0  0  0  0  0  0  0  0  0  0  0
   -2.5068   -1.7119    1.6832 C   0  0  0  0  0  0  0  0  0  0  0  0
   -2.0765   -0.9440    2.3305 H   0  0  0  0  0  0  0  0  0  0  0  0
   -2.1704   -2.6957    2.0217 H   0  0  0  0  0  0  0  0  0  0  0  0
   -2.0912   -1.4896    0.2354 C   0  0  0  0  0  0  0  0  0  0  0  0
   -2.7076   -2.0835   -0.6335 O   0  0  0  0  0  0  0  0  0  0  0  0
   -1.6169   -0.2777   -0.2012 N   0  0  0  0  0  0  0  0  0  0  0  0
   -1.8044   -0.2306   -1.2013 H   0  0  0  0  0  0  0  0  0  0  0  0
   -0.3554    0.4067    0.1666 C   0  0  1  0  0  0  0  0  0  0  0  0
   -0.5642    1.0905    0.9934 H   0  0  0  0  0  0  0  0  0  0  0  0
    0.8833   -0.4350    0.5911 C   0  0  0  0  0  0  0  0  0  0  0  0
    1.1020   -1.1578   -0.2032 H   0  0  0  0  0  0  0  0  0  0  0  0
    1.7480    0.2339    0.6688 H   0  0  0  0  0  0  0  0  0  0  0  0
    0.7762   -1.2064    1.9158 C   0  0  0  0  0  0  0  0  0  0  0  0
   -0.0284   -1.9316    1.8699 H   0  0  0  0  0  0  0  0  0  0  0  0
    0.5772   -0.5157    2.7400 H   0  0  0  0  0  0  0  0  0  0  0  0
    2.0503   -2.0011    2.2002 C   0  0  0  0  0  0  0  0  0  0  0  0
    3.0289   -1.3640    2.6628 O   0  5  0  0  0  0  0  0  0  0  0  0
    2.0304   -3.2400    1.9982 O   0  0  0  0  0  0  0  0  0  0  0  0
    0.0539    1.2562   -1.0622 C   0  0  0  0  0  0  0  0  0  0  0  0
    0.8836    0.9007   -1.8882 O   0  0  0  0  0  0  0  0  0  0  0  0
   -0.6478    2.4229   -1.3091 N   0  0  0  0  0  0  0  0  0  0  0  0
   -1.4083    2.6468   -0.6758 H   0  0  0  0  0  0  0  0  0  0  0  0
   -0.4466    3.2492   -2.4915 C   0  0  0  0  0  0  0  0  0  0  0  0
   -0.6866    2.6846   -3.3983 H   0  0  0  0  0  0  0  0  0  0  0  0
   -1.0943    4.1297   -2.4493 H   0  0  0  0  0  0  0  0  0  0  0  0
    0.5931    3.5877   -2.5493 H   0  0  0  0  0  0  0  0  0  0  0  0
  1  2  1  0  0  0  0
  2  3  1  0  0  0  0
  2  4  1  0  0  0  0
  2  5  1  0  0  0  0
  5  6  2  0  0  0  0
  5  7  1  0  0  0  0
  7  8  1  0  0  0  0
  7  9  1  0  0  0  0
  9 10  1  0  0  0  0
  9 11  1  0  0  0  0
  9 20  1  0  0  0  0
 11 12  1  0  0  0  0
 11 13  1  0  0  0  0
 11 14  1  0  0  0  0
 14 15  1  0  0  0  0
 14 16  1  0  0  0  0
 14 17  1  0  0  0  0
 17 18  1  0  0  0  0
 17 19  2  0  0  0  0
 20 21  2  0  0  0  0
 20 22  1  0  0  0  0
 22 23  1  0  0  0  0
 22 24  1  0  0  0  0
 24 25  1  0  0  0  0
 24 26  1  0  0  0  0
 24 27  1  0  0  0  0
M  CHG  1  18  -1
M  END
$$$$

  -OEChem-01062216073D

 27 26  0     1  0  0  0  0  0999 V2000
   -3.6005   -1.6753    1.7322 H   0  0  0  0  0  0  0  0  0  0  0  0
   -2.5113   -1.7187    1.6545 C   0  0  0  0  0  0  0  0  0  0  0  0
   -2.0887   -0.9466    2.3019 H   0  0  0  0  0  0  0  0  0  0  0  0
   -2.1717   -2.6995    1.9985 H   0  0  0  0  0  0  0  0  0  0  0  0
   -2.0887   -1.4991    0.2082 C   0  0  0  0  0  0  0  0  0  0  0  0
   -2.6891   -2.1083   -0.6613 O   0  0  0  0  0  0  0  0  0  0  0  0
   -1.6125   -0.2878   -0.2285 N   0  0  0  0  0  0  0  0  0  0  0  0
   -1.7715   -0.2497   -1.2345 H   0  0  0  0  0  0  0  0  0  0  0  0
   -0.3620    0.4021    0.1616 C   0  0  1  0  0  0  0  0  0  0  0  0
   -0.5918    1.0814    0.9864 H   0  0  0  0  0  0  0  0  0  0  0  0
    0.8816   -0.4231    0.5976 C   0  0  0  0  0  0  0  0  0  0  0  0
    1.1210   -1.1387   -0.1971 H   0  0  0  0  0  0  0  0  0  0  0  0
    1.7350    0.2587    0.6876 H   0  0  0  0  0  0  0  0  0  0  0  0
    0.7689   -1.2037    1.9165 C   0  0  0  0  0  0  0  0  0  0  0  0
   -0.0274   -1.9371    1.8546 H   0  0  0  0  0  0  0  0  0  0  0  0
    0.5524   -0.5198    2.7420 H   0  0  0  0  0  0  0  0  0  0  0  0
    2.0511   -1.9822    2.2143 C   0  0  0  0  0  0  0  0  0  0  0  0
    3.0685   -1.3118    2.5204 O   0  5  0  0  0  0  0  0  0  0  0  0
    1.9988   -3.2363    2.1886 O   0  0  0  0  0  0  0  0  0  0  0  0
    0.0794    1.2479   -1.0558 C   0  0  0  0  0  0  0  0  0  0  0  0
    0.6511    0.7600   -2.0218 O   0  0  0  0  0  0  0  0  0  0  0  0
   -0.3765    2.5500   -1.1616 N   0  0  0  0  0  0  0  0  0  0  0  0
   -0.9444    2.9077   -0.4011 H   0  0  0  0  0  0  0  0  0  0  0  0
   -0.1600    3.3858   -2.3347 C   0  0  0  0  0  0  0  0  0  0  0  0
   -0.6377    2.9418   -3.2140 H   0  0  0  0  0  0  0  0  0  0  0  0
   -0.5877    4.3794   -2.1722 H   0  0  0  0  0  0  0  0  0  0  0  0
    0.9111    3.4986   -2.5323 H   0  0  0  0  0  0  0  0  0  0  0  0
  1  2  1  0  0  0  0
  2  3  1  0  0  0  0
  2  4  1  0  0  0  0
  2  5  1  0  0  0  0
  5  6  2  0  0  0  0
  5  7  1  0  0  0  0
  7  8  1  0  0  0  0
  7  9  1  0  0  0  0
  9 10  1  0  0  0  0
  9 11  1  0  0  0  0
  9 20  1  0  0  0  0
 11 12  1  0  0  0  0
 11 13  1  0  0  0  0
 11 14  1  0  0  0  0
 14 15  1  0  0  0  0
 14 16  1  0  0  0  0
 14 17  1  0  0  0  0
 17 18  1  0  0  0  0
 17 19  2  0  0  0  0
 20 21  2  0  0  0  0
 20 22  1  0  0  0  0
 22 23  1  0  0  0  0
 22 24  1  0  0  0  0
 24 25  1  0  0  0  0
 24 26  1  0  0  0  0
 24 27  1  0  0  0  0
M  CHG  1  18  -1
M  END
$$$$

  -OEChem-01062216073D

 27 26  0     1  0  0  0  0  0999 V2000
   -3.6010   -1.6673    1.7403 H   0  0  0  0  0  0  0  0  0  0  0  0
   -2.5123   -1.7135    1.6575 C   0  0  0  0  0  0  0  0  0  0  0  0
   -2.0849   -0.9334    2.2920 H   0  0  0  0  0  0  0  0  0  0  0  0
   -2.1722   -2.6899    2.0127 H   0  0  0  0  0  0  0  0  0  0  0  0
   -2.0974   -1.5148    0.2059 C   0  0  0  0  0  0  0  0  0  0  0  0
   -2.6877   -2.1529   -0.6496 O   0  0  0  0  0  0  0  0  0  0  0  0
   -1.6253   -0.3083   -0.2490 N   0  0  0  0  0  0  0  0  0  0  0  0
   -1.7651   -0.2872   -1.2593 H   0  0  0  0  0  0  0  0  0  0  0  0
   -0.3829    0.3916    0.1448 C   0  0  1  0  0  0  0  0  0  0  0  0
   -0.6280    1.0753    0.9613 H   0  0  0  0  0  0  0  0  0  0  0  0
    0.8686   -0.4150    0.5873 C   0  0  0  0  0  0  0  0  0  0  0  0
    1.1196   -1.1279   -0.2066 H   0  0  0  0  0  0  0  0  0  0  0  0
    1.7128    0.2778    0.6787 H   0  0  0  0  0  0  0  0  0  0  0  0
    0.7640   -1.1945    1.9075 C   0  0  0  0  0  0  0  0  0  0  0  0
   -0.0217   -1.9400    1.8449 H   0  0  0  0  0  0  0  0  0  0  0  0
    0.5364   -0.5127    2.7316 H   0  0  0  0  0  0  0  0  0  0  0  0
    2.0580   -1.9526    2.2071 C   0  0  0  0  0  0  0  0  0  0  0  0
    3.0722   -1.2619    2.4771 O   0  5  0  0  0  0  0  0  0  0  0  0
    2.0207   -3.2071    2.2169 O   0  0  0  0  0  0  0  0  0  0  0  0
    0.0787    1.2217   -1.0741 C   0  0  0  0  0  0  0  0  0  0  0  0
    0.3726    0.6863   -2.1352 O   0  0  0  0  0  0  0  0  0  0  0  0
   -0.1000    2.5938   -1.0651 N   0  0  0  0  0  0  0  0  0  0  0  0
   -0.3780    3.0229   -0.1891 H   0  0  0  0  0  0  0  0  0  0  0  0
    0.1816    3.4490   -2.2100 C   0  0  0  0  0  0  0  0  0  0  0  0
   -0.4539    3.1749   -3.0584 H   0  0  0  0  0  0  0  0  0  0  0  0
   -0.0147    4.4946   -1.9552 H   0  0  0  0  0  0  0  0  0  0  0  0
    1.2309    3.3562   -2.5084 H   0  0  0  0  0  0  0  0  0  0  0  0
  1  2  1  0  0  0  0
  2  3  1  0  0  0  0
  2  4  1  0  0  0  0
  2  5  1  0  0  0  0
  5  6  2  0  0  0  0
  5  7  1  0  0  0  0
  7  8  1  0  0  0  0
  7  9  1  0  0  0  0
  9 10  1  0  0  0  0
  9 11  1  0  0  0  0
  9 20  1  0  0  0  0
 11 12  1  0  0  0  0
 11 13  1  0  0  0  0
 11 14  1  0  0  0  0
 14 15  1  0  0  0  0
 14 16  1  0  0  0  0
 14 17  1  0  0  0  0
 17 18  1  0  0  0  0
 17 19  2  0  0  0  0
 20 21  2  0  0  0  0
 20 22  1  0  0  0  0
 22 23  1  0  0  0  0
 22 24  1  0  0  0  0
 24 25  1  0  0  0  0
 24 26  1  0  0  0  0
 24 27  1  0  0  0  0
M  CHG  1  18  -1
M  END
$$$$

  -OEChem-01062216073D

 27 26  0     1  0  0  0  0  0999 V2000
   -3.6048   -1.6501    1.7531 H   0  0  0  0  0  0  0  0  0  0  0  0
   -2.5171   -1.7046    1.6633 C   0  0  0  0  0  0  0  0  0  0  0  0
   -2.0802   -0.9208    2.2866 H   0  0  0  0  0  0  0  0  0  0  0  0
   -2.1807   -2.6795    2.0261 H   0  0  0  0  0  0  0  0  0  0  0  0
   -2.1123   -1.5236    0.2069 C   0  0  0  0  0  0  0  0  0  0  0  0
   -2.7013   -2.1794   -0.6361 O   0  0  0  0  0  0  0  0  0  0  0  0
   -1.6411   -0.3225   -0.2627 N   0  0  0  0  0  0  0  0  0  0  0  0
   -1.7751   -0.3085   -1.2749 H   0  0  0  0  0  0  0  0  0  0  0  0
   -0.4029    0.3861    0.1276 C   0  0  1  0  0  0  0  0  0  0  0  0
   -0.6551    1.0761    0.9368 H   0  0  0  0  0  0  0  0  0  0  0  0
    0.8535   -0.4110    0.5695 C   0  0  0  0  0  0  0  0  0  0  0  0
    1.1066   -1.1231   -0.2246 H   0  0  0  0  0  0  0  0  0  0  0  0
    1.6939    0.2870    0.6578 H   0  0  0  0  0  0  0  0  0  0  0  0
    0.7594   -1.1892    1.8906 C   0  0  0  0  0  0  0  0  0  0  0  0
   -0.0215   -1.9405    1.8316 H   0  0  0  0  0  0  0  0  0  0  0  0
    0.5313   -0.5078    2.7148 H   0  0  0  0  0  0  0  0  0  0  0  0
    2.0617   -1.9355    2.1831 C   0  0  0  0  0  0  0  0  0  0  0  0
    3.0759   -1.2344    2.4255 O   0  5  0  0  0  0  0  0  0  0  0  0
    2.0335   -3.1899    2.2084 O   0  0  0  0  0  0  0  0  0  0  0  0
    0.0716    1.2038   -1.0944 C   0  0  0  0  0  0  0  0  0  0  0  0
    0.1181    0.6992   -2.2101 O   0  0  0  0  0  0  0  0  0  0  0  0
    0.1878    2.5787   -0.9913 N   0  0  0  0  0  0  0  0  0  0  0  0
    0.1804    2.9751   -0.0572 H   0  0  0  0  0  0  0  0  0  0  0  0
    0.5530    3.4344   -2.1119 C   0  0  0  0  0  0  0  0  0  0  0  0
   -0.1839    3.3472   -2.9172 H   0  0  0  0  0  0  0  0  0  0  0  0
    0.5899    4.4795   -1.7905 H   0  0  0  0  0  0  0  0  0  0  0  0
    1.5377    3.1554   -2.5007 H   0  0  0  0  0  0  0  0  0  0  0  0
  1  2  1  0  0  0  0
  2  3  1  0  0  0  0
  2  4  1  0  0  0  0
  2  5  1  0  0  0  0
  5  6  2  0  0  0  0
  5  7  1  0  0  0  0
  7  8  1  0  0  0  0
  7  9  1  0  0  0  0
  9 10  1  0  0  0  0
  9 11  1  0  0  0  0
  9 20  1  0  0  0  0
 11 12  1  0  0  0  0
 11 13  1  0  0  0  0
 11 14  1  0  0  0  0
 14 15  1  0  0  0  0
 14 16  1  0  0  0  0
 14 17  1  0  0  0  0
 17 18  1  0  0  0  0
 17 19  2  0  0  0  0
 20 21  2  0  0  0  0
 20 22  1  0  0  0  0
 22 23  1  0  0  0  0
 22 24  1  0  0  0  0
 24 25  1  0  0  0  0
 24 26  1  0  0  0  0
 24 27  1  0  0  0  0
M  CHG  1  18  -1
M  END
$$$$

  -OEChem-01062216073D

 27 26  0     1  0  0  0  0  0999 V2000
   -3.6057   -1.6455    1.7705 H   0  0  0  0  0  0  0  0  0  0  0  0
   -2.5184   -1.6979    1.6742 C   0  0  0  0  0  0  0  0  0  0  0  0
   -2.0796   -0.9054    2.2849 H   0  0  0  0  0  0  0  0  0  0  0  0
   -2.1768   -2.6672    2.0471 H   0  0  0  0  0  0  0  0  0  0  0  0
   -2.1233   -1.5330    0.2129 C   0  0  0  0  0  0  0  0  0  0  0  0
   -2.7098   -2.2066   -0.6178 O   0  0  0  0  0  0  0  0  0  0  0  0
   -1.6546   -0.3375   -0.2738 N   0  0  0  0  0  0  0  0  0  0  0  0
   -1.7990   -0.3230   -1.2853 H   0  0  0  0  0  0  0  0  0  0  0  0
   -0.4172    0.3804    0.1027 C   0  0  1  0  0  0  0  0  0  0  0  0
   -0.6709    1.0808    0.9024 H   0  0  0  0  0  0  0  0  0  0  0  0
    0.8427   -0.4088    0.5469 C   0  0  0  0  0  0  0  0  0  0  0  0
    1.0943   -1.1266   -0.2422 H   0  0  0  0  0  0  0  0  0  0  0  0
    1.6811    0.2926    0.6257 H   0  0  0  0  0  0  0  0  0  0  0  0
    0.7592   -1.1742    1.8762 C   0  0  0  0  0  0  0  0  0  0  0  0
   -0.0197   -1.9285    1.8275 H   0  0  0  0  0  0  0  0  0  0  0  0
    0.5330   -0.4854    2.6947 H   0  0  0  0  0  0  0  0  0  0  0  0
    2.0650   -1.9145    2.1708 C   0  0  0  0  0  0  0  0  0  0  0  0
    3.0992   -1.2134    2.3055 O   0  5  0  0  0  0  0  0  0  0  0  0
    2.0203   -3.1608    2.3096 O   0  0  0  0  0  0  0  0  0  0  0  0
    0.0642    1.1869   -1.1250 C   0  0  0  0  0  0  0  0  0  0  0  0
   -0.1212    0.7717   -2.2638 O   0  0  0  0  0  0  0  0  0  0  0  0
    0.4784    2.4966   -0.9593 N   0  0  0  0  0  0  0  0  0  0  0  0
    0.7101    2.7847   -0.0137 H   0  0  0  0  0  0  0  0  0  0  0  0
    0.9087    3.3393   -2.0665 C   0  0  0  0  0  0  0  0  0  0  0  0
    0.0981    3.4633   -2.7919 H   0  0  0  0  0  0  0  0  0  0  0  0
    1.1932    4.3286   -1.6964 H   0  0  0  0  0  0  0  0  0  0  0  0
    1.7724    2.8955   -2.5721 H   0  0  0  0  0  0  0  0  0  0  0  0
  1  2  1  0  0  0  0
  2  3  1  0  0  0  0
  2  4  1  0  0  0  0
  2  5  1  0  0  0  0
  5  6  2  0  0  0  0
  5  7  1  0  0  0  0
  7  8  1  0  0  0  0
  7  9  1  0  0  0  0
  9 10  1  0  0  0  0
  9 11  1  0  0  0  0
  9 20  1  0  0  0  0
 11 12  1  0  0  0  0
 11 13  1  0  0  0  0
 11 14  1  0  0  0  0
 14 15  1  0  0  0  0
 14 16  1  0  0  0  0
 14 17  1  0  0  0  0
 17 18  1  0  0  0  0
 17 19  2  0  0  0  0
 20 21  2  0  0  0  0
 20 22  1  0  0  0  0
 22 23  1  0  0  0  0
 22 24  1  0  0  0  0
 24 25  1  0  0  0  0
 24 26  1  0  0  0  0
 24 27  1  0  0  0  0
M  CHG  1  18  -1
M  END
$$$$

  -OEChem-01062216073D

 27 26  0     1  0  0  0  0  0999 V2000
   -3.6056   -1.6428    1.7846 H   0  0  0  0  0  0  0  0  0  0  0  0
   -2.5186   -1.6947    1.6860 C   0  0  0  0  0  0  0  0  0  0  0  0
   -2.0796   -0.8965    2.2890 H   0  0  0  0  0  0  0  0  0  0  0  0
   -2.1753   -2.6608    2.0655 H   0  0  0  0  0  0  0  0  0  0  0  0
   -2.1284   -1.5410    0.2223 C   0  0  0  0  0  0  0  0  0  0  0  0
   -2.7144   -2.2249   -0.6003 O   0  0  0  0  0  0  0  0  0  0  0  0
   -1.6619   -0.3492   -0.2757 N   0  0  0  0  0  0  0  0  0  0  0  0
   -1.8245   -0.3265   -1.2846 H   0  0  0  0  0  0  0  0  0  0  0  0
   -0.4273    0.3807    0.0880 C   0  0  1  0  0  0  0  0  0  0  0  0
   -0.6799    1.0902    0.8802 H   0  0  0  0  0  0  0  0  0  0  0  0
    0.8338   -0.4080    0.5332 C   0  0  0  0  0  0  0  0  0  0  0  0
    1.0776   -1.1322   -0.2527 H   0  0  0  0  0  0  0  0  0  0  0  0
    1.6768    0.2884    0.6035 H   0  0  0  0  0  0  0  0  0  0  0  0
    0.7604   -1.1652    1.8671 C   0  0  0  0  0  0  0  0  0  0  0  0
   -0.0181   -1.9206    1.8314 H   0  0  0  0  0  0  0  0  0  0  0  0
    0.5418   -0.4718    2.6839 H   0  0  0  0  0  0  0  0  0  0  0  0
    2.0720   -1.9001    2.1481 C   0  0  0  0  0  0  0  0  0  0  0  0
    3.1004   -1.1916    2.2906 O   0  5  0  0  0  0  0  0  0  0  0  0
    2.0411   -3.1498    2.2541 O   0  0  0  0  0  0  0  0  0  0  0  0
    0.0537    1.1789   -1.1472 C   0  0  0  0  0  0  0  0  0  0  0  0
   -0.3260    0.8865   -2.2766 O   0  0  0  0  0  0  0  0  0  0  0  0
    0.7470    2.3630   -0.9681 N   0  0  0  0  0  0  0  0  0  0  0  0
    1.1483    2.5169   -0.0475 H   0  0  0  0  0  0  0  0  0  0  0  0
    1.2299    3.1740   -2.0773 C   0  0  0  0  0  0  0  0  0  0  0  0
    0.3962    3.4958   -2.7098 H   0  0  0  0  0  0  0  0  0  0  0  0
    1.7367    4.0657   -1.6966 H   0  0  0  0  0  0  0  0  0  0  0  0
    1.9385    2.6048   -2.6876 H   0  0  0  0  0  0  0  0  0  0  0  0
  1  2  1  0  0  0  0
  2  3  1  0  0  0  0
  2  4  1  0  0  0  0
  2  5  1  0  0  0  0
  5  6  2  0  0  0  0
  5  7  1  0  0  0  0
  7  8  1  0  0  0  0
  7  9  1  0  0  0  0
  9 10  1  0  0  0  0
  9 11  1  0  0  0  0
  9 20  1  0  0  0  0
 11 12  1  0  0  0  0
 11 13  1  0  0  0  0
 11 14  1  0  0  0  0
 14 15  1  0  0  0  0
 14 16  1  0  0  0  0
 14 17  1  0  0  0  0
 17 18  1  0  0  0  0
 17 19  2  0  0  0  0
 20 21  2  0  0  0  0
 20 22  1  0  0  0  0
 22 23  1  0  0  0  0
 22 24  1  0  0  0  0
 24 25  1  0  0  0  0
 24 26  1  0  0  0  0
 24 27  1  0  0  0  0
M  CHG  1  18  -1
M  END
$$$$

  -OEChem-01062216073D

 27 26  0     1  0  0  0  0  0999 V2000
   -3.6052   -1.6507    1.7800 H   0  0  0  0  0  0  0  0  0  0  0  0
   -2.5177   -1.7027    1.6836 C   0  0  0  0  0  0  0  0  0  0  0  0
   -2.0799   -0.9048    2.2880 H   0  0  0  0  0  0  0  0  0  0  0  0
   -2.1749   -2.6690    2.0635 H   0  0  0  0  0  0  0  0  0  0  0  0
   -2.1240   -1.5481    0.2208 C   0  0  0  0  0  0  0  0  0  0  0  0
   -2.7050   -2.2344   -0.6034 O   0  0  0  0  0  0  0  0  0  0  0  0
   -1.6593   -0.3546   -0.2753 N   0  0  0  0  0  0  0  0  0  0  0  0
   -1.8408   -0.3133   -1.2804 H   0  0  0  0  0  0  0  0  0  0  0  0
   -0.4298    0.3870    0.0849 C   0  0  1  0  0  0  0  0  0  0  0  0
   -0.6811    1.0994    0.8749 H   0  0  0  0  0  0  0  0  0  0  0  0
    0.8295   -0.4092    0.5297 C   0  0  0  0  0  0  0  0  0  0  0  0
    1.0706   -1.1315   -0.2584 H   0  0  0  0  0  0  0  0  0  0  0  0
    1.6762    0.2808    0.6054 H   0  0  0  0  0  0  0  0  0  0  0  0
    0.7602   -1.1699    1.8622 C   0  0  0  0  0  0  0  0  0  0  0  0
   -0.0198   -1.9238    1.8278 H   0  0  0  0  0  0  0  0  0  0  0  0
    0.5474   -0.4784    2.6819 H   0  0  0  0  0  0  0  0  0  0  0  0
    2.0719   -1.9091    2.1358 C   0  0  0  0  0  0  0  0  0  0  0  0
    3.1175   -1.2134    2.1907 O   0  5  0  0  0  0  0  0  0  0  0  0
    2.0246   -3.1483    2.3247 O   0  0  0  0  0  0  0  0  0  0  0  0
    0.0437    1.1862   -1.1568 C   0  0  0  0  0  0  0  0  0  0  0  0
   -0.5005    1.0407   -2.2475 O   0  0  0  0  0  0  0  0  0  0  0  0
    0.9796    2.1968   -1.0185 N   0  0  0  0  0  0  0  0  0  0  0  0
    1.5072    2.2064   -0.1494 H   0  0  0  0  0  0  0  0  0  0  0  0
    1.4930    2.9631   -2.1456 C   0  0  0  0  0  0  0  0  0  0  0  0
    0.6799    3.4937   -2.6517 H   0  0  0  0  0  0  0  0  0  0  0  0
    2.2207    3.7016   -1.7963 H   0  0  0  0  0  0  0  0  0  0  0  0
    1.9867    2.3016   -2.8649 H   0  0  0  0  0  0  0  0  0  0  0  0
  1  2  1  0  0  0  0
  2  3  1  0  0  0  0
  2  4  1  0  0  0  0
  2  5  1  0  0  0  0
  5  6  2  0  0  0  0
  5  7  1  0  0  0  0
  7  8  1  0  0  0  0
  7  9  1  0  0  0  0
  9 10  1  0  0  0  0
  9 11  1  0  0  0  0
  9 20  1  0  0  0  0
 11 12  1  0  0  0  0
 11 13  1  0  0  0  0
 11 14  1  0  0  0  0
 14 15  1  0  0  0  0
 14 16  1  0  0  0  0
 14 17  1  0  0  0  0
 17 18  1  0  0  0  0
 17 19  2  0  0  0  0
 20 21  2  0  0  0  0
 20 22  1  0  0  0  0
 22 23  1  0  0  0  0
 22 24  1  0  0  0  0
 24 25  1  0  0  0  0
 24 26  1  0  0  0  0
 24 27  1  0  0  0  0
M  CHG  1  18  -1
M  END
$$$$

  -OEChem-01062216073D

 27 26  0     1  0  0  0  0  0999 V2000
   -1.8566   -2.9745    1.5269 H   0  0  0  0  0  0  0  0  0  0  0  0
   -2.1395   -2.3152    0.7022 C   0  0  0  0  0  0  0  0  0  0  0  0
   -3.0957   -2.6532    0.2954 H   0  0  0  0  0  0  0  0  0  0  0  0
   -1.3892   -2.3941   -0.0861 H   0  0  0  0  0  0  0  0  0  0  0  0
   -2.2711   -0.8797    1.1969 C   0  0  0  0  0  0  0  0  0  0  0  0
   -3.2679   -0.5860    1.8378 O   0  0  0  0  0  0  0  0  0  0  0  0
   -1.7047    0.2014    0.5627 N   0  0  0  0  0  0  0  0  0  0  0  0
   -2.3178    1.0115    0.6282 H   0  0  0  0  0  0  0  0  0  0  0  0
   -0.2831    0.5593    0.3368 C   0  0  1  0  0  0  0  0  0  0  0  0
    0.0330    1.0555    1.2590 H   0  0  0  0  0  0  0  0  0  0  0  0
    0.7583   -0.5665    0.1327 C   0  0  0  0  0  0  0  0  0  0  0  0
    0.4356   -1.2006   -0.6990 H   0  0  0  0  0  0  0  0  0  0  0  0
    1.7215   -0.1344   -0.1536 H   0  0  0  0  0  0  0  0  0  0  0  0
    1.0153   -1.4377    1.3762 C   0  0  0  0  0  0  0  0  0  0  0  0
    0.1152   -1.9008    1.7665 H   0  0  0  0  0  0  0  0  0  0  0  0
    1.4187   -0.8096    2.1756 H   0  0  0  0  0  0  0  0  0  0  0  0
    2.0371   -2.5221    1.0434 C   0  0  0  0  0  0  0  0  0  0  0  0
    3.2281   -2.1567    0.8816 O   0  5  0  0  0  0  0  0  0  0  0  0
    1.6194   -3.6969    0.9043 O   0  0  0  0  0  0  0  0  0  0  0  0
   -0.1512    1.6635   -0.7425 C   0  0  0  0  0  0  0  0  0  0  0  0
   -1.1438    2.2420   -1.1730 O   0  0  0  0  0  0  0  0  0  0  0  0
    1.0916    2.1484   -1.1112 N   0  0  0  0  0  0  0  0  0  0  0  0
    1.9035    1.6323   -0.7803 H   0  0  0  0  0  0  0  0  0  0  0  0
    1.2863    3.2054   -2.0934 C   0  0  0  0  0  0  0  0  0  0  0  0
    0.8225    4.1363   -1.7515 H   0  0  0  0  0  0  0  0  0  0  0  0
    2.3549    3.3862   -2.2423 H   0  0  0  0  0  0  0  0  0  0  0  0
    0.8455    2.9213   -3.0545 H   0  0  0  0  0  0  0  0  0  0  0  0
  1  2  1  0  0  0  0
  2  3  1  0  0  0  0
  2  4  1  0  0  0  0
  2  5  1  0  0  0  0
  5  6  2  0  0  0  0
  5  7  1  0  0  0  0
  7  8  1  0  0  0  0
  7  9  1  0  0  0  0
  9 10  1  0  0  0  0
  9 11  1  0  0  0  0
  9 20  1  0  0  0  0
 11 12  1  0  0  0  0
 11 13  1  0  0  0  0
 11 14  1  0  0  0  0
 14 15  1  0  0  0  0
 14 16  1  0  0  0  0
 14 17  1  0  0  0  0
 17 18  1  0  0  0  0
 17 19  2  0  0  0  0
 20 21  2  0  0  0  0
 20 22  1  0  0  0  0
 22 23  1  0  0  0  0
 22 24  1  0  0  0  0
 24 25  1  0  0  0  0
 24 26  1  0  0  0  0
 24 27  1  0  0  0  0
M  CHG  1  18  -1
M  END
$$$$

  -OEChem-01062216073D

 27 26  0     1  0  0  0  0  0999 V2000
   -1.8705   -2.9560    1.5173 H   0  0  0  0  0  0  0  0  0  0  0  0
   -2.1397   -2.2917    0.6920 C   0  0  0  0  0  0  0  0  0  0  0  0
   -3.1000   -2.6140    0.2820 H   0  0  0  0  0  0  0  0  0  0  0  0
   -1.3883   -2.3825   -0.0940 H   0  0  0  0  0  0  0  0  0  0  0  0
   -2.2497   -0.8542    1.1870 C   0  0  0  0  0  0  0  0  0  0  0  0
   -3.2439   -0.5450    1.8243 O   0  0  0  0  0  0  0  0  0  0  0  0
   -1.6643    0.2170    0.5532 N   0  0  0  0  0  0  0  0  0  0  0  0
   -2.2579    1.0410    0.6324 H   0  0  0  0  0  0  0  0  0  0  0  0
   -0.2359    0.5530    0.3385 C   0  0  1  0  0  0  0  0  0  0  0  0
    0.0841    1.0513    1.2583 H   0  0  0  0  0  0  0  0  0  0  0  0
    0.7886   -0.5919    0.1501 C   0  0  0  0  0  0  0  0  0  0  0  0
    0.4671   -1.2235   -0.6840 H   0  0  0  0  0  0  0  0  0  0  0  0
    1.7630   -0.1755   -0.1201 H   0  0  0  0  0  0  0  0  0  0  0  0
    1.0214   -1.4622    1.3990 C   0  0  0  0  0  0  0  0  0  0  0  0
    0.1106   -1.9091    1.7836 H   0  0  0  0  0  0  0  0  0  0  0  0
    1.4290   -0.8378    2.1991 H   0  0  0  0  0  0  0  0  0  0  0  0
    2.0281   -2.5645    1.0777 C   0  0  0  0  0  0  0  0  0  0  0  0
    3.2188   -2.2151    0.8810 O   0  5  0  0  0  0  0  0  0  0  0  0
    1.5970   -3.7385    0.9785 O   0  0  0  0  0  0  0  0  0  0  0  0
   -0.1011    1.6525   -0.7471 C   0  0  0  0  0  0  0  0  0  0  0  0
   -1.0499    2.3892   -0.9977 O   0  0  0  0  0  0  0  0  0  0  0  0
    1.1106    1.9316   -1.3553 N   0  0  0  0  0  0  0  0  0  0  0  0
    1.8824    1.2986   -1.1593 H   0  0  0  0  0  0  0  0  0  0  0  0
    1.2969    2.9776   -2.3508 C   0  0  0  0  0  0  0  0  0  0  0  0
    1.0723    3.9593   -1.9214 H   0  0  0  0  0  0  0  0  0  0  0  0
    2.3338    2.9821   -2.7000 H   0  0  0  0  0  0  0  0  0  0  0  0
    0.6420    2.8082   -3.2117 H   0  0  0  0  0  0  0  0  0  0  0  0
  1  2  1  0  0  0  0
  2  3  1  0  0  0  0
  2  4  1  0  0  0  0
  2  5  1  0  0  0  0
  5  6  2  0  0  0  0
  5  7  1  0  0  0  0
  7  8  1  0  0  0  0
  7  9  1  0  0  0  0
  9 10  1  0  0  0  0
  9 11  1  0  0  0  0
  9 20  1  0  0  0  0
 11 12  1  0  0  0  0
 11 13  1  0  0  0  0
 11 14  1  0  0  0  0
 14 15  1  0  0  0  0
 14 16  1  0  0  0  0
 14 17  1  0  0  0  0
 17 18  1  0  0  0  0
 17 19  2  0  0  0  0
 20 21  2  0  0  0  0
 20 22  1  0  0  0  0
 22 23  1  0  0  0  0
 22 24  1  0  0  0  0
 24 25  1  0  0  0  0
 24 26  1  0  0  0  0
 24 27  1  0  0  0  0
M  CHG  1  18  -1
M  END
$$$$

  -OEChem-01062216073D

 27 26  0     1  0  0  0  0  0999 V2000
   -1.8880   -2.9407    1.5106 H   0  0  0  0  0  0  0  0  0  0  0  0
   -2.1396   -2.2746    0.6814 C   0  0  0  0  0  0  0  0  0  0  0  0
   -3.0999   -2.5843    0.2618 H   0  0  0  0  0  0  0  0  0  0  0  0
   -1.3805   -2.3766   -0.0959 H   0  0  0  0  0  0  0  0  0  0  0  0
   -2.2347   -0.8353    1.1735 C   0  0  0  0  0  0  0  0  0  0  0  0
   -3.2263   -0.5136    1.8085 O   0  0  0  0  0  0  0  0  0  0  0  0
   -1.6379    0.2271    0.5356 N   0  0  0  0  0  0  0  0  0  0  0  0
   -2.2170    1.0602    0.6290 H   0  0  0  0  0  0  0  0  0  0  0  0
   -0.2039    0.5474    0.3381 C   0  0  1  0  0  0  0  0  0  0  0  0
    0.1137    1.0515    1.2557 H   0  0  0  0  0  0  0  0  0  0  0  0
    0.8128   -0.6069    0.1650 C   0  0  0  0  0  0  0  0  0  0  0  0
    0.5000   -1.2355   -0.6747 H   0  0  0  0  0  0  0  0  0  0  0  0
    1.7932   -0.1919   -0.0875 H   0  0  0  0  0  0  0  0  0  0  0  0
    1.0272   -1.4813    1.4141 C   0  0  0  0  0  0  0  0  0  0  0  0
    0.1092   -1.9225    1.7881 H   0  0  0  0  0  0  0  0  0  0  0  0
    1.4320   -0.8622    2.2197 H   0  0  0  0  0  0  0  0  0  0  0  0
    2.0292   -2.5899    1.0977 C   0  0  0  0  0  0  0  0  0  0  0  0
    3.2194   -2.2478    0.8856 O   0  5  0  0  0  0  0  0  0  0  0  0
    1.5921   -3.7627    1.0115 O   0  0  0  0  0  0  0  0  0  0  0  0
   -0.0625    1.6345   -0.7581 C   0  0  0  0  0  0  0  0  0  0  0  0
   -0.9228    2.5028   -0.8647 O   0  0  0  0  0  0  0  0  0  0  0  0
    1.0491    1.7155   -1.5790 N   0  0  0  0  0  0  0  0  0  0  0  0
    1.7482    0.9824   -1.4852 H   0  0  0  0  0  0  0  0  0  0  0  0
    1.2333    2.7371   -2.5995 C   0  0  0  0  0  0  0  0  0  0  0  0
    1.2656    3.7317   -2.1435 H   0  0  0  0  0  0  0  0  0  0  0  0
    2.1745    2.5696   -3.1315 H   0  0  0  0  0  0  0  0  0  0  0  0
    0.4146    2.7053   -3.3257 H   0  0  0  0  0  0  0  0  0  0  0  0
  1  2  1  0  0  0  0
  2  3  1  0  0  0  0
  2  4  1  0  0  0  0
  2  5  1  0  0  0  0
  5  6  2  0  0  0  0
  5  7  1  0  0  0  0
  7  8  1  0  0  0  0
  7  9  1  0  0  0  0
  9 10  1  0  0  0  0
  9 11  1  0  0  0  0
  9 20  1  0  0  0  0
 11 12  1  0  0  0  0
 11 13  1  0  0  0  0
 11 14  1  0  0  0  0
 14 15  1  0  0  0  0
 14 16  1  0  0  0  0
 14 17  1  0  0  0  0
 17 18  1  0  0  0  0
 17 19  2  0  0  0  0
 20 21  2  0  0  0  0
 20 22  1  0  0  0  0
 22 23  1  0  0  0  0
 22 24  1  0  0  0  0
 24 25  1  0  0  0  0
 24 26  1  0  0  0  0
 24 27  1  0  0  0  0
M  CHG  1  18  -1
M  END
$$$$

  -OEChem-01062216073D

 27 26  0     1  0  0  0  0  0999 V2000
   -1.9068   -2.9308    1.5032 H   0  0  0  0  0  0  0  0  0  0  0  0
   -2.1386   -2.2611    0.6711 C   0  0  0  0  0  0  0  0  0  0  0  0
   -3.0986   -2.5553    0.2399 H   0  0  0  0  0  0  0  0  0  0  0  0
   -1.3717   -2.3750   -0.0969 H   0  0  0  0  0  0  0  0  0  0  0  0
   -2.2176   -0.8207    1.1628 C   0  0  0  0  0  0  0  0  0  0  0  0
   -3.2009   -0.4886    1.8050 O   0  0  0  0  0  0  0  0  0  0  0  0
   -1.6207    0.2334    0.5121 N   0  0  0  0  0  0  0  0  0  0  0  0
   -2.1883    1.0717    0.6261 H   0  0  0  0  0  0  0  0  0  0  0  0
   -0.1835    0.5440    0.3288 C   0  0  1  0  0  0  0  0  0  0  0  0
    0.1277    1.0601    1.2422 H   0  0  0  0  0  0  0  0  0  0  0  0
    0.8307   -0.6144    0.1761 C   0  0  0  0  0  0  0  0  0  0  0  0
    0.5253   -1.2494   -0.6617 H   0  0  0  0  0  0  0  0  0  0  0  0
    1.8132   -0.1982   -0.0701 H   0  0  0  0  0  0  0  0  0  0  0  0
    1.0289   -1.4813    1.4326 C   0  0  0  0  0  0  0  0  0  0  0  0
    0.1064   -1.9212    1.7978 H   0  0  0  0  0  0  0  0  0  0  0  0
    1.4248   -0.8587    2.2401 H   0  0  0  0  0  0  0  0  0  0  0  0
    2.0306   -2.5930    1.1294 C   0  0  0  0  0  0  0  0  0  0  0  0
    3.2389   -2.2684    1.0197 O   0  5  0  0  0  0  0  0  0  0  0  0
    1.5751   -3.7460    0.9354 O   0  0  0  0  0  0  0  0  0  0  0  0
   -0.0326    1.6100   -0.7829 C   0  0  0  0  0  0  0  0  0  0  0  0
   -0.7678    2.5917   -0.7772 O   0  0  0  0  0  0  0  0  0  0  0  0
    0.9183    1.5048   -1.7830 N   0  0  0  0  0  0  0  0  0  0  0  0
    1.5173    0.6826   -1.7673 H   0  0  0  0  0  0  0  0  0  0  0  0
    1.0956    2.4882   -2.8411 C   0  0  0  0  0  0  0  0  0  0  0  0
    1.3783    3.4575   -2.4182 H   0  0  0  0  0  0  0  0  0  0  0  0
    1.8857    2.1647   -3.5253 H   0  0  0  0  0  0  0  0  0  0  0  0
    0.1696    2.6063   -3.4130 H   0  0  0  0  0  0  0  0  0  0  0  0
  1  2  1  0  0  0  0
  2  3  1  0  0  0  0
  2  4  1  0  0  0  0
  2  5  1  0  0  0  0
  5  6  2  0  0  0  0
  5  7  1  0  0  0  0
  7  8  1  0  0  0  0
  7  9  1  0  0  0  0
  9 10  1  0  0  0  0
  9 11  1  0  0  0  0
  9 20  1  0  0  0  0
 11 12  1  0  0  0  0
 11 13  1  0  0  0  0
 11 14  1  0  0  0  0
 14 15  1  0  0  0  0
 14 16  1  0  0  0  0
 14 17  1  0  0  0  0
 17 18  1  0  0  0  0
 17 19  2  0  0  0  0
 20 21  2  0  0  0  0
 20 22  1  0  0  0  0
 22 23  1  0  0  0  0
 22 24  1  0  0  0  0
 24 25  1  0  0  0  0
 24 26  1  0  0  0  0
 24 27  1  0  0  0  0
M  CHG  1  18  -1
M  END
$$$$

  -OEChem-01062216073D

 27 26  0     1  0  0  0  0  0999 V2000
   -1.9189   -2.9100    1.5157 H   0  0  0  0  0  0  0  0  0  0  0  0
   -2.1385   -2.2395    0.6809 C   0  0  0  0  0  0  0  0  0  0  0  0
   -3.1018   -2.5208    0.2482 H   0  0  0  0  0  0  0  0  0  0  0  0
   -1.3711   -2.3668   -0.0849 H   0  0  0  0  0  0  0  0  0  0  0  0
   -2.1972   -0.7967    1.1679 C   0  0  0  0  0  0  0  0  0  0  0  0
   -3.1704   -0.4522    1.8186 O   0  0  0  0  0  0  0  0  0  0  0  0
   -1.6004    0.2473    0.5020 N   0  0  0  0  0  0  0  0  0  0  0  0
   -2.1568    1.0905    0.6327 H   0  0  0  0  0  0  0  0  0  0  0  0
   -0.1608    0.5454    0.3214 C   0  0  1  0  0  0  0  0  0  0  0  0
    0.1535    1.0691    1.2297 H   0  0  0  0  0  0  0  0  0  0  0  0
    0.8475   -0.6178    0.1745 C   0  0  0  0  0  0  0  0  0  0  0  0
    0.5349   -1.2516   -0.6615 H   0  0  0  0  0  0  0  0  0  0  0  0
    1.8305   -0.2058   -0.0784 H   0  0  0  0  0  0  0  0  0  0  0  0
    1.0416   -1.4855    1.4324 C   0  0  0  0  0  0  0  0  0  0  0  0
    0.1198   -1.9295    1.7932 H   0  0  0  0  0  0  0  0  0  0  0  0
    1.4290   -0.8580    2.2411 H   0  0  0  0  0  0  0  0  0  0  0  0
    2.0389   -2.6057    1.1398 C   0  0  0  0  0  0  0  0  0  0  0  0
    3.1569   -2.5586    1.7072 O   0  5  0  0  0  0  0  0  0  0  0  0
    1.6999   -3.4664    0.2898 O   0  0  0  0  0  0  0  0  0  0  0  0
   -0.0011    1.5916   -0.8042 C   0  0  0  0  0  0  0  0  0  0  0  0
   -0.5694    2.6731   -0.7029 O   0  0  0  0  0  0  0  0  0  0  0  0
    0.7265    1.3259   -1.9508 N   0  0  0  0  0  0  0  0  0  0  0  0
    1.1535    0.4054   -2.0227 H   0  0  0  0  0  0  0  0  0  0  0  0
    0.8600    2.2572   -3.0612 C   0  0  0  0  0  0  0  0  0  0  0  0
    1.3108    3.1953   -2.7217 H   0  0  0  0  0  0  0  0  0  0  0  0
    1.5004    1.8267   -3.8366 H   0  0  0  0  0  0  0  0  0  0  0  0
   -0.1195    2.4720   -3.5001 H   0  0  0  0  0  0  0  0  0  0  0  0
  1  2  1  0  0  0  0
  2  3  1  0  0  0  0
  2  4  1  0  0  0  0
  2  5  1  0  0  0  0
  5  6  2  0  0  0  0
  5  7  1  0  0  0  0
  7  8  1  0  0  0  0
  7  9  1  0  0  0  0
  9 10  1  0  0  0  0
  9 11  1  0  0  0  0
  9 20  1  0  0  0  0
 11 12  1  0  0  0  0
 11 13  1  0  0  0  0
 11 14  1  0  0  0  0
 14 15  1  0  0  0  0
 14 16  1  0  0  0  0
 14 17  1  0  0  0  0
 17 18  1  0  0  0  0
 17 19  2  0  0  0  0
 20 21  2  0  0  0  0
 20 22  1  0  0  0  0
 22 23  1  0  0  0  0
 22 24  1  0  0  0  0
 24 25  1  0  0  0  0
 24 26  1  0  0  0  0
 24 27  1  0  0  0  0
M  CHG  1  18  -1
M  END
$$$$

  -OEChem-01062216073D

 27 26  0     1  0  0  0  0  0999 V2000
   -1.9887   -2.9494    1.3922 H   0  0  0  0  0  0  0  0  0  0  0  0
   -2.1702   -2.2603    0.5633 C   0  0  0  0  0  0  0  0  0  0  0  0
   -3.1175   -2.5241    0.0866 H   0  0  0  0  0  0  0  0  0  0  0  0
   -1.3734   -2.3795   -0.1731 H   0  0  0  0  0  0  0  0  0  0  0  0
   -2.2359   -0.8275    1.0780 C   0  0  0  0  0  0  0  0  0  0  0  0
   -3.2253   -0.4887    1.7068 O   0  0  0  0  0  0  0  0  0  0  0  0
   -1.6203    0.2263    0.4457 N   0  0  0  0  0  0  0  0  0  0  0  0
   -2.1768    1.0666    0.5920 H   0  0  0  0  0  0  0  0  0  0  0  0
   -0.1750    0.5260    0.3236 C   0  0  1  0  0  0  0  0  0  0  0  0
    0.1082    1.0331    1.2516 H   0  0  0  0  0  0  0  0  0  0  0  0
    0.8370   -0.6343    0.1871 C   0  0  0  0  0  0  0  0  0  0  0  0
    0.5547   -1.2568   -0.6678 H   0  0  0  0  0  0  0  0  0  0  0  0
    1.8252   -0.2127   -0.0299 H   0  0  0  0  0  0  0  0  0  0  0  0
    0.9853   -1.5284    1.4310 C   0  0  0  0  0  0  0  0  0  0  0  0
    0.0494   -1.9750    1.7506 H   0  0  0  0  0  0  0  0  0  0  0  0
    1.3506   -0.9262    2.2679 H   0  0  0  0  0  0  0  0  0  0  0  0
    1.9918   -2.6377    1.1384 C   0  0  0  0  0  0  0  0  0  0  0  0
    1.5349   -3.7311    0.7242 O   0  5  0  0  0  0  0  0  0  0  0  0
    3.2116   -2.3605    1.2407 O   0  0  0  0  0  0  0  0  0  0  0  0
    0.0299    1.5832   -0.7806 C   0  0  0  0  0  0  0  0  0  0  0  0
   -0.3504    2.7327   -0.5915 O   0  0  0  0  0  0  0  0  0  0  0  0
    0.5346    1.2390   -2.0217 N   0  0  0  0  0  0  0  0  0  0  0  0
    0.8398    0.2768   -2.1438 H   0  0  0  0  0  0  0  0  0  0  0  0
    0.7197    2.1859   -3.1112 C   0  0  0  0  0  0  0  0  0  0  0  0
    1.4198    2.9744   -2.8173 H   0  0  0  0  0  0  0  0  0  0  0  0
    1.1236    1.6732   -3.9892 H   0  0  0  0  0  0  0  0  0  0  0  0
   -0.2357    2.6437   -3.3871 H   0  0  0  0  0  0  0  0  0  0  0  0
  1  2  1  0  0  0  0
  2  3  1  0  0  0  0
  2  4  1  0  0  0  0
  2  5  1  0  0  0  0
  5  6  2  0  0  0  0
  5  7  1  0  0  0  0
  7  8  1  0  0  0  0
  7  9  1  0  0  0  0
  9 10  1  0  0  0  0
  9 11  1  0  0  0  0
  9 20  1  0  0  0  0
 11 12  1  0  0  0  0
 11 13  1  0  0  0  0
 11 14  1  0  0  0  0
 14 15  1  0  0  0  0
 14 16  1  0  0  0  0
 14 17  1  0  0  0  0
 17 18  1  0  0  0  0
 17 19  2  0  0  0  0
 20 21  2  0  0  0  0
 20 22  1  0  0  0  0
 22 23  1  0  0  0  0
 22 24  1  0  0  0  0
 24 25  1  0  0  0  0
 24 26  1  0  0  0  0
 24 27  1  0  0  0  0
M  CHG  1  18  -1
M  END
$$$$

  -OEChem-01062216073D

 27 26  0     1  0  0  0  0  0999 V2000
   -1.9882   -2.9629    1.4034 H   0  0  0  0  0  0  0  0  0  0  0  0
   -2.1639   -2.2797    0.5684 C   0  0  0  0  0  0  0  0  0  0  0  0
   -3.1065   -2.5486    0.0855 H   0  0  0  0  0  0  0  0  0  0  0  0
   -1.3604   -2.4015   -0.1608 H   0  0  0  0  0  0  0  0  0  0  0  0
   -2.2359   -0.8440    1.0736 C   0  0  0  0  0  0  0  0  0  0  0  0
   -3.2274   -0.5052    1.6991 O   0  0  0  0  0  0  0  0  0  0  0  0
   -1.6335    0.2082    0.4267 N   0  0  0  0  0  0  0  0  0  0  0  0
   -2.1998    1.0416    0.5724 H   0  0  0  0  0  0  0  0  0  0  0  0
   -0.1907    0.5237    0.3127 C   0  0  1  0  0  0  0  0  0  0  0  0
    0.0826    1.0413    1.2383 H   0  0  0  0  0  0  0  0  0  0  0  0
    0.8349   -0.6243    0.1823 C   0  0  0  0  0  0  0  0  0  0  0  0
    0.5627   -1.2496   -0.6739 H   0  0  0  0  0  0  0  0  0  0  0  0
    1.8182   -0.1908   -0.0330 H   0  0  0  0  0  0  0  0  0  0  0  0
    0.9887   -1.5183    1.4263 C   0  0  0  0  0  0  0  0  0  0  0  0
    0.0585   -1.9814    1.7382 H   0  0  0  0  0  0  0  0  0  0  0  0
    1.3383   -0.9097    2.2656 H   0  0  0  0  0  0  0  0  0  0  0  0
    2.0101   -2.6158    1.1380 C   0  0  0  0  0  0  0  0  0  0  0  0
    1.6197   -3.5867    0.4432 O   0  5  0  0  0  0  0  0  0  0  0  0
    3.1829   -2.4541    1.5535 O   0  0  0  0  0  0  0  0  0  0  0  0
    0.0142    1.5622   -0.8065 C   0  0  0  0  0  0  0  0  0  0  0  0
   -0.1372    2.7537   -0.5661 O   0  0  0  0  0  0  0  0  0  0  0  0
    0.2384    1.1597   -2.1102 N   0  0  0  0  0  0  0  0  0  0  0  0
    0.3563    0.1624   -2.2685 H   0  0  0  0  0  0  0  0  0  0  0  0
    0.4201    2.0813   -3.2216 C   0  0  0  0  0  0  0  0  0  0  0  0
    1.3112    2.6976   -3.0645 H   0  0  0  0  0  0  0  0  0  0  0  0
    0.5434    1.5241   -4.1551 H   0  0  0  0  0  0  0  0  0  0  0  0
   -0.4514    2.7363   -3.3232 H   0  0  0  0  0  0  0  0  0  0  0  0
  1  2  1  0  0  0  0
  2  3  1  0  0  0  0
  2  4  1  0  0  0  0
  2  5  1  0  0  0  0
  5  6  2  0  0  0  0
  5  7  1  0  0  0  0
  7  8  1  0  0  0  0
  7  9  1  0  0  0  0
  9 10  1  0  0  0  0
  9 11  1  0  0  0  0
  9 20  1  0  0  0  0
 11 12  1  0  0  0  0
 11 13  1  0  0  0  0
 11 14  1  0  0  0  0
 14 15  1  0  0  0  0
 14 16  1  0  0  0  0
 14 17  1  0  0  0  0
 17 18  1  0  0  0  0
 17 19  2  0  0  0  0
 20 21  2  0  0  0  0
 20 22  1  0  0  0  0
 22 23  1  0  0  0  0
 22 24  1  0  0  0  0
 24 25  1  0  0  0  0
 24 26  1  0  0  0  0
 24 27  1  0  0  0  0
M  CHG  1  18  -1
M  END
$$$$

  -OEChem-01062216073D

 27 26  0     1  0  0  0  0  0999 V2000
   -1.9346   -2.9945    1.4313 H   0  0  0  0  0  0  0  0  0  0  0  0
   -2.1296   -2.3237    0.5905 C   0  0  0  0  0  0  0  0  0  0  0  0
   -1.3294   -2.4383   -0.1434 H   0  0  0  0  0  0  0  0  0  0  0  0
   -3.0710   -2.6155    0.1186 H   0  0  0  0  0  0  0  0  0  0  0  0
   -2.2237   -0.8840    1.0809 C   0  0  0  0  0  0  0  0  0  0  0  0
   -3.2176   -0.5556    1.7078 O   0  0  0  0  0  0  0  0  0  0  0  0
   -1.6514    0.1719    0.4134 N   0  0  0  0  0  0  0  0  0  0  0  0
   -2.2386    0.9906    0.5575 H   0  0  0  0  0  0  0  0  0  0  0  0
   -0.2164    0.5244    0.2978 C   0  0  1  0  0  0  0  0  0  0  0  0
    0.0452    1.0599    1.2167 H   0  0  0  0  0  0  0  0  0  0  0  0
    0.8348   -0.6002    0.1742 C   0  0  0  0  0  0  0  0  0  0  0  0
    0.5762   -1.2366   -0.6780 H   0  0  0  0  0  0  0  0  0  0  0  0
    1.8076   -0.1463   -0.0461 H   0  0  0  0  0  0  0  0  0  0  0  0
    1.0081   -1.4824    1.4244 C   0  0  0  0  0  0  0  0  0  0  0  0
    0.0889   -1.9641    1.7395 H   0  0  0  0  0  0  0  0  0  0  0  0
    1.3428   -0.8593    2.2593 H   0  0  0  0  0  0  0  0  0  0  0  0
    2.0533   -2.5603    1.1481 C   0  0  0  0  0  0  0  0  0  0  0  0
    1.6888   -3.5357    0.4452 O   0  5  0  0  0  0  0  0  0  0  0  0
    3.2141   -2.3871    1.5916 O   0  0  0  0  0  0  0  0  0  0  0  0
   -0.0312    1.5442   -0.8404 C   0  0  0  0  0  0  0  0  0  0  0  0
    0.0533    2.7396   -0.5888 O   0  0  0  0  0  0  0  0  0  0  0  0
   -0.0993    1.1332   -2.1584 N   0  0  0  0  0  0  0  0  0  0  0  0
   -0.1681    0.1324   -2.3217 H   0  0  0  0  0  0  0  0  0  0  0  0
    0.0532    2.0311   -3.2935 C   0  0  0  0  0  0  0  0  0  0  0  0
    1.0315    2.5216   -3.2636 H   0  0  0  0  0  0  0  0  0  0  0  0
   -0.0245    1.4696   -4.2291 H   0  0  0  0  0  0  0  0  0  0  0  0
   -0.7287    2.7971   -3.2834 H   0  0  0  0  0  0  0  0  0  0  0  0
  1  2  1  0  0  0  0
  2  3  1  0  0  0  0
  2  4  1  0  0  0  0
  2  5  1  0  0  0  0
  5  6  2  0  0  0  0
  5  7  1  0  0  0  0
  7  8  1  0  0  0  0
  7  9  1  0  0  0  0
  9 10  1  0  0  0  0
  9 11  1  0  0  0  0
  9 20  1  0  0  0  0
 11 12  1  0  0  0  0
 11 13  1  0  0  0  0
 11 14  1  0  0  0  0
 14 15  1  0  0  0  0
 14 16  1  0  0  0  0
 14 17  1  0  0  0  0
 17 18  1  0  0  0  0
 17 19  2  0  0  0  0
 20 21  2  0  0  0  0
 20 22  1  0  0  0  0
 22 23  1  0  0  0  0
 22 24  1  0  0  0  0
 24 25  1  0  0  0  0
 24 26  1  0  0  0  0
 24 27  1  0  0  0  0
M  CHG  1  18  -1
M  END
$$$$

  -OEChem-01062216073D

 27 26  0     1  0  0  0  0  0999 V2000
   -1.9509   -3.0029    1.4360 H   0  0  0  0  0  0  0  0  0  0  0  0
   -2.1342   -2.3268    0.5969 C   0  0  0  0  0  0  0  0  0  0  0  0
   -1.3298   -2.4464   -0.1319 H   0  0  0  0  0  0  0  0  0  0  0  0
   -3.0752   -2.6069    0.1172 H   0  0  0  0  0  0  0  0  0  0  0  0
   -2.2170   -0.8884    1.0929 C   0  0  0  0  0  0  0  0  0  0  0  0
   -3.2043   -0.5552    1.7275 O   0  0  0  0  0  0  0  0  0  0  0  0
   -1.6555    0.1640    0.4117 N   0  0  0  0  0  0  0  0  0  0  0  0
   -2.2455    0.9796    0.5603 H   0  0  0  0  0  0  0  0  0  0  0  0
   -0.2215    0.5230    0.2912 C   0  0  1  0  0  0  0  0  0  0  0  0
    0.0431    1.0654    1.2051 H   0  0  0  0  0  0  0  0  0  0  0  0
    0.8299   -0.6004    0.1642 C   0  0  0  0  0  0  0  0  0  0  0  0
    0.5697   -1.2352   -0.6889 H   0  0  0  0  0  0  0  0  0  0  0  0
    1.8016   -0.1450   -0.0586 H   0  0  0  0  0  0  0  0  0  0  0  0
    1.0072   -1.4820    1.4153 C   0  0  0  0  0  0  0  0  0  0  0  0
    0.0895   -1.9638    1.7338 H   0  0  0  0  0  0  0  0  0  0  0  0
    1.3431   -0.8566    2.2478 H   0  0  0  0  0  0  0  0  0  0  0  0
    2.0514   -2.5623    1.1431 C   0  0  0  0  0  0  0  0  0  0  0  0
    1.6965   -3.5218    0.4135 O   0  5  0  0  0  0  0  0  0  0  0  0
    3.1975   -2.4162    1.6324 O   0  0  0  0  0  0  0  0  0  0  0  0
   -0.0431    1.5301   -0.8587 C   0  0  0  0  0  0  0  0  0  0  0  0
    0.3219    2.6765   -0.6323 O   0  0  0  0  0  0  0  0  0  0  0  0
   -0.4129    1.1759   -2.1422 N   0  0  0  0  0  0  0  0  0  0  0  0
   -0.7028    0.2120   -2.2821 H   0  0  0  0  0  0  0  0  0  0  0  0
   -0.2831    2.0567   -3.2932 C   0  0  0  0  0  0  0  0  0  0  0  0
    0.7603    2.3603   -3.4262 H   0  0  0  0  0  0  0  0  0  0  0  0
   -0.6120    1.5402   -4.1998 H   0  0  0  0  0  0  0  0  0  0  0  0
   -0.8990    2.9520   -3.1613 H   0  0  0  0  0  0  0  0  0  0  0  0
  1  2  1  0  0  0  0
  2  3  1  0  0  0  0
  2  4  1  0  0  0  0
  2  5  1  0  0  0  0
  5  6  2  0  0  0  0
  5  7  1  0  0  0  0
  7  8  1  0  0  0  0
  7  9  1  0  0  0  0
  9 10  1  0  0  0  0
  9 11  1  0  0  0  0
  9 20  1  0  0  0  0
 11 12  1  0  0  0  0
 11 13  1  0  0  0  0
 11 14  1  0  0  0  0
 14 15  1  0  0  0  0
 14 16  1  0  0  0  0
 14 17  1  0  0  0  0
 17 18  1  0  0  0  0
 17 19  2  0  0  0  0
 20 21  2  0  0  0  0
 20 22  1  0  0  0  0
 22 23  1  0  0  0  0
 22 24  1  0  0  0  0
 24 25  1  0  0  0  0
 24 26  1  0  0  0  0
 24 27  1  0  0  0  0
M  CHG  1  18  -1
M  END
$$$$

  -OEChem-01062216073D

 27 26  0     1  0  0  0  0  0999 V2000
   -1.9326   -3.0235    1.4523 H   0  0  0  0  0  0  0  0  0  0  0  0
   -2.1285   -2.3533    0.6113 C   0  0  0  0  0  0  0  0  0  0  0  0
   -1.3289   -2.4695   -0.1235 H   0  0  0  0  0  0  0  0  0  0  0  0
   -3.0708   -2.6442    0.1408 H   0  0  0  0  0  0  0  0  0  0  0  0
   -2.2195   -0.9131    1.1007 C   0  0  0  0  0  0  0  0  0  0  0  0
   -3.2097   -0.5822    1.7318 O   0  0  0  0  0  0  0  0  0  0  0  0
   -1.6723    0.1417    0.4113 N   0  0  0  0  0  0  0  0  0  0  0  0
   -2.2709    0.9499    0.5646 H   0  0  0  0  0  0  0  0  0  0  0  0
   -0.2419    0.5178    0.2823 C   0  0  1  0  0  0  0  0  0  0  0  0
    0.0215    1.0670    1.1926 H   0  0  0  0  0  0  0  0  0  0  0  0
    0.8173   -0.5981    0.1543 C   0  0  0  0  0  0  0  0  0  0  0  0
    0.5569   -1.2366   -0.6960 H   0  0  0  0  0  0  0  0  0  0  0  0
    1.7846   -0.1365   -0.0749 H   0  0  0  0  0  0  0  0  0  0  0  0
    1.0070   -1.4733    1.4091 C   0  0  0  0  0  0  0  0  0  0  0  0
    0.0944   -1.9598    1.7343 H   0  0  0  0  0  0  0  0  0  0  0  0
    1.3421   -0.8410    2.2368 H   0  0  0  0  0  0  0  0  0  0  0  0
    2.0570   -2.5491    1.1414 C   0  0  0  0  0  0  0  0  0  0  0  0
    1.7056   -3.5146    0.4182 O   0  5  0  0  0  0  0  0  0  0  0  0
    3.1996   -2.4011    1.6383 O   0  0  0  0  0  0  0  0  0  0  0  0
   -0.0735    1.5212   -0.8736 C   0  0  0  0  0  0  0  0  0  0  0  0
    0.5437    2.5655   -0.7115 O   0  0  0  0  0  0  0  0  0  0  0  0
   -0.7128    1.2918   -2.0772 N   0  0  0  0  0  0  0  0  0  0  0  0
   -1.1908    0.4001   -2.1714 H   0  0  0  0  0  0  0  0  0  0  0  0
   -0.5926    2.1645   -3.2355 C   0  0  0  0  0  0  0  0  0  0  0  0
    0.4556    2.2552   -3.5386 H   0  0  0  0  0  0  0  0  0  0  0  0
   -1.1617    1.7547   -4.0752 H   0  0  0  0  0  0  0  0  0  0  0  0
   -0.9831    3.1613   -3.0061 H   0  0  0  0  0  0  0  0  0  0  0  0
  1  2  1  0  0  0  0
  2  3  1  0  0  0  0
  2  4  1  0  0  0  0
  2  5  1  0  0  0  0
  5  6  2  0  0  0  0
  5  7  1  0  0  0  0
  7  8  1  0  0  0  0
  7  9  1  0  0  0  0
  9 10  1  0  0  0  0
  9 11  1  0  0  0  0
  9 20  1  0  0  0  0
 11 12  1  0  0  0  0
 11 13  1  0  0  0  0
 11 14  1  0  0  0  0
 14 15  1  0  0  0  0
 14 16  1  0  0  0  0
 14 17  1  0  0  0  0
 17 18  1  0  0  0  0
 17 19  2  0  0  0  0
 20 21  2  0  0  0  0
 20 22  1  0  0  0  0
 22 23  1  0  0  0  0
 22 24  1  0  0  0  0
 24 25  1  0  0  0  0
 24 26  1  0  0  0  0
 24 27  1  0  0  0  0
M  CHG  1  18  -1
M  END
$$$$

  -OEChem-01062216073D

 27 26  0     1  0  0  0  0  0999 V2000
   -1.9147   -3.0245    1.4917 H   0  0  0  0  0  0  0  0  0  0  0  0
   -2.1272   -2.3628    0.6479 C   0  0  0  0  0  0  0  0  0  0  0  0
   -1.3399   -2.4844   -0.0992 H   0  0  0  0  0  0  0  0  0  0  0  0
   -3.0768   -2.6612    0.1968 H   0  0  0  0  0  0  0  0  0  0  0  0
   -2.2143   -0.9183    1.1252 C   0  0  0  0  0  0  0  0  0  0  0  0
   -3.1997   -0.5806    1.7601 O   0  0  0  0  0  0  0  0  0  0  0  0
   -1.6774    0.1331    0.4226 N   0  0  0  0  0  0  0  0  0  0  0  0
   -2.2714    0.9419    0.5898 H   0  0  0  0  0  0  0  0  0  0  0  0
   -0.2483    0.5088    0.2628 C   0  0  1  0  0  0  0  0  0  0  0  0
    0.0311    1.0655    1.1634 H   0  0  0  0  0  0  0  0  0  0  0  0
    0.8064   -0.6122    0.1325 C   0  0  0  0  0  0  0  0  0  0  0  0
    0.5310   -1.2630   -0.7035 H   0  0  0  0  0  0  0  0  0  0  0  0
    1.7718   -0.1583   -0.1195 H   0  0  0  0  0  0  0  0  0  0  0  0
    1.0124   -1.4664    1.3999 C   0  0  0  0  0  0  0  0  0  0  0  0
    0.1030   -1.9424    1.7490 H   0  0  0  0  0  0  0  0  0  0  0  0
    1.3623   -0.8198    2.2102 H   0  0  0  0  0  0  0  0  0  0  0  0
    2.0539   -2.5527    1.1398 C   0  0  0  0  0  0  0  0  0  0  0  0
    1.6848   -3.5366    0.4509 O   0  5  0  0  0  0  0  0  0  0  0  0
    3.2039   -2.4006    1.6182 O   0  0  0  0  0  0  0  0  0  0  0  0
   -0.0972    1.5098   -0.9002 C   0  0  0  0  0  0  0  0  0  0  0  0
    0.7347    2.4060   -0.8544 O   0  0  0  0  0  0  0  0  0  0  0  0
   -0.9775    1.4628   -1.9651 N   0  0  0  0  0  0  0  0  0  0  0  0
   -1.6124    0.6696   -1.9844 H   0  0  0  0  0  0  0  0  0  0  0  0
   -0.8820    2.3294   -3.1305 C   0  0  0  0  0  0  0  0  0  0  0  0
    0.0692    2.1685   -3.6481 H   0  0  0  0  0  0  0  0  0  0  0  0
   -1.6975    2.1140   -3.8273 H   0  0  0  0  0  0  0  0  0  0  0  0
   -0.9508    3.3809   -2.8334 H   0  0  0  0  0  0  0  0  0  0  0  0
  1  2  1  0  0  0  0
  2  3  1  0  0  0  0
  2  4  1  0  0  0  0
  2  5  1  0  0  0  0
  5  6  2  0  0  0  0
  5  7  1  0  0  0  0
  7  8  1  0  0  0  0
  7  9  1  0  0  0  0
  9 10  1  0  0  0  0
  9 11  1  0  0  0  0
  9 20  1  0  0  0  0
 11 12  1  0  0  0  0
 11 13  1  0  0  0  0
 11 14  1  0  0  0  0
 14 15  1  0  0  0  0
 14 16  1  0  0  0  0
 14 17  1  0  0  0  0
 17 18  1  0  0  0  0
 17 19  2  0  0  0  0
 20 21  2  0  0  0  0
 20 22  1  0  0  0  0
 22 23  1  0  0  0  0
 22 24  1  0  0  0  0
 24 25  1  0  0  0  0
 24 26  1  0  0  0  0
 24 27  1  0  0  0  0
M  CHG  1  18  -1
M  END
$$$$

  -OEChem-01062216073D

 27 26  0     1  0  0  0  0  0999 V2000
   -1.9400   -3.0132    1.5149 H   0  0  0  0  0  0  0  0  0  0  0  0
   -2.1546   -2.3534    0.6702 C   0  0  0  0  0  0  0  0  0  0  0  0
   -3.1126   -2.6425    0.2316 H   0  0  0  0  0  0  0  0  0  0  0  0
   -1.3778   -2.4882   -0.0854 H   0  0  0  0  0  0  0  0  0  0  0  0
   -2.2183   -0.9054    1.1405 C   0  0  0  0  0  0  0  0  0  0  0  0
   -3.1892   -0.5506    1.7885 O   0  0  0  0  0  0  0  0  0  0  0  0
   -1.6814    0.1376    0.4259 N   0  0  0  0  0  0  0  0  0  0  0  0
   -2.2607    0.9528    0.6120 H   0  0  0  0  0  0  0  0  0  0  0  0
   -0.2498    0.4987    0.2448 C   0  0  1  0  0  0  0  0  0  0  0  0
    0.0453    1.0605    1.1368 H   0  0  0  0  0  0  0  0  0  0  0  0
    0.7884   -0.6401    0.1200 C   0  0  0  0  0  0  0  0  0  0  0  0
    0.4953   -1.2988   -0.7038 H   0  0  0  0  0  0  0  0  0  0  0  0
    1.7586   -0.2064   -0.1473 H   0  0  0  0  0  0  0  0  0  0  0  0
    0.9947   -1.4772    1.3998 C   0  0  0  0  0  0  0  0  0  0  0  0
    0.0820   -1.9341    1.7656 H   0  0  0  0  0  0  0  0  0  0  0  0
    1.3612   -0.8220    2.1957 H   0  0  0  0  0  0  0  0  0  0  0  0
    2.0171   -2.5845    1.1524 C   0  0  0  0  0  0  0  0  0  0  0  0
    1.6352   -3.5640    0.4640 O   0  5  0  0  0  0  0  0  0  0  0  0
    3.1622   -2.4582    1.6499 O   0  0  0  0  0  0  0  0  0  0  0  0
   -0.0990    1.4947   -0.9261 C   0  0  0  0  0  0  0  0  0  0  0  0
    0.8826    2.2196   -1.0150 O   0  0  0  0  0  0  0  0  0  0  0  0
   -1.1407    1.6745   -1.8185 N   0  0  0  0  0  0  0  0  0  0  0  0
   -1.8919    0.9923   -1.7635 H   0  0  0  0  0  0  0  0  0  0  0  0
   -1.0668    2.5562   -2.9747 C   0  0  0  0  0  0  0  0  0  0  0  0
   -0.2699    2.2321   -3.6518 H   0  0  0  0  0  0  0  0  0  0  0  0
   -2.0150    2.5400   -3.5200 H   0  0  0  0  0  0  0  0  0  0  0  0
   -0.8679    3.5856   -2.6597 H   0  0  0  0  0  0  0  0  0  0  0  0
  1  2  1  0  0  0  0
  2  3  1  0  0  0  0
  2  4  1  0  0  0  0
  2  5  1  0  0  0  0
  5  6  2  0  0  0  0
  5  7  1  0  0  0  0
  7  8  1  0  0  0  0
  7  9  1  0  0  0  0
  9 10  1  0  0  0  0
  9 11  1  0  0  0  0
  9 20  1  0  0  0  0
 11 12  1  0  0  0  0
 11 13  1  0  0  0  0
 11 14  1  0  0  0  0
 14 15  1  0  0  0  0
 14 16  1  0  0  0  0
 14 17  1  0  0  0  0
 17 18  1  0  0  0  0
 17 19  2  0  0  0  0
 20 21  2  0  0  0  0
 20 22  1  0  0  0  0
 22 23  1  0  0  0  0
 22 24  1  0  0  0  0
 24 25  1  0  0  0  0
 24 26  1  0  0  0  0
 24 27  1  0  0  0  0
M  CHG  1  18  -1
M  END
$$$$

  -OEChem-01062216073D

 27 26  0     1  0  0  0  0  0999 V2000
   -1.9264   -3.0276    1.5218 H   0  0  0  0  0  0  0  0  0  0  0  0
   -2.1520   -2.3713    0.6772 C   0  0  0  0  0  0  0  0  0  0  0  0
   -3.1125   -2.6668    0.2480 H   0  0  0  0  0  0  0  0  0  0  0  0
   -1.3814   -2.5054   -0.0847 H   0  0  0  0  0  0  0  0  0  0  0  0
   -2.2187   -0.9220    1.1435 C   0  0  0  0  0  0  0  0  0  0  0  0
   -3.1832   -0.5677    1.8014 O   0  0  0  0  0  0  0  0  0  0  0  0
   -1.6924    0.1243    0.4260 N   0  0  0  0  0  0  0  0  0  0  0  0
   -2.2639    0.9373    0.6415 H   0  0  0  0  0  0  0  0  0  0  0  0
   -0.2631    0.4866    0.2240 C   0  0  1  0  0  0  0  0  0  0  0  0
    0.0400    1.0517    1.1109 H   0  0  0  0  0  0  0  0  0  0  0  0
    0.7739   -0.6567    0.1062 C   0  0  0  0  0  0  0  0  0  0  0  0
    0.4734   -1.3270   -0.7050 H   0  0  0  0  0  0  0  0  0  0  0  0
    1.7441   -0.2325   -0.1752 H   0  0  0  0  0  0  0  0  0  0  0  0
    0.9897   -1.4714    1.3998 C   0  0  0  0  0  0  0  0  0  0  0  0
    0.0793   -1.9185    1.7823 H   0  0  0  0  0  0  0  0  0  0  0  0
    1.3647   -0.8018    2.1797 H   0  0  0  0  0  0  0  0  0  0  0  0
    2.0073   -2.5867    1.1683 C   0  0  0  0  0  0  0  0  0  0  0  0
    1.6236   -3.5706    0.4872 O   0  5  0  0  0  0  0  0  0  0  0  0
    3.1469   -2.4674    1.6804 O   0  0  0  0  0  0  0  0  0  0  0  0
   -0.1274    1.4904   -0.9463 C   0  0  0  0  0  0  0  0  0  0  0  0
    0.9375    2.0399   -1.1931 O   0  0  0  0  0  0  0  0  0  0  0  0
   -1.2545    1.9116   -1.6314 N   0  0  0  0  0  0  0  0  0  0  0  0
   -2.0861    1.3441   -1.4964 H   0  0  0  0  0  0  0  0  0  0  0  0
   -1.2066    2.8266   -2.7635 C   0  0  0  0  0  0  0  0  0  0  0  0
   -0.6417    2.3827   -3.5895 H   0  0  0  0  0  0  0  0  0  0  0  0
   -2.2201    3.0458   -3.1120 H   0  0  0  0  0  0  0  0  0  0  0  0
   -0.7309    3.7698   -2.4757 H   0  0  0  0  0  0  0  0  0  0  0  0
  1  2  1  0  0  0  0
  2  3  1  0  0  0  0
  2  4  1  0  0  0  0
  2  5  1  0  0  0  0
  5  6  2  0  0  0  0
  5  7  1  0  0  0  0
  7  8  1  0  0  0  0
  7  9  1  0  0  0  0
  9 10  1  0  0  0  0
  9 11  1  0  0  0  0
  9 20  1  0  0  0  0
 11 12  1  0  0  0  0
 11 13  1  0  0  0  0
 11 14  1  0  0  0  0
 14 15  1  0  0  0  0
 14 16  1  0  0  0  0
 14 17  1  0  0  0  0
 17 18  1  0  0  0  0
 17 19  2  0  0  0  0
 20 21  2  0  0  0  0
 20 22  1  0  0  0  0
 22 23  1  0  0  0  0
 22 24  1  0  0  0  0
 24 25  1  0  0  0  0
 24 26  1  0  0  0  0
 24 27  1  0  0  0  0
M  CHG  1  18  -1
M  END
$$$$

  -OEChem-01062216073D

 27 26  0     1  0  0  0  0  0999 V2000
   -1.9120   -3.0512    1.4982 H   0  0  0  0  0  0  0  0  0  0  0  0
   -2.1476   -2.3915    0.6590 C   0  0  0  0  0  0  0  0  0  0  0  0
   -3.1095   -2.6894    0.2348 H   0  0  0  0  0  0  0  0  0  0  0  0
   -1.3814   -2.5170   -0.1086 H   0  0  0  0  0  0  0  0  0  0  0  0
   -2.2185   -0.9454    1.1342 C   0  0  0  0  0  0  0  0  0  0  0  0
   -3.1767   -0.5977    1.8050 O   0  0  0  0  0  0  0  0  0  0  0  0
   -1.7027    0.1104    0.4234 N   0  0  0  0  0  0  0  0  0  0  0  0
   -2.2704    0.9158    0.6715 H   0  0  0  0  0  0  0  0  0  0  0  0
   -0.2760    0.4801    0.2137 C   0  0  1  0  0  0  0  0  0  0  0  0
    0.0284    1.0447    1.1003 H   0  0  0  0  0  0  0  0  0  0  0  0
    0.7650   -0.6622    0.0993 C   0  0  0  0  0  0  0  0  0  0  0  0
    0.4665   -1.3385   -0.7076 H   0  0  0  0  0  0  0  0  0  0  0  0
    1.7352   -0.2389   -0.1831 H   0  0  0  0  0  0  0  0  0  0  0  0
    0.9843   -1.4654    1.3998 C   0  0  0  0  0  0  0  0  0  0  0  0
    0.0751   -1.9119    1.7867 H   0  0  0  0  0  0  0  0  0  0  0  0
    1.3578   -0.7890    2.1745 H   0  0  0  0  0  0  0  0  0  0  0  0
    2.0039   -2.5805    1.1770 C   0  0  0  0  0  0  0  0  0  0  0  0
    1.6048   -3.5987    0.5582 O   0  5  0  0  0  0  0  0  0  0  0  0
    3.1620   -2.4254    1.6350 O   0  0  0  0  0  0  0  0  0  0  0  0
   -0.1588    1.4979   -0.9500 C   0  0  0  0  0  0  0  0  0  0  0  0
    0.9258    1.8672   -1.3791 O   0  0  0  0  0  0  0  0  0  0  0  0
   -1.2897    2.1524   -1.4104 N   0  0  0  0  0  0  0  0  0  0  0  0
   -2.1741    1.7162   -1.1708 H   0  0  0  0  0  0  0  0  0  0  0  0
   -1.2648    3.1051   -2.5121 C   0  0  0  0  0  0  0  0  0  0  0  0
   -0.9410    2.6138   -3.4352 H   0  0  0  0  0  0  0  0  0  0  0  0
   -2.2639    3.5213   -2.6708 H   0  0  0  0  0  0  0  0  0  0  0  0
   -0.5804    3.9305   -2.2910 H   0  0  0  0  0  0  0  0  0  0  0  0
  1  2  1  0  0  0  0
  2  3  1  0  0  0  0
  2  4  1  0  0  0  0
  2  5  1  0  0  0  0
  5  6  2  0  0  0  0
  5  7  1  0  0  0  0
  7  8  1  0  0  0  0
  7  9  1  0  0  0  0
  9 10  1  0  0  0  0
  9 11  1  0  0  0  0
  9 20  1  0  0  0  0
 11 12  1  0  0  0  0
 11 13  1  0  0  0  0
 11 14  1  0  0  0  0
 14 15  1  0  0  0  0
 14 16  1  0  0  0  0
 14 17  1  0  0  0  0
 17 18  1  0  0  0  0
 17 19  2  0  0  0  0
 20 21  2  0  0  0  0
 20 22  1  0  0  0  0
 22 23  1  0  0  0  0
 22 24  1  0  0  0  0
 24 25  1  0  0  0  0
 24 26  1  0  0  0  0
 24 27  1  0  0  0  0
M  CHG  1  18  -1
M  END
$$$$

  -OEChem-01062216073D

 27 26  0     1  0  0  0  0  0999 V2000
   -3.0323   -2.9046    1.3878 H   0  0  0  0  0  0  0  0  0  0  0  0
   -2.7858   -2.1710    0.6150 C   0  0  0  0  0  0  0  0  0  0  0  0
   -3.7111   -1.8025    0.1665 H   0  0  0  0  0  0  0  0  0  0  0  0
   -2.1847   -2.6647   -0.1537 H   0  0  0  0  0  0  0  0  0  0  0  0
   -1.9996   -1.0223    1.2200 C   0  0  0  0  0  0  0  0  0  0  0  0
   -1.9021   -0.9089    2.4313 O   0  0  0  0  0  0  0  0  0  0  0  0
   -1.6221    0.0472    0.4406 N   0  0  0  0  0  0  0  0  0  0  0  0
   -1.9913   -0.0681   -0.4988 H   0  0  0  0  0  0  0  0  0  0  0  0
   -0.2403    0.5902    0.4080 C   0  0  1  0  0  0  0  0  0  0  0  0
   -0.0509    1.1782    1.3110 H   0  0  0  0  0  0  0  0  0  0  0  0
    0.8821   -0.4875    0.2614 C   0  0  0  0  0  0  0  0  0  0  0  0
    0.6790   -1.0716   -0.6430 H   0  0  0  0  0  0  0  0  0  0  0  0
    1.8387    0.0241    0.1083 H   0  0  0  0  0  0  0  0  0  0  0  0
    1.1089   -1.4701    1.4278 C   0  0  0  0  0  0  0  0  0  0  0  0
    0.2269   -2.0721    1.6333 H   0  0  0  0  0  0  0  0  0  0  0  0
    1.3610   -0.9156    2.3365 H   0  0  0  0  0  0  0  0  0  0  0  0
    2.2269   -2.4537    1.0827 C   0  0  0  0  0  0  0  0  0  0  0  0
    1.9461   -3.3793    0.2785 O   0  5  0  0  0  0  0  0  0  0  0  0
    3.3521   -2.2822    1.6136 O   0  0  0  0  0  0  0  0  0  0  0  0
   -0.1427    1.5204   -0.8346 C   0  0  0  0  0  0  0  0  0  0  0  0
    0.8938    1.7487   -1.4436 O   0  0  0  0  0  0  0  0  0  0  0  0
   -1.2861    2.1799   -1.2577 N   0  0  0  0  0  0  0  0  0  0  0  0
   -2.0863    2.1215   -0.6348 H   0  0  0  0  0  0  0  0  0  0  0  0
   -1.2948    3.1747   -2.3220 C   0  0  0  0  0  0  0  0  0  0  0  0
   -0.9181    2.7414   -3.2543 H   0  0  0  0  0  0  0  0  0  0  0  0
   -2.3145    3.5308   -2.4954 H   0  0  0  0  0  0  0  0  0  0  0  0
   -0.6685    4.0307   -2.0506 H   0  0  0  0  0  0  0  0  0  0  0  0
  1  2  1  0  0  0  0
  2  3  1  0  0  0  0
  2  4  1  0  0  0  0
  2  5  1  0  0  0  0
  5  6  2  0  0  0  0
  5  7  1  0  0  0  0
  7  8  1  0  0  0  0
  7  9  1  0  0  0  0
  9 10  1  0  0  0  0
  9 11  1  0  0  0  0
  9 20  1  0  0  0  0
 11 12  1  0  0  0  0
 11 13  1  0  0  0  0
 11 14  1  0  0  0  0
 14 15  1  0  0  0  0
 14 16  1  0  0  0  0
 14 17  1  0  0  0  0
 17 18  1  0  0  0  0
 17 19  2  0  0  0  0
 20 21  2  0  0  0  0
 20 22  1  0  0  0  0
 22 23  1  0  0  0  0
 22 24  1  0  0  0  0
 24 25  1  0  0  0  0
 24 26  1  0  0  0  0
 24 27  1  0  0  0  0
M  CHG  1  18  -1
M  END
$$$$

  -OEChem-01062216073D

 27 26  0     1  0  0  0  0  0999 V2000
   -3.0183   -2.9237    1.3140 H   0  0  0  0  0  0  0  0  0  0  0  0
   -2.7980   -2.1568    0.5659 C   0  0  0  0  0  0  0  0  0  0  0  0
   -3.7375   -1.7745    0.1602 H   0  0  0  0  0  0  0  0  0  0  0  0
   -2.2174   -2.6147   -0.2396 H   0  0  0  0  0  0  0  0  0  0  0  0
   -2.0004   -1.0294    1.1955 C   0  0  0  0  0  0  0  0  0  0  0  0
   -1.9080   -0.9395    2.4094 O   0  0  0  0  0  0  0  0  0  0  0  0
   -1.6132    0.0541    0.4410 N   0  0  0  0  0  0  0  0  0  0  0  0
   -1.9935   -0.0231   -0.4981 H   0  0  0  0  0  0  0  0  0  0  0  0
   -0.2273    0.5818    0.4175 C   0  0  1  0  0  0  0  0  0  0  0  0
   -0.0393    1.1564    1.3293 H   0  0  0  0  0  0  0  0  0  0  0  0
    0.8992   -0.4902    0.2722 C   0  0  0  0  0  0  0  0  0  0  0  0
    0.7020   -1.0749   -0.6331 H   0  0  0  0  0  0  0  0  0  0  0  0
    1.8529    0.0285    0.1224 H   0  0  0  0  0  0  0  0  0  0  0  0
    1.1176   -1.4744    1.4384 C   0  0  0  0  0  0  0  0  0  0  0  0
    0.2332   -2.0765    1.6345 H   0  0  0  0  0  0  0  0  0  0  0  0
    1.3601   -0.9220    2.3509 H   0  0  0  0  0  0  0  0  0  0  0  0
    2.2406   -2.4553    1.1026 C   0  0  0  0  0  0  0  0  0  0  0  0
    1.9527   -3.4256    0.3561 O   0  5  0  0  0  0  0  0  0  0  0  0
    3.3808   -2.2316    1.5801 O   0  0  0  0  0  0  0  0  0  0  0  0
   -0.1395    1.5354   -0.8058 C   0  0  0  0  0  0  0  0  0  0  0  0
    0.7656    1.5360   -1.6294 O   0  0  0  0  0  0  0  0  0  0  0  0
   -1.1777    2.4309   -0.9991 N   0  0  0  0  0  0  0  0  0  0  0  0
   -1.8915    2.4567   -0.2767 H   0  0  0  0  0  0  0  0  0  0  0  0
   -1.2148    3.4146   -2.0727 C   0  0  0  0  0  0  0  0  0  0  0  0
   -1.1910    2.9183   -3.0483 H   0  0  0  0  0  0  0  0  0  0  0  0
   -2.1328    4.0060   -2.0085 H   0  0  0  0  0  0  0  0  0  0  0  0
   -0.3589    4.0935   -1.9998 H   0  0  0  0  0  0  0  0  0  0  0  0
  1  2  1  0  0  0  0
  2  3  1  0  0  0  0
  2  4  1  0  0  0  0
  2  5  1  0  0  0  0
  5  6  2  0  0  0  0
  5  7  1  0  0  0  0
  7  8  1  0  0  0  0
  7  9  1  0  0  0  0
  9 10  1  0  0  0  0
  9 11  1  0  0  0  0
  9 20  1  0  0  0  0
 11 12  1  0  0  0  0
 11 13  1  0  0  0  0
 11 14  1  0  0  0  0
 14 15  1  0  0  0  0
 14 16  1  0  0  0  0
 14 17  1  0  0  0  0
 17 18  1  0  0  0  0
 17 19  2  0  0  0  0
 20 21  2  0  0  0  0
 20 22  1  0  0  0  0
 22 23  1  0  0  0  0
 22 24  1  0  0  0  0
 24 25  1  0  0  0  0
 24 26  1  0  0  0  0
 24 27  1  0  0  0  0
M  CHG  1  18  -1
M  END
$$$$

  -OEChem-01062216073D

 27 26  0     1  0  0  0  0  0999 V2000
   -1.8029   -2.9928    1.6661 H   0  0  0  0  0  0  0  0  0  0  0  0
   -2.1363   -2.3850    0.8211 C   0  0  0  0  0  0  0  0  0  0  0  0
   -3.1157   -2.7436    0.4954 H   0  0  0  0  0  0  0  0  0  0  0  0
   -1.4341   -2.5166   -0.0041 H   0  0  0  0  0  0  0  0  0  0  0  0
   -2.2352   -0.9205    1.2309 C   0  0  0  0  0  0  0  0  0  0  0  0
   -3.1824   -0.5656    1.9146 O   0  0  0  0  0  0  0  0  0  0  0  0
   -1.7351    0.1199    0.4857 N   0  0  0  0  0  0  0  0  0  0  0  0
   -2.3337    0.9265    0.6289 H   0  0  0  0  0  0  0  0  0  0  0  0
   -0.3255    0.4585    0.1623 C   0  0  1  0  0  0  0  0  0  0  0  0
    0.0423    1.0279    1.0205 H   0  0  0  0  0  0  0  0  0  0  0  0
    0.7189   -0.6735    0.0192 C   0  0  0  0  0  0  0  0  0  0  0  0
    0.3777   -1.3898   -0.7346 H   0  0  0  0  0  0  0  0  0  0  0  0
    1.6592   -0.2474   -0.3482 H   0  0  0  0  0  0  0  0  0  0  0  0
    1.0241   -1.4059    1.3431 C   0  0  0  0  0  0  0  0  0  0  0  0
    0.1410   -1.8300    1.8088 H   0  0  0  0  0  0  0  0  0  0  0  0
    1.4385   -0.6869    2.0560 H   0  0  0  0  0  0  0  0  0  0  0  0
    2.0400   -2.5245    1.1265 C   0  0  0  0  0  0  0  0  0  0  0  0
    3.2457   -2.2755    1.3728 O   0  5  0  0  0  0  0  0  0  0  0  0
    1.6007   -3.6287    0.7203 O   0  0  0  0  0  0  0  0  0  0  0  0
   -0.2935    1.4760   -1.0014 C   0  0  0  0  0  0  0  0  0  0  0  0
    0.2460    1.2434   -2.0746 O   0  0  0  0  0  0  0  0  0  0  0  0
   -0.9169    2.7017   -0.8356 N   0  0  0  0  0  0  0  0  0  0  0  0
   -1.3309    2.8982    0.0688 H   0  0  0  0  0  0  0  0  0  0  0  0
   -0.9444    3.7343   -1.8623 C   0  0  0  0  0  0  0  0  0  0  0  0
   -1.4369    3.3621   -2.7666 H   0  0  0  0  0  0  0  0  0  0  0  0
   -1.4966    4.6075   -1.5027 H   0  0  0  0  0  0  0  0  0  0  0  0
    0.0732    4.0481   -2.1167 H   0  0  0  0  0  0  0  0  0  0  0  0
  1  2  1  0  0  0  0
  2  3  1  0  0  0  0
  2  4  1  0  0  0  0
  2  5  1  0  0  0  0
  5  6  2  0  0  0  0
  5  7  1  0  0  0  0
  7  8  1  0  0  0  0
  7  9  1  0  0  0  0
  9 10  1  0  0  0  0
  9 11  1  0  0  0  0
  9 20  1  0  0  0  0
 11 12  1  0  0  0  0
 11 13  1  0  0  0  0
 11 14  1  0  0  0  0
 14 15  1  0  0  0  0
 14 16  1  0  0  0  0
 14 17  1  0  0  0  0
 17 18  1  0  0  0  0
 17 19  2  0  0  0  0
 20 21  2  0  0  0  0
 20 22  1  0  0  0  0
 22 23  1  0  0  0  0
 22 24  1  0  0  0  0
 24 25  1  0  0  0  0
 24 26  1  0  0  0  0
 24 27  1  0  0  0  0
M  CHG  1  18  -1
M  END
$$$$

  -OEChem-01062216073D

 27 26  0     1  0  0  0  0  0999 V2000
   -1.8316   -3.0062    1.6200 H   0  0  0  0  0  0  0  0  0  0  0  0
   -2.1573   -2.3816    0.7843 C   0  0  0  0  0  0  0  0  0  0  0  0
   -3.1332   -2.7337    0.4415 H   0  0  0  0  0  0  0  0  0  0  0  0
   -1.4471   -2.4956   -0.0367 H   0  0  0  0  0  0  0  0  0  0  0  0
   -2.2609   -0.9261    1.2236 C   0  0  0  0  0  0  0  0  0  0  0  0
   -3.2072   -0.5889    1.9175 O   0  0  0  0  0  0  0  0  0  0  0  0
   -1.7582    0.1289    0.5010 N   0  0  0  0  0  0  0  0  0  0  0  0
   -2.3584    0.9345    0.6482 H   0  0  0  0  0  0  0  0  0  0  0  0
   -0.3472    0.4731    0.1977 C   0  0  1  0  0  0  0  0  0  0  0  0
    0.0110    1.0192    1.0747 H   0  0  0  0  0  0  0  0  0  0  0  0
    0.7034   -0.6481    0.0312 C   0  0  0  0  0  0  0  0  0  0  0  0
    0.3686   -1.3465   -0.7422 H   0  0  0  0  0  0  0  0  0  0  0  0
    1.6418   -0.2065   -0.3226 H   0  0  0  0  0  0  0  0  0  0  0  0
    1.0047   -1.4160    1.3351 C   0  0  0  0  0  0  0  0  0  0  0  0
    0.1200   -1.8568    1.7823 H   0  0  0  0  0  0  0  0  0  0  0  0
    1.4125   -0.7172    2.0715 H   0  0  0  0  0  0  0  0  0  0  0  0
    2.0285   -2.5214    1.0912 C   0  0  0  0  0  0  0  0  0  0  0  0
    3.2435   -2.2267    1.2087 O   0  5  0  0  0  0  0  0  0  0  0  0
    1.5886   -3.6591    0.7928 O   0  0  0  0  0  0  0  0  0  0  0  0
   -0.2996    1.5097   -0.9457 C   0  0  0  0  0  0  0  0  0  0  0  0
   -0.0157    1.2076   -2.0969 O   0  0  0  0  0  0  0  0  0  0  0  0
   -0.6346    2.8254   -0.6732 N   0  0  0  0  0  0  0  0  0  0  0  0
   -0.8438    3.0663    0.2897 H   0  0  0  0  0  0  0  0  0  0  0  0
   -0.6238    3.8795   -1.6785 C   0  0  0  0  0  0  0  0  0  0  0  0
   -1.3297    3.6482   -2.4828 H   0  0  0  0  0  0  0  0  0  0  0  0
   -0.9139    4.8331   -1.2275 H   0  0  0  0  0  0  0  0  0  0  0  0
    0.3777    3.9894   -2.1070 H   0  0  0  0  0  0  0  0  0  0  0  0
  1  2  1  0  0  0  0
  2  3  1  0  0  0  0
  2  4  1  0  0  0  0
  2  5  1  0  0  0  0
  5  6  2  0  0  0  0
  5  7  1  0  0  0  0
  7  8  1  0  0  0  0
  7  9  1  0  0  0  0
  9 10  1  0  0  0  0
  9 11  1  0  0  0  0
  9 20  1  0  0  0  0
 11 12  1  0  0  0  0
 11 13  1  0  0  0  0
 11 14  1  0  0  0  0
 14 15  1  0  0  0  0
 14 16  1  0  0  0  0
 14 17  1  0  0  0  0
 17 18  1  0  0  0  0
 17 19  2  0  0  0  0
 20 21  2  0  0  0  0
 20 22  1  0  0  0  0
 22 23  1  0  0  0  0
 22 24  1  0  0  0  0
 24 25  1  0  0  0  0
 24 26  1  0  0  0  0
 24 27  1  0  0  0  0
M  CHG  1  18  -1
M  END
$$$$

  -OEChem-01062216073D

 27 26  0     1  0  0  0  0  0999 V2000
   -3.1019   -2.8430    1.3925 H   0  0  0  0  0  0  0  0  0  0  0  0
   -2.8687   -2.0814    0.6432 C   0  0  0  0  0  0  0  0  0  0  0  0
   -3.8008   -1.6484    0.2732 H   0  0  0  0  0  0  0  0  0  0  0  0
   -2.3403   -2.5589   -0.1864 H   0  0  0  0  0  0  0  0  0  0  0  0
   -1.9941   -1.0005    1.2514 C   0  0  0  0  0  0  0  0  0  0  0  0
   -1.8307   -0.9433    2.4606 O   0  0  0  0  0  0  0  0  0  0  0  0
   -1.5952    0.0746    0.4921 N   0  0  0  0  0  0  0  0  0  0  0  0
   -1.9878    0.0215   -0.4452 H   0  0  0  0  0  0  0  0  0  0  0  0
   -0.2067    0.5742    0.4558 C   0  0  1  0  0  0  0  0  0  0  0  0
   -0.0056    1.1359    1.3725 H   0  0  0  0  0  0  0  0  0  0  0  0
    0.9271   -0.4784    0.2829 C   0  0  0  0  0  0  0  0  0  0  0  0
    0.7208   -1.0654   -0.6191 H   0  0  0  0  0  0  0  0  0  0  0  0
    1.8688    0.0556    0.1132 H   0  0  0  0  0  0  0  0  0  0  0  0
    1.1623   -1.4694    1.4366 C   0  0  0  0  0  0  0  0  0  0  0  0
    0.2798   -2.0760    1.6319 H   0  0  0  0  0  0  0  0  0  0  0  0
    1.4088   -0.9249    2.3528 H   0  0  0  0  0  0  0  0  0  0  0  0
    2.2931   -2.4333    1.0794 C   0  0  0  0  0  0  0  0  0  0  0  0
    3.4619   -2.0979    1.3968 O   0  5  0  0  0  0  0  0  0  0  0  0
    1.9922   -3.4819    0.4552 O   0  0  0  0  0  0  0  0  0  0  0  0
   -0.1069    1.5194   -0.7619 C   0  0  0  0  0  0  0  0  0  0  0  0
   -0.0820    1.0942   -1.9109 O   0  0  0  0  0  0  0  0  0  0  0  0
   -0.3801    2.8632   -0.5798 N   0  0  0  0  0  0  0  0  0  0  0  0
   -0.5367    3.1780    0.3724 H   0  0  0  0  0  0  0  0  0  0  0  0
   -0.5176    3.8162   -1.6723 C   0  0  0  0  0  0  0  0  0  0  0  0
   -1.3817    3.5625   -2.2948 H   0  0  0  0  0  0  0  0  0  0  0  0
   -0.6600    4.8255   -1.2750 H   0  0  0  0  0  0  0  0  0  0  0  0
    0.3819    3.8151   -2.2966 H   0  0  0  0  0  0  0  0  0  0  0  0
  1  2  1  0  0  0  0
  2  3  1  0  0  0  0
  2  4  1  0  0  0  0
  2  5  1  0  0  0  0
  5  6  2  0  0  0  0
  5  7  1  0  0  0  0
  7  8  1  0  0  0  0
  7  9  1  0  0  0  0
  9 10  1  0  0  0  0
  9 11  1  0  0  0  0
  9 20  1  0  0  0  0
 11 12  1  0  0  0  0
 11 13  1  0  0  0  0
 11 14  1  0  0  0  0
 14 15  1  0  0  0  0
 14 16  1  0  0  0  0
 14 17  1  0  0  0  0
 17 18  1  0  0  0  0
 17 19  2  0  0  0  0
 20 21  2  0  0  0  0
 20 22  1  0  0  0  0
 22 23  1  0  0  0  0
 22 24  1  0  0  0  0
 24 25  1  0  0  0  0
 24 26  1  0  0  0  0
 24 27  1  0  0  0  0
M  CHG  1  18  -1
M  END
$$$$

  -OEChem-01062216073D

 27 26  0     1  0  0  0  0  0999 V2000
   -3.1610   -2.8284    1.4026 H   0  0  0  0  0  0  0  0  0  0  0  0
   -2.9250   -2.0661    0.6550 C   0  0  0  0  0  0  0  0  0  0  0  0
   -3.8538   -1.6071    0.3085 H   0  0  0  0  0  0  0  0  0  0  0  0
   -2.4262   -2.5483   -0.1899 H   0  0  0  0  0  0  0  0  0  0  0  0
   -2.0126   -1.0120    1.2546 C   0  0  0  0  0  0  0  0  0  0  0  0
   -1.8225   -0.9735    2.4609 O   0  0  0  0  0  0  0  0  0  0  0  0
   -1.6055    0.0601    0.4952 N   0  0  0  0  0  0  0  0  0  0  0  0
   -1.9943    0.0197   -0.4452 H   0  0  0  0  0  0  0  0  0  0  0  0
   -0.2213    0.5688    0.4740 C   0  0  1  0  0  0  0  0  0  0  0  0
   -0.0355    1.1296    1.3939 H   0  0  0  0  0  0  0  0  0  0  0  0
    0.9243   -0.4674    0.2955 C   0  0  0  0  0  0  0  0  0  0  0  0
    0.7310   -1.0430   -0.6169 H   0  0  0  0  0  0  0  0  0  0  0  0
    1.8613    0.0794    0.1408 H   0  0  0  0  0  0  0  0  0  0  0  0
    1.1638   -1.4710    1.4363 C   0  0  0  0  0  0  0  0  0  0  0  0
    0.2852   -2.0890    1.6152 H   0  0  0  0  0  0  0  0  0  0  0  0
    1.3994   -0.9385    2.3622 H   0  0  0  0  0  0  0  0  0  0  0  0
    2.3091   -2.4139    1.0689 C   0  0  0  0  0  0  0  0  0  0  0  0
    3.4789   -2.0167    1.3004 O   0  5  0  0  0  0  0  0  0  0  0  0
    2.0187   -3.5046    0.5165 O   0  0  0  0  0  0  0  0  0  0  0  0
   -0.1073    1.5058   -0.7468 C   0  0  0  0  0  0  0  0  0  0  0  0
   -0.3394    1.0950   -1.8789 O   0  0  0  0  0  0  0  0  0  0  0  0
   -0.0754    2.8740   -0.5471 N   0  0  0  0  0  0  0  0  0  0  0  0
    0.0333    3.2016    0.4074 H   0  0  0  0  0  0  0  0  0  0  0  0
   -0.1328    3.8487   -1.6273 C   0  0  0  0  0  0  0  0  0  0  0  0
   -1.0916    3.7831   -2.1514 H   0  0  0  0  0  0  0  0  0  0  0  0
   -0.0255    4.8608   -1.2263 H   0  0  0  0  0  0  0  0  0  0  0  0
    0.6761    3.6734   -2.3440 H   0  0  0  0  0  0  0  0  0  0  0  0
  1  2  1  0  0  0  0
  2  3  1  0  0  0  0
  2  4  1  0  0  0  0
  2  5  1  0  0  0  0
  5  6  2  0  0  0  0
  5  7  1  0  0  0  0
  7  8  1  0  0  0  0
  7  9  1  0  0  0  0
  9 10  1  0  0  0  0
  9 11  1  0  0  0  0
  9 20  1  0  0  0  0
 11 12  1  0  0  0  0
 11 13  1  0  0  0  0
 11 14  1  0  0  0  0
 14 15  1  0  0  0  0
 14 16  1  0  0  0  0
 14 17  1  0  0  0  0
 17 18  1  0  0  0  0
 17 19  2  0  0  0  0
 20 21  2  0  0  0  0
 20 22  1  0  0  0  0
 22 23  1  0  0  0  0
 22 24  1  0  0  0  0
 24 25  1  0  0  0  0
 24 26  1  0  0  0  0
 24 27  1  0  0  0  0
M  CHG  1  18  -1
M  END
$$$$

  -OEChem-01062216073D

 27 26  0     1  0  0  0  0  0999 V2000
   -3.1566   -2.8747    1.3807 H   0  0  0  0  0  0  0  0  0  0  0  0
   -2.9264   -2.1068    0.6371 C   0  0  0  0  0  0  0  0  0  0  0  0
   -3.8590   -1.6564    0.2896 H   0  0  0  0  0  0  0  0  0  0  0  0
   -2.4201   -2.5804   -0.2083 H   0  0  0  0  0  0  0  0  0  0  0  0
   -2.0265   -1.0455    1.2432 C   0  0  0  0  0  0  0  0  0  0  0  0
   -1.8298   -1.0187    2.4488 O   0  0  0  0  0  0  0  0  0  0  0  0
   -1.6273    0.0330    0.4886 N   0  0  0  0  0  0  0  0  0  0  0  0
   -2.0096    0.0004   -0.4555 H   0  0  0  0  0  0  0  0  0  0  0  0
   -0.2545    0.5718    0.4855 C   0  0  1  0  0  0  0  0  0  0  0  0
   -0.0942    1.1335    1.4099 H   0  0  0  0  0  0  0  0  0  0  0  0
    0.9134   -0.4369    0.3082 C   0  0  0  0  0  0  0  0  0  0  0  0
    0.7389   -1.0057   -0.6124 H   0  0  0  0  0  0  0  0  0  0  0  0
    1.8408    0.1303    0.1683 H   0  0  0  0  0  0  0  0  0  0  0  0
    1.1644   -1.4466    1.4402 C   0  0  0  0  0  0  0  0  0  0  0  0
    0.2981   -2.0860    1.6037 H   0  0  0  0  0  0  0  0  0  0  0  0
    1.3800   -0.9195    2.3741 H   0  0  0  0  0  0  0  0  0  0  0  0
    2.3334   -2.3587    1.0709 C   0  0  0  0  0  0  0  0  0  0  0  0
    3.4908   -1.9423    1.3299 O   0  5  0  0  0  0  0  0  0  0  0  0
    2.0748   -3.4383    0.4822 O   0  0  0  0  0  0  0  0  0  0  0  0
   -0.1301    1.5103   -0.7330 C   0  0  0  0  0  0  0  0  0  0  0  0
   -0.5567    1.1646   -1.8310 O   0  0  0  0  0  0  0  0  0  0  0  0
    0.1873    2.8424   -0.5393 N   0  0  0  0  0  0  0  0  0  0  0  0
    0.5370    3.1047    0.3769 H   0  0  0  0  0  0  0  0  0  0  0  0
    0.2376    3.8197   -1.6175 C   0  0  0  0  0  0  0  0  0  0  0  0
   -0.7466    3.9251   -2.0853 H   0  0  0  0  0  0  0  0  0  0  0  0
    0.5399    4.7954   -1.2259 H   0  0  0  0  0  0  0  0  0  0  0  0
    0.9618    3.5121   -2.3789 H   0  0  0  0  0  0  0  0  0  0  0  0
  1  2  1  0  0  0  0
  2  3  1  0  0  0  0
  2  4  1  0  0  0  0
  2  5  1  0  0  0  0
  5  6  2  0  0  0  0
  5  7  1  0  0  0  0
  7  8  1  0  0  0  0
  7  9  1  0  0  0  0
  9 10  1  0  0  0  0
  9 11  1  0  0  0  0
  9 20  1  0  0  0  0
 11 12  1  0  0  0  0
 11 13  1  0  0  0  0
 11 14  1  0  0  0  0
 14 15  1  0  0  0  0
 14 16  1  0  0  0  0
 14 17  1  0  0  0  0
 17 18  1  0  0  0  0
 17 19  2  0  0  0  0
 20 21  2  0  0  0  0
 20 22  1  0  0  0  0
 22 23  1  0  0  0  0
 22 24  1  0  0  0  0
 24 25  1  0  0  0  0
 24 26  1  0  0  0  0
 24 27  1  0  0  0  0
M  CHG  1  18  -1
M  END
$$$$

  -OEChem-01062216073D

 27 26  0     1  0  0  0  0  0999 V2000
   -3.1679   -2.9011    1.3562 H   0  0  0  0  0  0  0  0  0  0  0  0
   -2.9622   -2.1130    0.6265 C   0  0  0  0  0  0  0  0  0  0  0  0
   -3.9049   -1.6480    0.3289 H   0  0  0  0  0  0  0  0  0  0  0  0
   -2.4920   -2.5640   -0.2513 H   0  0  0  0  0  0  0  0  0  0  0  0
   -2.0347   -1.0734    1.2286 C   0  0  0  0  0  0  0  0  0  0  0  0
   -1.8217   -1.0638    2.4316 O   0  0  0  0  0  0  0  0  0  0  0  0
   -1.6354    0.0088    0.4792 N   0  0  0  0  0  0  0  0  0  0  0  0
   -2.0235   -0.0033   -0.4634 H   0  0  0  0  0  0  0  0  0  0  0  0
   -0.2730    0.5738    0.4912 C   0  0  1  0  0  0  0  0  0  0  0  0
   -0.1331    1.1387    1.4172 H   0  0  0  0  0  0  0  0  0  0  0  0
    0.9129   -0.4136    0.3163 C   0  0  0  0  0  0  0  0  0  0  0  0
    0.7555   -0.9766   -0.6109 H   0  0  0  0  0  0  0  0  0  0  0  0
    1.8321    0.1694    0.1890 H   0  0  0  0  0  0  0  0  0  0  0  0
    1.1745   -1.4282    1.4403 C   0  0  0  0  0  0  0  0  0  0  0  0
    0.3182   -2.0846    1.5902 H   0  0  0  0  0  0  0  0  0  0  0  0
    1.3742   -0.9070    2.3811 H   0  0  0  0  0  0  0  0  0  0  0  0
    2.3628   -2.3137    1.0672 C   0  0  0  0  0  0  0  0  0  0  0  0
    3.5110   -1.8688    1.3197 O   0  5  0  0  0  0  0  0  0  0  0  0
    2.1280   -3.3969    0.4755 O   0  0  0  0  0  0  0  0  0  0  0  0
   -0.1389    1.5126   -0.7267 C   0  0  0  0  0  0  0  0  0  0  0  0
   -0.7222    1.2603   -1.7780 O   0  0  0  0  0  0  0  0  0  0  0  0
    0.4507    2.7538   -0.5720 N   0  0  0  0  0  0  0  0  0  0  0  0
    0.9751    2.9066    0.2842 H   0  0  0  0  0  0  0  0  0  0  0  0
    0.5966    3.7086   -1.6614 C   0  0  0  0  0  0  0  0  0  0  0  0
   -0.3846    3.9962   -2.0529 H   0  0  0  0  0  0  0  0  0  0  0  0
    1.1033    4.6103   -1.3046 H   0  0  0  0  0  0  0  0  0  0  0  0
    1.1896    3.2748   -2.4732 H   0  0  0  0  0  0  0  0  0  0  0  0
  1  2  1  0  0  0  0
  2  3  1  0  0  0  0
  2  4  1  0  0  0  0
  2  5  1  0  0  0  0
  5  6  2  0  0  0  0
  5  7  1  0  0  0  0
  7  8  1  0  0  0  0
  7  9  1  0  0  0  0
  9 10  1  0  0  0  0
  9 11  1  0  0  0  0
  9 20  1  0  0  0  0
 11 12  1  0  0  0  0
 11 13  1  0  0  0  0
 11 14  1  0  0  0  0
 14 15  1  0  0  0  0
 14 16  1  0  0  0  0
 14 17  1  0  0  0  0
 17 18  1  0  0  0  0
 17 19  2  0  0  0  0
 20 21  2  0  0  0  0
 20 22  1  0  0  0  0
 22 23  1  0  0  0  0
 22 24  1  0  0  0  0
 24 25  1  0  0  0  0
 24 26  1  0  0  0  0
 24 27  1  0  0  0  0
M  CHG  1  18  -1
M  END
$$$$

  -OEChem-01062216073D

 27 26  0     1  0  0  0  0  0999 V2000
   -1.8313   -2.9885    1.5637 H   0  0  0  0  0  0  0  0  0  0  0  0
   -2.1529   -2.3495    0.7374 C   0  0  0  0  0  0  0  0  0  0  0  0
   -3.1082   -2.7206    0.3583 H   0  0  0  0  0  0  0  0  0  0  0  0
   -1.4195   -2.4169   -0.0679 H   0  0  0  0  0  0  0  0  0  0  0  0
   -2.3149   -0.9118    1.2157 C   0  0  0  0  0  0  0  0  0  0  0  0
   -3.3030   -0.6317    1.8759 O   0  0  0  0  0  0  0  0  0  0  0  0
   -1.7843    0.1767    0.5644 N   0  0  0  0  0  0  0  0  0  0  0  0
   -2.4102    0.9738    0.6471 H   0  0  0  0  0  0  0  0  0  0  0  0
   -0.3722    0.5463    0.3034 C   0  0  1  0  0  0  0  0  0  0  0  0
   -0.0574    1.0437    1.2254 H   0  0  0  0  0  0  0  0  0  0  0  0
    0.6982   -0.5429    0.0862 C   0  0  0  0  0  0  0  0  0  0  0  0
    0.3788   -1.1975   -0.7307 H   0  0  0  0  0  0  0  0  0  0  0  0
    1.6350   -0.0722   -0.2311 H   0  0  0  0  0  0  0  0  0  0  0  0
    1.0033   -1.3889    1.3365 C   0  0  0  0  0  0  0  0  0  0  0  0
    0.1223   -1.8741    1.7440 H   0  0  0  0  0  0  0  0  0  0  0  0
    1.3973   -0.7379    2.1223 H   0  0  0  0  0  0  0  0  0  0  0  0
    2.0525   -2.4479    1.0090 C   0  0  0  0  0  0  0  0  0  0  0  0
    3.2379   -2.0556    0.8712 O   0  5  0  0  0  0  0  0  0  0  0  0
    1.6646   -3.6328    0.8686 O   0  0  0  0  0  0  0  0  0  0  0  0
   -0.2436    1.6459   -0.7747 C   0  0  0  0  0  0  0  0  0  0  0  0
   -1.1521    1.8826   -1.5625 O   0  0  0  0  0  0  0  0  0  0  0  0
    0.8236    2.5250   -0.7185 N   0  0  0  0  0  0  0  0  0  0  0  0
    1.6036    2.2556   -0.1248 H   0  0  0  0  0  0  0  0  0  0  0  0
    1.0197    3.6040   -1.6765 C   0  0  0  0  0  0  0  0  0  0  0  0
    0.1754    4.3004   -1.6473 H   0  0  0  0  0  0  0  0  0  0  0  0
    1.9317    4.1580   -1.4356 H   0  0  0  0  0  0  0  0  0  0  0  0
    1.1141    3.2030   -2.6908 H   0  0  0  0  0  0  0  0  0  0  0  0
  1  2  1  0  0  0  0
  2  3  1  0  0  0  0
  2  4  1  0  0  0  0
  2  5  1  0  0  0  0
  5  6  2  0  0  0  0
  5  7  1  0  0  0  0
  7  8  1  0  0  0  0
  7  9  1  0  0  0  0
  9 10  1  0  0  0  0
  9 11  1  0  0  0  0
  9 20  1  0  0  0  0
 11 12  1  0  0  0  0
 11 13  1  0  0  0  0
 11 14  1  0  0  0  0
 14 15  1  0  0  0  0
 14 16  1  0  0  0  0
 14 17  1  0  0  0  0
 17 18  1  0  0  0  0
 17 19  2  0  0  0  0
 20 21  2  0  0  0  0
 20 22  1  0  0  0  0
 22 23  1  0  0  0  0
 22 24  1  0  0  0  0
 24 25  1  0  0  0  0
 24 26  1  0  0  0  0
 24 27  1  0  0  0  0
M  CHG  1  18  -1
M  END
$$$$

  -OEChem-01062216073D

 27 26  0     1  0  0  0  0  0999 V2000
   -1.8433   -2.9852    1.5468 H   0  0  0  0  0  0  0  0  0  0  0  0
   -2.1448   -2.3371    0.7199 C   0  0  0  0  0  0  0  0  0  0  0  0
   -3.0993   -2.6940    0.3251 H   0  0  0  0  0  0  0  0  0  0  0  0
   -1.4007   -2.4095   -0.0750 H   0  0  0  0  0  0  0  0  0  0  0  0
   -2.2956   -0.9002    1.2050 C   0  0  0  0  0  0  0  0  0  0  0  0
   -3.2871   -0.6174    1.8588 O   0  0  0  0  0  0  0  0  0  0  0  0
   -1.7511    0.1869    0.5622 N   0  0  0  0  0  0  0  0  0  0  0  0
   -2.3745    0.9880    0.6324 H   0  0  0  0  0  0  0  0  0  0  0  0
   -0.3356    0.5556    0.3177 C   0  0  1  0  0  0  0  0  0  0  0  0
   -0.0226    1.0528    1.2404 H   0  0  0  0  0  0  0  0  0  0  0  0
    0.7237   -0.5491    0.1062 C   0  0  0  0  0  0  0  0  0  0  0  0
    0.4028   -1.1947   -0.7174 H   0  0  0  0  0  0  0  0  0  0  0  0
    1.6723   -0.0965   -0.1991 H   0  0  0  0  0  0  0  0  0  0  0  0
    1.0081   -1.4068    1.3531 C   0  0  0  0  0  0  0  0  0  0  0  0
    0.1193   -1.8840    1.7530 H   0  0  0  0  0  0  0  0  0  0  0  0
    1.4052   -0.7655    2.1454 H   0  0  0  0  0  0  0  0  0  0  0  0
    2.0465   -2.4752    1.0213 C   0  0  0  0  0  0  0  0  0  0  0  0
    3.2361   -2.0943    0.8862 O   0  5  0  0  0  0  0  0  0  0  0  0
    1.6449   -3.6534    0.8641 O   0  0  0  0  0  0  0  0  0  0  0  0
   -0.2015    1.6584   -0.7593 C   0  0  0  0  0  0  0  0  0  0  0  0
   -1.1793    2.0765   -1.3699 O   0  0  0  0  0  0  0  0  0  0  0  0
    0.9947    2.3408   -0.8965 N   0  0  0  0  0  0  0  0  0  0  0  0
    1.8064    1.9375   -0.4349 H   0  0  0  0  0  0  0  0  0  0  0  0
    1.2005    3.4172   -1.8553 C   0  0  0  0  0  0  0  0  0  0  0  0
    0.5307    4.2560   -1.6398 H   0  0  0  0  0  0  0  0  0  0  0  0
    2.2324    3.7765   -1.7993 H   0  0  0  0  0  0  0  0  0  0  0  0
    1.0104    3.0638   -2.8739 H   0  0  0  0  0  0  0  0  0  0  0  0
  1  2  1  0  0  0  0
  2  3  1  0  0  0  0
  2  4  1  0  0  0  0
  2  5  1  0  0  0  0
  5  6  2  0  0  0  0
  5  7  1  0  0  0  0
  7  8  1  0  0  0  0
  7  9  1  0  0  0  0
  9 10  1  0  0  0  0
  9 11  1  0  0  0  0
  9 20  1  0  0  0  0
 11 12  1  0  0  0  0
 11 13  1  0  0  0  0
 11 14  1  0  0  0  0
 14 15  1  0  0  0  0
 14 16  1  0  0  0  0
 14 17  1  0  0  0  0
 17 18  1  0  0  0  0
 17 19  2  0  0  0  0
 20 21  2  0  0  0  0
 20 22  1  0  0  0  0
 22 23  1  0  0  0  0
 22 24  1  0  0  0  0
 24 25  1  0  0  0  0
 24 26  1  0  0  0  0
 24 27  1  0  0  0  0
M  CHG  1  18  -1
M  END
$$$$
