
  -OEChem-02062319043D

 56 55  0     1  0  0  0  0  0999 V2000
   -0.6301   -3.0439   -1.9305 C   0  0  0  0  0  0  0  0  0  0  0  0
   -1.3417   -2.3720   -1.1930 O   0  0  0  0  0  0  0  0  0  0  0  0
   -1.2414   -3.7867   -3.1029 C   0  0  0  0  0  0  0  0  0  0  0  0
   -2.3300   -3.6880   -3.0886 H   0  0  0  0  0  0  0  0  0  0  0  0
   -0.8610   -3.3790   -4.0428 H   0  0  0  0  0  0  0  0  0  0  0  0
   -0.9856   -4.8478   -3.0458 H   0  0  0  0  0  0  0  0  0  0  0  0
    0.7337   -3.0956   -1.7278 N   0  0  0  0  0  0  0  0  0  0  0  0
    1.4347   -2.4612   -0.6019 C   0  0  2  0  0  0  0  0  0  0  0  0
    1.4907   -0.9207   -0.7223 C   0  0  0  0  0  0  0  0  0  0  0  0
    2.4885   -0.3354   -1.1210 O   0  0  0  0  0  0  0  0  0  0  0  0
    2.8327   -3.0842   -0.5113 C   0  0  0  0  0  0  0  0  0  0  0  0
    1.2859   -3.6243   -2.3984 H   0  0  0  0  0  0  0  0  0  0  0  0
    0.9106   -2.6944    0.3314 H   0  0  0  0  0  0  0  0  0  0  0  0
    3.4018   -2.8953   -1.4272 H   0  0  0  0  0  0  0  0  0  0  0  0
    3.3825   -2.6526    0.3315 H   0  0  0  0  0  0  0  0  0  0  0  0
    2.7620   -4.1652   -0.3579 H   0  0  0  0  0  0  0  0  0  0  0  0
    0.3692   -0.1880   -0.3760 N   0  0  0  0  0  0  0  0  0  0  0  0
    0.2770    1.2809   -0.4390 C   0  0  2  0  0  0  0  0  0  0  0  0
    1.3260    1.9541    0.4660 C   0  0  0  0  0  0  0  0  0  0  0  0
    1.8681    2.9948    0.1219 O   0  0  0  0  0  0  0  0  0  0  0  0
   -1.1302    1.7415   -0.0287 C   0  0  0  0  0  0  0  0  0  0  0  0
   -2.2107    1.2142   -0.9808 C   0  0  0  0  0  0  0  0  0  0  0  0
   -3.5677    1.7863   -0.5834 C   0  0  0  0  0  0  0  0  0  0  0  0
   -4.6127    1.2205   -1.4548 N   0  3  0  0  0  0  0  0  0  0  0  0
   -5.7993    1.7372   -1.5924 C   0  0  0  0  0  0  0  0  0  0  0  0
   -6.7179    1.1182   -2.4059 N   0  0  0  0  0  0  0  0  0  0  0  0
   -6.1676    2.8947   -0.9448 N   0  0  0  0  0  0  0  0  0  0  0  0
   -0.4837   -0.7395   -0.2642 H   0  0  0  0  0  0  0  0  0  0  0  0
    0.4803    1.6069   -1.4655 H   0  0  0  0  0  0  0  0  0  0  0  0
   -1.1518    2.8375   -0.0291 H   0  0  0  0  0  0  0  0  0  0  0  0
   -1.3423    1.4056    0.9923 H   0  0  0  0  0  0  0  0  0  0  0  0
   -1.9704    1.5045   -2.0094 H   0  0  0  0  0  0  0  0  0  0  0  0
   -2.2466    0.1214   -0.9359 H   0  0  0  0  0  0  0  0  0  0  0  0
   -3.7750    1.5315    0.4621 H   0  0  0  0  0  0  0  0  0  0  0  0
   -3.5355    2.8772   -0.6757 H   0  0  0  0  0  0  0  0  0  0  0  0
   -4.3818    0.3584   -1.9478 H   0  0  0  0  0  0  0  0  0  0  0  0
   -7.6926    1.4068   -2.3436 H   0  0  0  0  0  0  0  0  0  0  0  0
   -6.5196    0.1764   -2.7381 H   0  0  0  0  0  0  0  0  0  0  0  0
   -6.9988    3.3899   -1.2611 H   0  0  0  0  0  0  0  0  0  0  0  0
   -5.4408    3.4290   -0.4730 H   0  0  0  0  0  0  0  0  0  0  0  0
    1.5112    1.4627    1.7425 N   0  0  0  0  0  0  0  0  0  0  0  0
    2.8114    1.5776    2.4107 C   0  0  2  0  0  0  0  0  0  0  0  0
    3.4647    0.1816    2.5159 C   0  0  0  0  0  0  0  0  0  0  0  0
    2.7678   -0.8275    2.4209 O   0  0  0  0  0  0  0  0  0  0  0  0
    2.5879    2.1865    3.7959 C   0  0  0  0  0  0  0  0  0  0  0  0
    1.0753    0.5503    1.8726 H   0  0  0  0  0  0  0  0  0  0  0  0
    3.4890    2.2242    1.8422 H   0  0  0  0  0  0  0  0  0  0  0  0
    1.9270    1.5502    4.3931 H   0  0  0  0  0  0  0  0  0  0  0  0
    3.5395    2.2941    4.3256 H   0  0  0  0  0  0  0  0  0  0  0  0
    2.1300    3.1762    3.7019 H   0  0  0  0  0  0  0  0  0  0  0  0
    4.8253    0.0526    2.7203 N   0  0  0  0  0  0  0  0  0  0  0  0
    5.5088   -1.2344    2.7573 C   0  0  0  0  0  0  0  0  0  0  0  0
    5.3828    0.9024    2.7139 H   0  0  0  0  0  0  0  0  0  0  0  0
    5.0649   -1.8844    3.5190 H   0  0  0  0  0  0  0  0  0  0  0  0
    5.4388   -1.7314    1.7843 H   0  0  0  0  0  0  0  0  0  0  0  0
    6.5668   -1.0941    2.9994 H   0  0  0  0  0  0  0  0  0  0  0  0
  1  2  2  0  0  0  0
  1  3  1  0  0  0  0
  1  7  1  0  0  0  0
  3  4  1  0  0  0  0
  3  5  1  0  0  0  0
  3  6  1  0  0  0  0
  7  8  1  0  0  0  0
  7 12  1  0  0  0  0
  8  9  1  0  0  0  0
  8 11  1  0  0  0  0
  8 13  1  0  0  0  0
  9 10  2  0  0  0  0
  9 17  1  0  0  0  0
 11 14  1  0  0  0  0
 11 15  1  0  0  0  0
 11 16  1  0  0  0  0
 17 18  1  0  0  0  0
 17 28  1  0  0  0  0
 18 19  1  0  0  0  0
 18 21  1  0  0  0  0
 18 29  1  0  0  0  0
 19 20  2  0  0  0  0
 19 41  1  0  0  0  0
 21 22  1  0  0  0  0
 21 30  1  0  0  0  0
 21 31  1  0  0  0  0
 22 23  1  0  0  0  0
 22 32  1  0  0  0  0
 22 33  1  0  0  0  0
 23 24  1  0  0  0  0
 23 34  1  0  0  0  0
 23 35  1  0  0  0  0
 24 25  2  0  0  0  0
 24 36  1  0  0  0  0
 25 26  1  0  0  0  0
 25 27  1  0  0  0  0
 26 37  1  0  0  0  0
 26 38  1  0  0  0  0
 27 39  1  0  0  0  0
 27 40  1  0  0  0  0
 41 42  1  0  0  0  0
 41 46  1  0  0  0  0
 42 43  1  0  0  0  0
 42 45  1  0  0  0  0
 42 47  1  0  0  0  0
 43 44  2  0  0  0  0
 43 51  1  0  0  0  0
 45 48  1  0  0  0  0
 45 49  1  0  0  0  0
 45 50  1  0  0  0  0
 51 52  1  0  0  0  0
 51 53  1  0  0  0  0
 52 54  1  0  0  0  0
 52 55  1  0  0  0  0
 52 56  1  0  0  0  0
M  CHG  1  24   1
M  END
$$$$

  -OEChem-02062319043D

 56 55  0     1  0  0  0  0  0999 V2000
   -0.5981   -3.0209   -1.7824 C   0  0  0  0  0  0  0  0  0  0  0  0
   -1.3358   -2.3504   -1.0688 O   0  0  0  0  0  0  0  0  0  0  0  0
   -1.1703   -3.7791   -2.9643 C   0  0  0  0  0  0  0  0  0  0  0  0
   -0.9474   -4.8447   -2.8659 H   0  0  0  0  0  0  0  0  0  0  0  0
   -2.2548   -3.6502   -3.0098 H   0  0  0  0  0  0  0  0  0  0  0  0
   -0.7318   -3.4084   -3.8941 H   0  0  0  0  0  0  0  0  0  0  0  0
    0.7589   -3.0625   -1.5384 N   0  0  0  0  0  0  0  0  0  0  0  0
    1.4244   -2.3751   -0.4232 C   0  0  2  0  0  0  0  0  0  0  0  0
    1.4947   -0.8456   -0.6265 C   0  0  0  0  0  0  0  0  0  0  0  0
    2.4575   -0.3169   -1.1661 O   0  0  0  0  0  0  0  0  0  0  0  0
    2.8168   -2.9927   -0.2488 C   0  0  0  0  0  0  0  0  0  0  0  0
    1.3396   -3.5604   -2.2086 H   0  0  0  0  0  0  0  0  0  0  0  0
    0.8669   -2.5562    0.5020 H   0  0  0  0  0  0  0  0  0  0  0  0
    3.4190   -2.8555   -1.1528 H   0  0  0  0  0  0  0  0  0  0  0  0
    3.3374   -2.5148    0.5880 H   0  0  0  0  0  0  0  0  0  0  0  0
    2.7380   -4.0639   -0.0396 H   0  0  0  0  0  0  0  0  0  0  0  0
    0.3713   -0.0909   -0.3329 N   0  0  0  0  0  0  0  0  0  0  0  0
    0.1832    1.3059   -0.7665 C   0  0  2  0  0  0  0  0  0  0  0  0
    1.2876    2.2259   -0.2131 C   0  0  0  0  0  0  0  0  0  0  0  0
    1.7362    3.1387   -0.8921 O   0  0  0  0  0  0  0  0  0  0  0  0
   -1.1932    1.8269   -0.3220 C   0  0  0  0  0  0  0  0  0  0  0  0
   -2.3398    0.9712   -0.8750 C   0  0  0  0  0  0  0  0  0  0  0  0
   -3.6813    1.6279   -0.5697 C   0  0  0  0  0  0  0  0  0  0  0  0
   -4.7658    0.7288   -1.0014 N   0  3  0  0  0  0  0  0  0  0  0  0
   -6.0234    1.0629   -1.0050 C   0  0  0  0  0  0  0  0  0  0  0  0
   -6.9680    0.1438   -1.3946 N   0  0  0  0  0  0  0  0  0  0  0  0
   -6.4402    2.3192   -0.6275 N   0  0  0  0  0  0  0  0  0  0  0  0
   -0.4627   -0.6569   -0.1703 H   0  0  0  0  0  0  0  0  0  0  0  0
    0.2478    1.3488   -1.8596 H   0  0  0  0  0  0  0  0  0  0  0  0
   -1.3041    2.8580   -0.6770 H   0  0  0  0  0  0  0  0  0  0  0  0
   -1.2442    1.8452    0.7723 H   0  0  0  0  0  0  0  0  0  0  0  0
   -2.2240    0.8493   -1.9577 H   0  0  0  0  0  0  0  0  0  0  0  0
   -2.3123   -0.0208   -0.4148 H   0  0  0  0  0  0  0  0  0  0  0  0
   -3.7551    1.8159    0.5074 H   0  0  0  0  0  0  0  0  0  0  0  0
   -3.7414    2.5864   -1.0969 H   0  0  0  0  0  0  0  0  0  0  0  0
   -4.4956   -0.2130   -1.2855 H   0  0  0  0  0  0  0  0  0  0  0  0
   -7.9461    0.3373   -1.1878 H   0  0  0  0  0  0  0  0  0  0  0  0
   -6.6869   -0.8292   -1.4996 H   0  0  0  0  0  0  0  0  0  0  0  0
   -7.3824    2.6166   -0.8722 H   0  0  0  0  0  0  0  0  0  0  0  0
   -5.7300    3.0364   -0.4945 H   0  0  0  0  0  0  0  0  0  0  0  0
    1.6476    2.0964    1.1132 N   0  0  0  0  0  0  0  0  0  0  0  0
    3.0263    2.3607    1.5344 C   0  0  2  0  0  0  0  0  0  0  0  0
    3.7411    1.0224    1.8252 C   0  0  0  0  0  0  0  0  0  0  0  0
    3.0825    0.0415    2.1667 O   0  0  0  0  0  0  0  0  0  0  0  0
    2.9846    3.2432    2.7825 C   0  0  0  0  0  0  0  0  0  0  0  0
    1.2624    1.2510    1.5330 H   0  0  0  0  0  0  0  0  0  0  0  0
    3.5844    2.8822    0.7490 H   0  0  0  0  0  0  0  0  0  0  0  0
    2.4562    2.7345    3.5954 H   0  0  0  0  0  0  0  0  0  0  0  0
    3.9992    3.4769    3.1188 H   0  0  0  0  0  0  0  0  0  0  0  0
    2.4671    4.1824    2.5630 H   0  0  0  0  0  0  0  0  0  0  0  0
    5.1138    0.9158    1.7093 N   0  0  0  0  0  0  0  0  0  0  0  0
    5.8301   -0.3441    1.8673 C   0  0  0  0  0  0  0  0  0  0  0  0
    5.6114    1.7139    1.3246 H   0  0  0  0  0  0  0  0  0  0  0  0
    5.6322   -0.7785    2.8531 H   0  0  0  0  0  0  0  0  0  0  0  0
    5.5209   -1.0592    1.0979 H   0  0  0  0  0  0  0  0  0  0  0  0
    6.9082   -0.1803    1.7745 H   0  0  0  0  0  0  0  0  0  0  0  0
  1  2  2  0  0  0  0
  1  3  1  0  0  0  0
  1  7  1  0  0  0  0
  3  4  1  0  0  0  0
  3  5  1  0  0  0  0
  3  6  1  0  0  0  0
  7  8  1  0  0  0  0
  7 12  1  0  0  0  0
  8  9  1  0  0  0  0
  8 11  1  0  0  0  0
  8 13  1  0  0  0  0
  9 10  2  0  0  0  0
  9 17  1  0  0  0  0
 11 14  1  0  0  0  0
 11 15  1  0  0  0  0
 11 16  1  0  0  0  0
 17 18  1  0  0  0  0
 17 28  1  0  0  0  0
 18 19  1  0  0  0  0
 18 21  1  0  0  0  0
 18 29  1  0  0  0  0
 19 20  2  0  0  0  0
 19 41  1  0  0  0  0
 21 22  1  0  0  0  0
 21 30  1  0  0  0  0
 21 31  1  0  0  0  0
 22 23  1  0  0  0  0
 22 32  1  0  0  0  0
 22 33  1  0  0  0  0
 23 24  1  0  0  0  0
 23 34  1  0  0  0  0
 23 35  1  0  0  0  0
 24 25  2  0  0  0  0
 24 36  1  0  0  0  0
 25 26  1  0  0  0  0
 25 27  1  0  0  0  0
 26 37  1  0  0  0  0
 26 38  1  0  0  0  0
 27 39  1  0  0  0  0
 27 40  1  0  0  0  0
 41 42  1  0  0  0  0
 41 46  1  0  0  0  0
 42 43  1  0  0  0  0
 42 45  1  0  0  0  0
 42 47  1  0  0  0  0
 43 44  2  0  0  0  0
 43 51  1  0  0  0  0
 45 48  1  0  0  0  0
 45 49  1  0  0  0  0
 45 50  1  0  0  0  0
 51 52  1  0  0  0  0
 51 53  1  0  0  0  0
 52 54  1  0  0  0  0
 52 55  1  0  0  0  0
 52 56  1  0  0  0  0
M  CHG  1  24   1
M  END
$$$$

  -OEChem-02062319043D

 56 55  0     1  0  0  0  0  0999 V2000
   -0.7419   -3.1196   -1.7642 C   0  0  0  0  0  0  0  0  0  0  0  0
   -1.4267   -2.4908   -0.9650 O   0  0  0  0  0  0  0  0  0  0  0  0
   -1.3920   -3.7987   -2.9543 C   0  0  0  0  0  0  0  0  0  0  0  0
   -1.1844   -4.8717   -2.9299 H   0  0  0  0  0  0  0  0  0  0  0  0
   -2.4748   -3.6500   -2.9326 H   0  0  0  0  0  0  0  0  0  0  0  0
   -0.9970   -3.3810   -3.8840 H   0  0  0  0  0  0  0  0  0  0  0  0
    0.6280   -3.1747   -1.6140 N   0  0  0  0  0  0  0  0  0  0  0  0
    1.3721   -2.5181   -0.5307 C   0  0  2  0  0  0  0  0  0  0  0  0
    1.4711   -0.9885   -0.7297 C   0  0  0  0  0  0  0  0  0  0  0  0
    2.3917   -0.5000   -1.3692 O   0  0  0  0  0  0  0  0  0  0  0  0
    2.7540   -3.1777   -0.4451 C   0  0  0  0  0  0  0  0  0  0  0  0
    1.1610   -3.6140   -2.3609 H   0  0  0  0  0  0  0  0  0  0  0  0
    0.8630   -2.6946    0.4228 H   0  0  0  0  0  0  0  0  0  0  0  0
    3.3049   -3.0515   -1.3830 H   0  0  0  0  0  0  0  0  0  0  0  0
    3.3400   -2.7235    0.3608 H   0  0  0  0  0  0  0  0  0  0  0  0
    2.6547   -4.2479   -0.2397 H   0  0  0  0  0  0  0  0  0  0  0  0
    0.3694   -0.2123   -0.4082 N   0  0  0  0  0  0  0  0  0  0  0  0
    0.0535    1.0609   -1.0856 C   0  0  2  0  0  0  0  0  0  0  0  0
    1.1633    2.1210   -0.9454 C   0  0  0  0  0  0  0  0  0  0  0  0
    1.3850    2.9004   -1.8622 O   0  0  0  0  0  0  0  0  0  0  0  0
   -1.2659    1.6390   -0.5451 C   0  0  0  0  0  0  0  0  0  0  0  0
   -2.4334    0.6580   -0.7059 C   0  0  0  0  0  0  0  0  0  0  0  0
   -3.7547    1.3394   -0.3705 C   0  0  0  0  0  0  0  0  0  0  0  0
   -4.8356    0.3424   -0.4626 N   0  3  0  0  0  0  0  0  0  0  0  0
   -6.0908    0.6149   -0.2559 C   0  0  0  0  0  0  0  0  0  0  0  0
   -7.0246   -0.3899   -0.3392 N   0  0  0  0  0  0  0  0  0  0  0  0
   -6.5157    1.8890    0.0447 N   0  0  0  0  0  0  0  0  0  0  0  0
   -0.4289   -0.7805   -0.1230 H   0  0  0  0  0  0  0  0  0  0  0  0
   -0.0562    0.8628   -2.1574 H   0  0  0  0  0  0  0  0  0  0  0  0
   -1.4881    2.5623   -1.0926 H   0  0  0  0  0  0  0  0  0  0  0  0
   -1.1487    1.9000    0.5128 H   0  0  0  0  0  0  0  0  0  0  0  0
   -2.4615    0.2833   -1.7351 H   0  0  0  0  0  0  0  0  0  0  0  0
   -2.2903   -0.1946   -0.0349 H   0  0  0  0  0  0  0  0  0  0  0  0
   -3.7029    1.7519    0.6437 H   0  0  0  0  0  0  0  0  0  0  0  0
   -3.9280    2.1605   -1.0750 H   0  0  0  0  0  0  0  0  0  0  0  0
   -4.5601   -0.6133   -0.6901 H   0  0  0  0  0  0  0  0  0  0  0  0
   -7.9541   -0.2180    0.0400 H   0  0  0  0  0  0  0  0  0  0  0  0
   -6.6987   -1.3537   -0.3807 H   0  0  0  0  0  0  0  0  0  0  0  0
   -7.5056    2.1082   -0.0451 H   0  0  0  0  0  0  0  0  0  0  0  0
   -5.8458    2.6490   -0.0551 H   0  0  0  0  0  0  0  0  0  0  0  0
    1.7454    2.3184    0.2899 N   0  0  0  0  0  0  0  0  0  0  0  0
    3.0689    2.9325    0.4322 C   0  0  2  0  0  0  0  0  0  0  0  0
    4.0283    1.9503    1.1383 C   0  0  0  0  0  0  0  0  0  0  0  0
    3.5708    1.0386    1.8233 O   0  0  0  0  0  0  0  0  0  0  0  0
    2.9169    4.2237    1.2383 C   0  0  0  0  0  0  0  0  0  0  0  0
    1.5810    1.5475    0.9377 H   0  0  0  0  0  0  0  0  0  0  0  0
    3.4949    3.1681   -0.5493 H   0  0  0  0  0  0  0  0  0  0  0  0
    2.5077    4.0107    2.2311 H   0  0  0  0  0  0  0  0  0  0  0  0
    3.8865    4.7161    1.3595 H   0  0  0  0  0  0  0  0  0  0  0  0
    2.2410    4.9124    0.7222 H   0  0  0  0  0  0  0  0  0  0  0  0
    5.3982    2.0916    1.0179 N   0  0  0  0  0  0  0  0  0  0  0  0
    6.3508    1.1603    1.6109 C   0  0  0  0  0  0  0  0  0  0  0  0
    5.7424    2.8067    0.3833 H   0  0  0  0  0  0  0  0  0  0  0  0
    6.1993    1.0920    2.6935 H   0  0  0  0  0  0  0  0  0  0  0  0
    6.2321    0.1630    1.1749 H   0  0  0  0  0  0  0  0  0  0  0  0
    7.3755    1.4985    1.4287 H   0  0  0  0  0  0  0  0  0  0  0  0
  1  2  2  0  0  0  0
  1  3  1  0  0  0  0
  1  7  1  0  0  0  0
  3  4  1  0  0  0  0
  3  5  1  0  0  0  0
  3  6  1  0  0  0  0
  7  8  1  0  0  0  0
  7 12  1  0  0  0  0
  8  9  1  0  0  0  0
  8 11  1  0  0  0  0
  8 13  1  0  0  0  0
  9 10  2  0  0  0  0
  9 17  1  0  0  0  0
 11 14  1  0  0  0  0
 11 15  1  0  0  0  0
 11 16  1  0  0  0  0
 17 18  1  0  0  0  0
 17 28  1  0  0  0  0
 18 19  1  0  0  0  0
 18 21  1  0  0  0  0
 18 29  1  0  0  0  0
 19 20  2  0  0  0  0
 19 41  1  0  0  0  0
 21 22  1  0  0  0  0
 21 30  1  0  0  0  0
 21 31  1  0  0  0  0
 22 23  1  0  0  0  0
 22 32  1  0  0  0  0
 22 33  1  0  0  0  0
 23 24  1  0  0  0  0
 23 34  1  0  0  0  0
 23 35  1  0  0  0  0
 24 25  2  0  0  0  0
 24 36  1  0  0  0  0
 25 26  1  0  0  0  0
 25 27  1  0  0  0  0
 26 37  1  0  0  0  0
 26 38  1  0  0  0  0
 27 39  1  0  0  0  0
 27 40  1  0  0  0  0
 41 42  1  0  0  0  0
 41 46  1  0  0  0  0
 42 43  1  0  0  0  0
 42 45  1  0  0  0  0
 42 47  1  0  0  0  0
 43 44  2  0  0  0  0
 43 51  1  0  0  0  0
 45 48  1  0  0  0  0
 45 49  1  0  0  0  0
 45 50  1  0  0  0  0
 51 52  1  0  0  0  0
 51 53  1  0  0  0  0
 52 54  1  0  0  0  0
 52 55  1  0  0  0  0
 52 56  1  0  0  0  0
M  CHG  1  24   1
M  END
$$$$

  -OEChem-02062319043D

 56 55  0     1  0  0  0  0  0999 V2000
   -0.8518   -3.2213   -1.5770 C   0  0  0  0  0  0  0  0  0  0  0  0
   -1.4518   -2.6282   -0.6878 O   0  0  0  0  0  0  0  0  0  0  0  0
   -1.6208   -3.8801   -2.7060 C   0  0  0  0  0  0  0  0  0  0  0  0
   -1.3345   -4.9318   -2.7882 H   0  0  0  0  0  0  0  0  0  0  0  0
   -2.6960   -3.8242   -2.5169 H   0  0  0  0  0  0  0  0  0  0  0  0
   -1.4015   -3.3774   -3.6515 H   0  0  0  0  0  0  0  0  0  0  0  0
    0.5268   -3.2519   -1.5803 N   0  0  0  0  0  0  0  0  0  0  0  0
    1.3744   -2.6246   -0.5567 C   0  0  2  0  0  0  0  0  0  0  0  0
    1.4980   -1.0951   -0.7497 C   0  0  0  0  0  0  0  0  0  0  0  0
    2.3880   -0.6339   -1.4490 O   0  0  0  0  0  0  0  0  0  0  0  0
    2.7380   -3.3260   -0.5889 C   0  0  0  0  0  0  0  0  0  0  0  0
    0.9825   -3.6620   -2.3925 H   0  0  0  0  0  0  0  0  0  0  0  0
    0.9415   -2.7960    0.4347 H   0  0  0  0  0  0  0  0  0  0  0  0
    3.2153   -3.2061   -1.5673 H   0  0  0  0  0  0  0  0  0  0  0  0
    3.4006   -2.8995    0.1712 H   0  0  0  0  0  0  0  0  0  0  0  0
    2.6226   -4.3949   -0.3852 H   0  0  0  0  0  0  0  0  0  0  0  0
    0.4096   -0.3027   -0.4200 N   0  0  0  0  0  0  0  0  0  0  0  0
   -0.0646    0.7945   -1.2884 C   0  0  2  0  0  0  0  0  0  0  0  0
    0.9770    1.9021   -1.5486 C   0  0  0  0  0  0  0  0  0  0  0  0
    0.9766    2.4901   -2.6221 O   0  0  0  0  0  0  0  0  0  0  0  0
   -1.3268    1.4348   -0.6817 C   0  0  0  0  0  0  0  0  0  0  0  0
   -2.4563    0.4147   -0.4918 C   0  0  0  0  0  0  0  0  0  0  0  0
   -3.7552    1.1096   -0.1004 C   0  0  0  0  0  0  0  0  0  0  0  0
   -4.7861    0.0809    0.1251 N   0  3  0  0  0  0  0  0  0  0  0  0
   -6.0101    0.3445    0.4793 C   0  0  0  0  0  0  0  0  0  0  0  0
   -6.8899   -0.6897    0.6930 N   0  0  0  0  0  0  0  0  0  0  0  0
   -6.4546    1.6363    0.6473 N   0  0  0  0  0  0  0  0  0  0  0  0
   -0.3341   -0.8585    0.0023 H   0  0  0  0  0  0  0  0  0  0  0  0
   -0.3158    0.3727   -2.2675 H   0  0  0  0  0  0  0  0  0  0  0  0
   -1.6681    2.2323   -1.3518 H   0  0  0  0  0  0  0  0  0  0  0  0
   -1.0796    1.8946    0.2818 H   0  0  0  0  0  0  0  0  0  0  0  0
   -2.6061   -0.1435   -1.4226 H   0  0  0  0  0  0  0  0  0  0  0  0
   -2.1806   -0.2954    0.2944 H   0  0  0  0  0  0  0  0  0  0  0  0
   -3.5941    1.6942    0.8123 H   0  0  0  0  0  0  0  0  0  0  0  0
   -4.0587    1.7901   -0.9036 H   0  0  0  0  0  0  0  0  0  0  0  0
   -4.4976   -0.8903    0.0033 H   0  0  0  0  0  0  0  0  0  0  0  0
   -7.7639   -0.4895    1.1758 H   0  0  0  0  0  0  0  0  0  0  0  0
   -6.5226   -1.6379    0.7478 H   0  0  0  0  0  0  0  0  0  0  0  0
   -7.4573    1.8078    0.6841 H   0  0  0  0  0  0  0  0  0  0  0  0
   -5.8498    2.3928    0.3337 H   0  0  0  0  0  0  0  0  0  0  0  0
    1.7220    2.3922   -0.4957 N   0  0  0  0  0  0  0  0  0  0  0  0
    2.9129    3.2256   -0.6862 C   0  0  2  0  0  0  0  0  0  0  0  0
    4.0633    2.7279    0.2135 C   0  0  0  0  0  0  0  0  0  0  0  0
    3.8170    2.0139    1.1816 O   0  0  0  0  0  0  0  0  0  0  0  0
    2.5503    4.6750   -0.3556 C   0  0  0  0  0  0  0  0  0  0  0  0
    1.7698    1.7656    0.3085 H   0  0  0  0  0  0  0  0  0  0  0  0
    3.2563    3.1640   -1.7247 H   0  0  0  0  0  0  0  0  0  0  0  0
    2.2181    4.7583    0.6841 H   0  0  0  0  0  0  0  0  0  0  0  0
    3.4157    5.3291   -0.4988 H   0  0  0  0  0  0  0  0  0  0  0  0
    1.7436    5.0206   -1.0095 H   0  0  0  0  0  0  0  0  0  0  0  0
    5.3716    3.0828   -0.0565 N   0  0  0  0  0  0  0  0  0  0  0  0
    6.5069    2.5933    0.7166 C   0  0  0  0  0  0  0  0  0  0  0  0
    5.5478    3.6176   -0.9021 H   0  0  0  0  0  0  0  0  0  0  0  0
    6.3764    2.8235    1.7794 H   0  0  0  0  0  0  0  0  0  0  0  0
    6.6092    1.5090    0.6010 H   0  0  0  0  0  0  0  0  0  0  0  0
    7.4316    3.0677    0.3742 H   0  0  0  0  0  0  0  0  0  0  0  0
  1  2  2  0  0  0  0
  1  3  1  0  0  0  0
  1  7  1  0  0  0  0
  3  4  1  0  0  0  0
  3  5  1  0  0  0  0
  3  6  1  0  0  0  0
  7  8  1  0  0  0  0
  7 12  1  0  0  0  0
  8  9  1  0  0  0  0
  8 11  1  0  0  0  0
  8 13  1  0  0  0  0
  9 10  2  0  0  0  0
  9 17  1  0  0  0  0
 11 14  1  0  0  0  0
 11 15  1  0  0  0  0
 11 16  1  0  0  0  0
 17 18  1  0  0  0  0
 17 28  1  0  0  0  0
 18 19  1  0  0  0  0
 18 21  1  0  0  0  0
 18 29  1  0  0  0  0
 19 20  2  0  0  0  0
 19 41  1  0  0  0  0
 21 22  1  0  0  0  0
 21 30  1  0  0  0  0
 21 31  1  0  0  0  0
 22 23  1  0  0  0  0
 22 32  1  0  0  0  0
 22 33  1  0  0  0  0
 23 24  1  0  0  0  0
 23 34  1  0  0  0  0
 23 35  1  0  0  0  0
 24 25  2  0  0  0  0
 24 36  1  0  0  0  0
 25 26  1  0  0  0  0
 25 27  1  0  0  0  0
 26 37  1  0  0  0  0
 26 38  1  0  0  0  0
 27 39  1  0  0  0  0
 27 40  1  0  0  0  0
 41 42  1  0  0  0  0
 41 46  1  0  0  0  0
 42 43  1  0  0  0  0
 42 45  1  0  0  0  0
 42 47  1  0  0  0  0
 43 44  2  0  0  0  0
 43 51  1  0  0  0  0
 45 48  1  0  0  0  0
 45 49  1  0  0  0  0
 45 50  1  0  0  0  0
 51 52  1  0  0  0  0
 51 53  1  0  0  0  0
 52 54  1  0  0  0  0
 52 55  1  0  0  0  0
 52 56  1  0  0  0  0
M  CHG  1  24   1
M  END
$$$$

  -OEChem-02062319043D

 56 55  0     1  0  0  0  0  0999 V2000
   -0.8274   -3.2701   -1.3761 C   0  0  0  0  0  0  0  0  0  0  0  0
   -1.3694   -2.7308   -0.4187 O   0  0  0  0  0  0  0  0  0  0  0  0
   -1.6660   -3.9089   -2.4660 C   0  0  0  0  0  0  0  0  0  0  0  0
   -1.3616   -4.9491   -2.6086 H   0  0  0  0  0  0  0  0  0  0  0  0
   -2.7244   -3.8881   -2.1932 H   0  0  0  0  0  0  0  0  0  0  0  0
   -1.5326   -3.3673   -3.4060 H   0  0  0  0  0  0  0  0  0  0  0  0
    0.5457   -3.2443   -1.4958 N   0  0  0  0  0  0  0  0  0  0  0  0
    1.4523   -2.6152   -0.5257 C   0  0  2  0  0  0  0  0  0  0  0  0
    1.5510   -1.0833   -0.7171 C   0  0  0  0  0  0  0  0  0  0  0  0
    2.4131   -0.6164   -1.4463 O   0  0  0  0  0  0  0  0  0  0  0  0
    2.8144   -3.3098   -0.6509 C   0  0  0  0  0  0  0  0  0  0  0  0
    0.9467   -3.6141   -2.3550 H   0  0  0  0  0  0  0  0  0  0  0  0
    1.0863   -2.7946    0.4910 H   0  0  0  0  0  0  0  0  0  0  0  0
    3.2253   -3.1825   -1.6578 H   0  0  0  0  0  0  0  0  0  0  0  0
    3.5240   -2.8845    0.0662 H   0  0  0  0  0  0  0  0  0  0  0  0
    2.7175   -4.3806   -0.4465 H   0  0  0  0  0  0  0  0  0  0  0  0
    0.4476   -0.3075   -0.3977 N   0  0  0  0  0  0  0  0  0  0  0  0
   -0.2155    0.5452   -1.4063 C   0  0  2  0  0  0  0  0  0  0  0  0
    0.6810    1.6303   -2.0382 C   0  0  0  0  0  0  0  0  0  0  0  0
    0.5021    1.9460   -3.2073 O   0  0  0  0  0  0  0  0  0  0  0  0
   -1.4368    1.2356   -0.7708 C   0  0  0  0  0  0  0  0  0  0  0  0
   -2.4787    0.2234   -0.2811 C   0  0  0  0  0  0  0  0  0  0  0  0
   -3.7366    0.9292    0.2102 C   0  0  0  0  0  0  0  0  0  0  0  0
   -4.6760   -0.0892    0.7123 N   0  3  0  0  0  0  0  0  0  0  0  0
   -5.8285    0.1883    1.2484 C   0  0  0  0  0  0  0  0  0  0  0  0
   -6.6237   -0.8340    1.7086 N   0  0  0  0  0  0  0  0  0  0  0  0
   -6.2784    1.4836    1.3676 N   0  0  0  0  0  0  0  0  0  0  0  0
   -0.2123   -0.8470    0.1609 H   0  0  0  0  0  0  0  0  0  0  0  0
   -0.5531   -0.0925   -2.2305 H   0  0  0  0  0  0  0  0  0  0  0  0
   -1.8974    1.8928   -1.5178 H   0  0  0  0  0  0  0  0  0  0  0  0
   -1.1077    1.8634    0.0651 H   0  0  0  0  0  0  0  0  0  0  0  0
   -2.7377   -0.4570   -1.0996 H   0  0  0  0  0  0  0  0  0  0  0  0
   -2.0595   -0.3682    0.5388 H   0  0  0  0  0  0  0  0  0  0  0  0
   -3.4713    1.6298    1.0097 H   0  0  0  0  0  0  0  0  0  0  0  0
   -4.1844    1.4921   -0.6164 H   0  0  0  0  0  0  0  0  0  0  0  0
   -4.3794   -1.0627    0.6364 H   0  0  0  0  0  0  0  0  0  0  0  0
   -7.4159   -0.6027    2.3052 H   0  0  0  0  0  0  0  0  0  0  0  0
   -6.2209   -1.7657    1.7907 H   0  0  0  0  0  0  0  0  0  0  0  0
   -7.2627    1.6441    1.5720 H   0  0  0  0  0  0  0  0  0  0  0  0
   -5.7641    2.2128    0.8775 H   0  0  0  0  0  0  0  0  0  0  0  0
    1.5038    2.3928   -1.2347 N   0  0  0  0  0  0  0  0  0  0  0  0
    2.5469    3.2757   -1.7658 C   0  0  2  0  0  0  0  0  0  0  0  0
    3.8032    3.2310   -0.8708 C   0  0  0  0  0  0  0  0  0  0  0  0
    3.7198    2.8183    0.2821 O   0  0  0  0  0  0  0  0  0  0  0  0
    1.9904    4.6994   -1.8485 C   0  0  0  0  0  0  0  0  0  0  0  0
    1.7145    1.9774   -0.3261 H   0  0  0  0  0  0  0  0  0  0  0  0
    2.8423    2.9413   -2.7660 H   0  0  0  0  0  0  0  0  0  0  0  0
    1.7000    5.0544   -0.8545 H   0  0  0  0  0  0  0  0  0  0  0  0
    2.7419    5.3821   -2.2564 H   0  0  0  0  0  0  0  0  0  0  0  0
    1.1113    4.7250   -2.5001 H   0  0  0  0  0  0  0  0  0  0  0  0
    5.0263    3.6592   -1.3525 N   0  0  0  0  0  0  0  0  0  0  0  0
    6.2589    3.5909   -0.5761 C   0  0  0  0  0  0  0  0  0  0  0  0
    5.0754    3.9404   -2.3275 H   0  0  0  0  0  0  0  0  0  0  0  0
    6.1460    4.1251    0.3732 H   0  0  0  0  0  0  0  0  0  0  0  0
    6.5206    2.5488   -0.3647 H   0  0  0  0  0  0  0  0  0  0  0  0
    7.0824    4.0496   -1.1319 H   0  0  0  0  0  0  0  0  0  0  0  0
  1  2  2  0  0  0  0
  1  3  1  0  0  0  0
  1  7  1  0  0  0  0
  3  4  1  0  0  0  0
  3  5  1  0  0  0  0
  3  6  1  0  0  0  0
  7  8  1  0  0  0  0
  7 12  1  0  0  0  0
  8  9  1  0  0  0  0
  8 11  1  0  0  0  0
  8 13  1  0  0  0  0
  9 10  2  0  0  0  0
  9 17  1  0  0  0  0
 11 14  1  0  0  0  0
 11 15  1  0  0  0  0
 11 16  1  0  0  0  0
 17 18  1  0  0  0  0
 17 28  1  0  0  0  0
 18 19  1  0  0  0  0
 18 21  1  0  0  0  0
 18 29  1  0  0  0  0
 19 20  2  0  0  0  0
 19 41  1  0  0  0  0
 21 22  1  0  0  0  0
 21 30  1  0  0  0  0
 21 31  1  0  0  0  0
 22 23  1  0  0  0  0
 22 32  1  0  0  0  0
 22 33  1  0  0  0  0
 23 24  1  0  0  0  0
 23 34  1  0  0  0  0
 23 35  1  0  0  0  0
 24 25  2  0  0  0  0
 24 36  1  0  0  0  0
 25 26  1  0  0  0  0
 25 27  1  0  0  0  0
 26 37  1  0  0  0  0
 26 38  1  0  0  0  0
 27 39  1  0  0  0  0
 27 40  1  0  0  0  0
 41 42  1  0  0  0  0
 41 46  1  0  0  0  0
 42 43  1  0  0  0  0
 42 45  1  0  0  0  0
 42 47  1  0  0  0  0
 43 44  2  0  0  0  0
 43 51  1  0  0  0  0
 45 48  1  0  0  0  0
 45 49  1  0  0  0  0
 45 50  1  0  0  0  0
 51 52  1  0  0  0  0
 51 53  1  0  0  0  0
 52 54  1  0  0  0  0
 52 55  1  0  0  0  0
 52 56  1  0  0  0  0
M  CHG  1  24   1
M  END
$$$$

  -OEChem-02062319043D

 56 55  0     1  0  0  0  0  0999 V2000
   -0.7359   -3.3132   -1.1776 C   0  0  0  0  0  0  0  0  0  0  0  0
   -1.2061   -2.8215   -0.1589 O   0  0  0  0  0  0  0  0  0  0  0  0
   -1.6432   -3.9852   -2.1894 C   0  0  0  0  0  0  0  0  0  0  0  0
   -1.2862   -4.9978   -2.3942 H   0  0  0  0  0  0  0  0  0  0  0  0
   -2.6643   -4.0447   -1.8035 H   0  0  0  0  0  0  0  0  0  0  0  0
   -1.6503   -3.4152   -3.1222 H   0  0  0  0  0  0  0  0  0  0  0  0
    0.6111   -3.1875   -1.4418 N   0  0  0  0  0  0  0  0  0  0  0  0
    1.5760   -2.5389   -0.5435 C   0  0  2  0  0  0  0  0  0  0  0  0
    1.6069   -0.9995   -0.7085 C   0  0  0  0  0  0  0  0  0  0  0  0
    2.4400   -0.4852   -1.4391 O   0  0  0  0  0  0  0  0  0  0  0  0
    2.9442   -3.1859   -0.7972 C   0  0  0  0  0  0  0  0  0  0  0  0
    0.9455   -3.5231   -2.3425 H   0  0  0  0  0  0  0  0  0  0  0  0
    1.3064   -2.7473    0.4974 H   0  0  0  0  0  0  0  0  0  0  0  0
    3.2659   -3.0230   -1.8310 H   0  0  0  0  0  0  0  0  0  0  0  0
    3.6976   -2.7533   -0.1310 H   0  0  0  0  0  0  0  0  0  0  0  0
    2.8983   -4.2636   -0.6123 H   0  0  0  0  0  0  0  0  0  0  0  0
    0.4757   -0.2643   -0.3898 N   0  0  0  0  0  0  0  0  0  0  0  0
   -0.3732    0.3000   -1.4598 C   0  0  2  0  0  0  0  0  0  0  0  0
    0.3346    1.2909   -2.4070 C   0  0  0  0  0  0  0  0  0  0  0  0
    0.0197    1.3088   -3.5898 O   0  0  0  0  0  0  0  0  0  0  0  0
   -1.5720    1.0246   -0.8192 C   0  0  0  0  0  0  0  0  0  0  0  0
   -2.4885    0.0645   -0.0515 C   0  0  0  0  0  0  0  0  0  0  0  0
   -3.6920    0.8086    0.5154 C   0  0  0  0  0  0  0  0  0  0  0  0
   -4.5336   -0.1466    1.2578 N   0  3  0  0  0  0  0  0  0  0  0  0
   -5.5563    0.2015    1.9829 C   0  0  0  0  0  0  0  0  0  0  0  0
   -6.2634   -0.7611    2.6629 N   0  0  0  0  0  0  0  0  0  0  0  0
   -5.9546    1.5145    2.0893 N   0  0  0  0  0  0  0  0  0  0  0  0
   -0.0782   -0.7744    0.2957 H   0  0  0  0  0  0  0  0  0  0  0  0
   -0.7415   -0.5167   -2.0888 H   0  0  0  0  0  0  0  0  0  0  0  0
   -2.1528    1.5148   -1.6096 H   0  0  0  0  0  0  0  0  0  0  0  0
   -1.2045    1.8066   -0.1452 H   0  0  0  0  0  0  0  0  0  0  0  0
   -2.8307   -0.7275   -0.7263 H   0  0  0  0  0  0  0  0  0  0  0  0
   -1.9362   -0.4003    0.7714 H   0  0  0  0  0  0  0  0  0  0  0  0
   -3.3422    1.6060    1.1807 H   0  0  0  0  0  0  0  0  0  0  0  0
   -4.2599    1.2604   -0.3054 H   0  0  0  0  0  0  0  0  0  0  0  0
   -4.2744   -1.1315    1.1958 H   0  0  0  0  0  0  0  0  0  0  0  0
   -6.9160   -0.4638    3.3859 H   0  0  0  0  0  0  0  0  0  0  0  0
   -5.8704   -1.6982    2.7316 H   0  0  0  0  0  0  0  0  0  0  0  0
   -6.8780    1.7173    2.4661 H   0  0  0  0  0  0  0  0  0  0  0  0
   -5.5365    2.1907    1.4535 H   0  0  0  0  0  0  0  0  0  0  0  0
    1.1564    2.2716   -1.8915 N   0  0  0  0  0  0  0  0  0  0  0  0
    2.0219    3.1165   -2.7198 C   0  0  2  0  0  0  0  0  0  0  0  0
    3.3214    3.4670   -1.9650 C   0  0  0  0  0  0  0  0  0  0  0  0
    3.3613    3.3830   -0.7414 O   0  0  0  0  0  0  0  0  0  0  0  0
    1.2602    4.3899   -3.0979 C   0  0  0  0  0  0  0  0  0  0  0  0
    1.5087    2.0836   -0.9513 H   0  0  0  0  0  0  0  0  0  0  0  0
    2.3022    2.5750   -3.6297 H   0  0  0  0  0  0  0  0  0  0  0  0
    0.9794    4.9481   -2.1989 H   0  0  0  0  0  0  0  0  0  0  0  0
    1.8805    5.0336   -3.7290 H   0  0  0  0  0  0  0  0  0  0  0  0
    0.3504    4.1377   -3.6516 H   0  0  0  0  0  0  0  0  0  0  0  0
    4.4458    3.8823   -2.6539 N   0  0  0  0  0  0  0  0  0  0  0  0
    5.7214    4.1591   -2.0037 C   0  0  0  0  0  0  0  0  0  0  0  0
    4.4022    3.8831   -3.6688 H   0  0  0  0  0  0  0  0  0  0  0  0
    5.6022    4.9279   -1.2328 H   0  0  0  0  0  0  0  0  0  0  0  0
    6.1170    3.2509   -1.5367 H   0  0  0  0  0  0  0  0  0  0  0  0
    6.4501    4.5180   -2.7370 H   0  0  0  0  0  0  0  0  0  0  0  0
  1  2  2  0  0  0  0
  1  3  1  0  0  0  0
  1  7  1  0  0  0  0
  3  4  1  0  0  0  0
  3  5  1  0  0  0  0
  3  6  1  0  0  0  0
  7  8  1  0  0  0  0
  7 12  1  0  0  0  0
  8  9  1  0  0  0  0
  8 11  1  0  0  0  0
  8 13  1  0  0  0  0
  9 10  2  0  0  0  0
  9 17  1  0  0  0  0
 11 14  1  0  0  0  0
 11 15  1  0  0  0  0
 11 16  1  0  0  0  0
 17 18  1  0  0  0  0
 17 28  1  0  0  0  0
 18 19  1  0  0  0  0
 18 21  1  0  0  0  0
 18 29  1  0  0  0  0
 19 20  2  0  0  0  0
 19 41  1  0  0  0  0
 21 22  1  0  0  0  0
 21 30  1  0  0  0  0
 21 31  1  0  0  0  0
 22 23  1  0  0  0  0
 22 32  1  0  0  0  0
 22 33  1  0  0  0  0
 23 24  1  0  0  0  0
 23 34  1  0  0  0  0
 23 35  1  0  0  0  0
 24 25  2  0  0  0  0
 24 36  1  0  0  0  0
 25 26  1  0  0  0  0
 25 27  1  0  0  0  0
 26 37  1  0  0  0  0
 26 38  1  0  0  0  0
 27 39  1  0  0  0  0
 27 40  1  0  0  0  0
 41 42  1  0  0  0  0
 41 46  1  0  0  0  0
 42 43  1  0  0  0  0
 42 45  1  0  0  0  0
 42 47  1  0  0  0  0
 43 44  2  0  0  0  0
 43 51  1  0  0  0  0
 45 48  1  0  0  0  0
 45 49  1  0  0  0  0
 45 50  1  0  0  0  0
 51 52  1  0  0  0  0
 51 53  1  0  0  0  0
 52 54  1  0  0  0  0
 52 55  1  0  0  0  0
 52 56  1  0  0  0  0
M  CHG  1  24   1
M  END
$$$$

  -OEChem-02062319043D

 56 55  0     1  0  0  0  0  0999 V2000
   -0.7829   -3.3799   -1.3274 C   0  0  0  0  0  0  0  0  0  0  0  0
   -1.3507   -3.0289   -0.3018 O   0  0  0  0  0  0  0  0  0  0  0  0
   -1.5663   -4.0757   -2.4238 C   0  0  0  0  0  0  0  0  0  0  0  0
   -1.0675   -5.0055   -2.7079 H   0  0  0  0  0  0  0  0  0  0  0  0
   -2.5762   -4.3120   -2.0768 H   0  0  0  0  0  0  0  0  0  0  0  0
   -1.6370   -3.4275   -3.3012 H   0  0  0  0  0  0  0  0  0  0  0  0
    0.5478   -3.0728   -1.5307 N   0  0  0  0  0  0  0  0  0  0  0  0
    1.4177   -2.4206   -0.5389 C   0  0  2  0  0  0  0  0  0  0  0  0
    1.4791   -0.8806   -0.7028 C   0  0  0  0  0  0  0  0  0  0  0  0
    2.5366   -0.2737   -0.7308 O   0  0  0  0  0  0  0  0  0  0  0  0
    2.7983   -3.0806   -0.6532 C   0  0  0  0  0  0  0  0  0  0  0  0
    0.9553   -3.3494   -2.4209 H   0  0  0  0  0  0  0  0  0  0  0  0
    1.0401   -2.6179    0.4701 H   0  0  0  0  0  0  0  0  0  0  0  0
    3.2399   -2.8841   -1.6355 H   0  0  0  0  0  0  0  0  0  0  0  0
    3.4739   -2.6870    0.1134 H   0  0  0  0  0  0  0  0  0  0  0  0
    2.7181   -4.1632   -0.5145 H   0  0  0  0  0  0  0  0  0  0  0  0
    0.4262   -0.0780   -0.3303 N   0  0  0  0  0  0  0  0  0  0  0  0
   -0.5973    0.2015   -1.3505 C   0  0  2  0  0  0  0  0  0  0  0  0
   -0.0523    0.9154   -2.6039 C   0  0  0  0  0  0  0  0  0  0  0  0
   -0.3877    0.5098   -3.7071 O   0  0  0  0  0  0  0  0  0  0  0  0
   -1.7485    0.9866   -0.7032 C   0  0  0  0  0  0  0  0  0  0  0  0
   -2.4930    0.0899    0.2967 C   0  0  0  0  0  0  0  0  0  0  0  0
   -3.6485    0.8297    0.9588 C   0  0  0  0  0  0  0  0  0  0  0  0
   -4.2977   -0.0962    1.9040 N   0  3  0  0  0  0  0  0  0  0  0  0
   -5.1852    0.2628    2.7844 C   0  0  0  0  0  0  0  0  0  0  0  0
   -5.7076   -0.6775    3.6398 N   0  0  0  0  0  0  0  0  0  0  0  0
   -5.6214    1.5641    2.8852 N   0  0  0  0  0  0  0  0  0  0  0  0
    0.8044    0.7649    0.0963 H   0  0  0  0  0  0  0  0  0  0  0  0
   -1.0088   -0.7442   -1.7108 H   0  0  0  0  0  0  0  0  0  0  0  0
   -2.4455    1.3168   -1.4818 H   0  0  0  0  0  0  0  0  0  0  0  0
   -1.3597    1.8794   -0.2016 H   0  0  0  0  0  0  0  0  0  0  0  0
   -2.8811   -0.7894   -0.2293 H   0  0  0  0  0  0  0  0  0  0  0  0
   -1.7980   -0.2605    1.0680 H   0  0  0  0  0  0  0  0  0  0  0  0
   -3.2643    1.7106    1.4848 H   0  0  0  0  0  0  0  0  0  0  0  0
   -4.3595    1.1589    0.1925 H   0  0  0  0  0  0  0  0  0  0  0  0
   -4.0088   -1.0738    1.8545 H   0  0  0  0  0  0  0  0  0  0  0  0
   -6.2242   -0.3571    4.4565 H   0  0  0  0  0  0  0  0  0  0  0  0
   -5.2674   -1.5948    3.6837 H   0  0  0  0  0  0  0  0  0  0  0  0
   -6.4703    1.7544    3.4135 H   0  0  0  0  0  0  0  0  0  0  0  0
   -5.3655    2.2093    2.1406 H   0  0  0  0  0  0  0  0  0  0  0  0
    0.8138    1.9836   -2.4903 N   0  0  0  0  0  0  0  0  0  0  0  0
    1.5498    2.5890   -3.6057 C   0  0  2  0  0  0  0  0  0  0  0  0
    2.7811    3.3520   -3.0736 C   0  0  0  0  0  0  0  0  0  0  0  0
    2.8289    3.6745   -1.8907 O   0  0  0  0  0  0  0  0  0  0  0  0
    0.6286    3.5452   -4.3719 C   0  0  0  0  0  0  0  0  0  0  0  0
    1.1946    2.1781   -1.5636 H   0  0  0  0  0  0  0  0  0  0  0  0
    1.9043    1.8025   -4.2805 H   0  0  0  0  0  0  0  0  0  0  0  0
    0.2584    4.3325   -3.7075 H   0  0  0  0  0  0  0  0  0  0  0  0
    1.1675    4.0144   -5.2006 H   0  0  0  0  0  0  0  0  0  0  0  0
   -0.2289    3.0050   -4.7845 H   0  0  0  0  0  0  0  0  0  0  0  0
    3.8320    3.6767   -3.9107 N   0  0  0  0  0  0  0  0  0  0  0  0
    5.0316    4.3669   -3.4504 C   0  0  0  0  0  0  0  0  0  0  0  0
    3.7818    3.3690   -4.8776 H   0  0  0  0  0  0  0  0  0  0  0  0
    4.7737    5.3466   -3.0343 H   0  0  0  0  0  0  0  0  0  0  0  0
    5.5395    3.7793   -2.6780 H   0  0  0  0  0  0  0  0  0  0  0  0
    5.7261    4.5177   -4.2826 H   0  0  0  0  0  0  0  0  0  0  0  0
  1  2  2  0  0  0  0
  1  3  1  0  0  0  0
  1  7  1  0  0  0  0
  3  4  1  0  0  0  0
  3  5  1  0  0  0  0
  3  6  1  0  0  0  0
  7  8  1  0  0  0  0
  7 12  1  0  0  0  0
  8  9  1  0  0  0  0
  8 11  1  0  0  0  0
  8 13  1  0  0  0  0
  9 10  2  0  0  0  0
  9 17  1  0  0  0  0
 11 14  1  0  0  0  0
 11 15  1  0  0  0  0
 11 16  1  0  0  0  0
 17 18  1  0  0  0  0
 17 28  1  0  0  0  0
 18 19  1  0  0  0  0
 18 21  1  0  0  0  0
 18 29  1  0  0  0  0
 19 20  2  0  0  0  0
 19 41  1  0  0  0  0
 21 22  1  0  0  0  0
 21 30  1  0  0  0  0
 21 31  1  0  0  0  0
 22 23  1  0  0  0  0
 22 32  1  0  0  0  0
 22 33  1  0  0  0  0
 23 24  1  0  0  0  0
 23 34  1  0  0  0  0
 23 35  1  0  0  0  0
 24 25  2  0  0  0  0
 24 36  1  0  0  0  0
 25 26  1  0  0  0  0
 25 27  1  0  0  0  0
 26 37  1  0  0  0  0
 26 38  1  0  0  0  0
 27 39  1  0  0  0  0
 27 40  1  0  0  0  0
 41 42  1  0  0  0  0
 41 46  1  0  0  0  0
 42 43  1  0  0  0  0
 42 45  1  0  0  0  0
 42 47  1  0  0  0  0
 43 44  2  0  0  0  0
 43 51  1  0  0  0  0
 45 48  1  0  0  0  0
 45 49  1  0  0  0  0
 45 50  1  0  0  0  0
 51 52  1  0  0  0  0
 51 53  1  0  0  0  0
 52 54  1  0  0  0  0
 52 55  1  0  0  0  0
 52 56  1  0  0  0  0
M  CHG  1  24   1
M  END
$$$$

  -OEChem-02062319043D

 56 55  0     1  0  0  0  0  0999 V2000
   -0.5682   -3.5620   -1.5879 C   0  0  0  0  0  0  0  0  0  0  0  0
   -1.2113   -3.4353   -0.5545 O   0  0  0  0  0  0  0  0  0  0  0  0
   -1.2099   -4.1844   -2.8124 C   0  0  0  0  0  0  0  0  0  0  0  0
   -0.6187   -5.0385   -3.1518 H   0  0  0  0  0  0  0  0  0  0  0  0
   -2.2206   -4.5282   -2.5766 H   0  0  0  0  0  0  0  0  0  0  0  0
   -1.2679   -3.4470   -3.6177 H   0  0  0  0  0  0  0  0  0  0  0  0
    0.7152   -3.0592   -1.6709 N   0  0  0  0  0  0  0  0  0  0  0  0
    1.4301   -2.3922   -0.5707 C   0  0  2  0  0  0  0  0  0  0  0  0
    1.4694   -0.8503   -0.7261 C   0  0  0  0  0  0  0  0  0  0  0  0
    2.5169   -0.2323   -0.8135 O   0  0  0  0  0  0  0  0  0  0  0  0
    2.8317   -3.0126   -0.5074 C   0  0  0  0  0  0  0  0  0  0  0  0
    1.1799   -3.1350   -2.5727 H   0  0  0  0  0  0  0  0  0  0  0  0
    0.9356   -2.6024    0.3833 H   0  0  0  0  0  0  0  0  0  0  0  0
    3.3847   -2.8152   -1.4313 H   0  0  0  0  0  0  0  0  0  0  0  0
    3.3966   -2.5903    0.3298 H   0  0  0  0  0  0  0  0  0  0  0  0
    2.7640   -4.0955   -0.3649 H   0  0  0  0  0  0  0  0  0  0  0  0
    0.4235   -0.0420   -0.3417 N   0  0  0  0  0  0  0  0  0  0  0  0
   -0.7725   -0.0198   -1.1981 C   0  0  2  0  0  0  0  0  0  0  0  0
   -0.4863    0.4539   -2.6373 C   0  0  0  0  0  0  0  0  0  0  0  0
   -0.9054   -0.2098   -3.5747 O   0  0  0  0  0  0  0  0  0  0  0  0
   -1.8558    0.8403   -0.5317 C   0  0  0  0  0  0  0  0  0  0  0  0
   -2.3634    0.1566    0.7471 C   0  0  0  0  0  0  0  0  0  0  0  0
   -3.5121    0.9473    1.3653 C   0  0  0  0  0  0  0  0  0  0  0  0
   -4.0013    0.2279    2.5555 N   0  3  0  0  0  0  0  0  0  0  0  0
   -4.7556    0.7633    3.4710 C   0  0  0  0  0  0  0  0  0  0  0  0
   -5.1531    0.0076    4.5480 N   0  0  0  0  0  0  0  0  0  0  0  0
   -5.1744    2.0721    3.3936 N   0  0  0  0  0  0  0  0  0  0  0  0
    0.7903    0.8782   -0.1080 H   0  0  0  0  0  0  0  0  0  0  0  0
   -1.1761   -1.0282   -1.2873 H   0  0  0  0  0  0  0  0  0  0  0  0
   -2.6918    0.9666   -1.2291 H   0  0  0  0  0  0  0  0  0  0  0  0
   -1.4593    1.8351   -0.3011 H   0  0  0  0  0  0  0  0  0  0  0  0
   -2.7048   -0.8566    0.5043 H   0  0  0  0  0  0  0  0  0  0  0  0
   -1.5467    0.0707    1.4723 H   0  0  0  0  0  0  0  0  0  0  0  0
   -3.1560    1.9464    1.6388 H   0  0  0  0  0  0  0  0  0  0  0  0
   -4.3177    1.0514    0.6298 H   0  0  0  0  0  0  0  0  0  0  0  0
   -3.7388   -0.7544    2.6373 H   0  0  0  0  0  0  0  0  0  0  0  0
   -5.5633    0.4824    5.3501 H   0  0  0  0  0  0  0  0  0  0  0  0
   -4.7052   -0.8936    4.7047 H   0  0  0  0  0  0  0  0  0  0  0  0
   -5.9412    2.3746    3.9911 H   0  0  0  0  0  0  0  0  0  0  0  0
   -5.0263    2.5665    2.5163 H   0  0  0  0  0  0  0  0  0  0  0  0
    0.3036    1.5611   -2.8714 N   0  0  0  0  0  0  0  0  0  0  0  0
    0.8089    1.9827   -4.1832 C   0  0  2  0  0  0  0  0  0  0  0  0
    2.0126    2.9327   -4.0033 C   0  0  0  0  0  0  0  0  0  0  0  0
    2.2021    3.4662   -2.9147 O   0  0  0  0  0  0  0  0  0  0  0  0
   -0.3079    2.6873   -4.9633 C   0  0  0  0  0  0  0  0  0  0  0  0
    0.7663    1.9873   -2.0676 H   0  0  0  0  0  0  0  0  0  0  0  0
    1.1492    1.1053   -4.7432 H   0  0  0  0  0  0  0  0  0  0  0  0
   -0.6632    3.5648   -4.4137 H   0  0  0  0  0  0  0  0  0  0  0  0
    0.0565    3.0143   -5.9418 H   0  0  0  0  0  0  0  0  0  0  0  0
   -1.1529    2.0101   -5.1226 H   0  0  0  0  0  0  0  0  0  0  0  0
    2.8816    3.1873   -5.0475 N   0  0  0  0  0  0  0  0  0  0  0  0
    4.0513    4.0489   -4.9171 C   0  0  0  0  0  0  0  0  0  0  0  0
    2.7172    2.7115   -5.9300 H   0  0  0  0  0  0  0  0  0  0  0  0
    3.7519    5.0611   -4.6253 H   0  0  0  0  0  0  0  0  0  0  0  0
    4.7364    3.6527   -4.1601 H   0  0  0  0  0  0  0  0  0  0  0  0
    4.5865    4.1093   -5.8696 H   0  0  0  0  0  0  0  0  0  0  0  0
  1  2  2  0  0  0  0
  1  3  1  0  0  0  0
  1  7  1  0  0  0  0
  3  4  1  0  0  0  0
  3  5  1  0  0  0  0
  3  6  1  0  0  0  0
  7  8  1  0  0  0  0
  7 12  1  0  0  0  0
  8  9  1  0  0  0  0
  8 11  1  0  0  0  0
  8 13  1  0  0  0  0
  9 10  2  0  0  0  0
  9 17  1  0  0  0  0
 11 14  1  0  0  0  0
 11 15  1  0  0  0  0
 11 16  1  0  0  0  0
 17 18  1  0  0  0  0
 17 28  1  0  0  0  0
 18 19  1  0  0  0  0
 18 21  1  0  0  0  0
 18 29  1  0  0  0  0
 19 20  2  0  0  0  0
 19 41  1  0  0  0  0
 21 22  1  0  0  0  0
 21 30  1  0  0  0  0
 21 31  1  0  0  0  0
 22 23  1  0  0  0  0
 22 32  1  0  0  0  0
 22 33  1  0  0  0  0
 23 24  1  0  0  0  0
 23 34  1  0  0  0  0
 23 35  1  0  0  0  0
 24 25  2  0  0  0  0
 24 36  1  0  0  0  0
 25 26  1  0  0  0  0
 25 27  1  0  0  0  0
 26 37  1  0  0  0  0
 26 38  1  0  0  0  0
 27 39  1  0  0  0  0
 27 40  1  0  0  0  0
 41 42  1  0  0  0  0
 41 46  1  0  0  0  0
 42 43  1  0  0  0  0
 42 45  1  0  0  0  0
 42 47  1  0  0  0  0
 43 44  2  0  0  0  0
 43 51  1  0  0  0  0
 45 48  1  0  0  0  0
 45 49  1  0  0  0  0
 45 50  1  0  0  0  0
 51 52  1  0  0  0  0
 51 53  1  0  0  0  0
 52 54  1  0  0  0  0
 52 55  1  0  0  0  0
 52 56  1  0  0  0  0
M  CHG  1  24   1
M  END
$$$$

  -OEChem-02062319043D

 56 55  0     1  0  0  0  0  0999 V2000
    1.2645   -4.7011   -2.7123 C   0  0  0  0  0  0  0  0  0  0  0  0
    0.1529   -5.1979   -2.6286 O   0  0  0  0  0  0  0  0  0  0  0  0
    2.3428   -5.3723   -3.5403 C   0  0  0  0  0  0  0  0  0  0  0  0
    3.1964   -5.6245   -2.9066 H   0  0  0  0  0  0  0  0  0  0  0  0
    1.9551   -6.2903   -3.9907 H   0  0  0  0  0  0  0  0  0  0  0  0
    2.6736   -4.7016   -4.3370 H   0  0  0  0  0  0  0  0  0  0  0  0
    1.5361   -3.5227   -2.0492 N   0  0  0  0  0  0  0  0  0  0  0  0
    0.5415   -2.7509   -1.2938 C   0  0  2  0  0  0  0  0  0  0  0  0
    0.8994   -1.2496   -1.2497 C   0  0  0  0  0  0  0  0  0  0  0  0
    2.0440   -0.8713   -1.4399 O   0  0  0  0  0  0  0  0  0  0  0  0
    0.4561   -3.3291    0.1226 C   0  0  0  0  0  0  0  0  0  0  0  0
    2.4531   -3.1002   -2.1897 H   0  0  0  0  0  0  0  0  0  0  0  0
   -0.4351   -2.8433   -1.7816 H   0  0  0  0  0  0  0  0  0  0  0  0
    1.4211   -3.2365    0.6312 H   0  0  0  0  0  0  0  0  0  0  0  0
   -0.3017   -2.8014    0.7086 H   0  0  0  0  0  0  0  0  0  0  0  0
    0.1830   -4.3886    0.0838 H   0  0  0  0  0  0  0  0  0  0  0  0
    0.1104   -0.3062   -0.6300 N   0  0  0  0  0  0  0  0  0  0  0  0
   -1.2758   -0.1111   -1.0821 C   0  0  2  0  0  0  0  0  0  0  0  0
   -1.3863    0.3123   -2.5612 C   0  0  0  0  0  0  0  0  0  0  0  0
   -2.2748   -0.1654   -3.2475 O   0  0  0  0  0  0  0  0  0  0  0  0
   -1.9594    0.9424   -0.1947 C   0  0  0  0  0  0  0  0  0  0  0  0
   -2.1206    0.4548    1.2523 C   0  0  0  0  0  0  0  0  0  0  0  0
   -2.8747    1.5026    2.0678 C   0  0  0  0  0  0  0  0  0  0  0  0
   -3.0630    1.0223    3.4490 N   0  3  0  0  0  0  0  0  0  0  0  0
   -3.8007    1.6327    4.3313 C   0  0  0  0  0  0  0  0  0  0  0  0
   -3.9091    1.1179    5.6011 N   0  0  0  0  0  0  0  0  0  0  0  0
   -4.4850    2.7885    4.0311 N   0  0  0  0  0  0  0  0  0  0  0  0
    0.6491    0.5438   -0.4739 H   0  0  0  0  0  0  0  0  0  0  0  0
   -1.8251   -1.0545   -0.9827 H   0  0  0  0  0  0  0  0  0  0  0  0
   -2.9507    1.1621   -0.6090 H   0  0  0  0  0  0  0  0  0  0  0  0
   -1.3788    1.8716   -0.2138 H   0  0  0  0  0  0  0  0  0  0  0  0
   -2.6757   -0.4898    1.2605 H   0  0  0  0  0  0  0  0  0  0  0  0
   -1.1367    0.2751    1.6991 H   0  0  0  0  0  0  0  0  0  0  0  0
   -2.3036    2.4381    2.0688 H   0  0  0  0  0  0  0  0  0  0  0  0
   -3.8462    1.6888    1.5966 H   0  0  0  0  0  0  0  0  0  0  0  0
   -2.5803    0.1638    3.7113 H   0  0  0  0  0  0  0  0  0  0  0  0
   -4.3156    1.7030    6.3290 H   0  0  0  0  0  0  0  0  0  0  0  0
   -3.2749    0.3738    5.8860 H   0  0  0  0  0  0  0  0  0  0  0  0
   -5.2199    3.1007    4.6628 H   0  0  0  0  0  0  0  0  0  0  0  0
   -4.5363    3.0750    3.0557 H   0  0  0  0  0  0  0  0  0  0  0  0
   -0.5634    1.2897   -3.0831 N   0  0  0  0  0  0  0  0  0  0  0  0
   -0.5584    1.7251   -4.4851 C   0  0  2  0  0  0  0  0  0  0  0  0
    0.7826    2.4067   -4.8300 C   0  0  0  0  0  0  0  0  0  0  0  0
    1.5253    2.7693   -3.9235 O   0  0  0  0  0  0  0  0  0  0  0  0
   -1.7205    2.6989   -4.7153 C   0  0  0  0  0  0  0  0  0  0  0  0
    0.2433    1.5784   -2.5283 H   0  0  0  0  0  0  0  0  0  0  0  0
   -0.6732    0.8553   -5.1409 H   0  0  0  0  0  0  0  0  0  0  0  0
   -1.6300    3.5642   -4.0512 H   0  0  0  0  0  0  0  0  0  0  0  0
   -1.7259    3.0540   -5.7503 H   0  0  0  0  0  0  0  0  0  0  0  0
   -2.6780    2.2068   -4.5185 H   0  0  0  0  0  0  0  0  0  0  0  0
    1.1571    2.6132   -6.1444 N   0  0  0  0  0  0  0  0  0  0  0  0
    2.4150    3.2447   -6.5267 C   0  0  0  0  0  0  0  0  0  0  0  0
    0.5301    2.2865   -6.8743 H   0  0  0  0  0  0  0  0  0  0  0  0
    2.4739    4.2594   -6.1191 H   0  0  0  0  0  0  0  0  0  0  0  0
    3.2653    2.6647   -6.1525 H   0  0  0  0  0  0  0  0  0  0  0  0
    2.4919    3.3062   -7.6165 H   0  0  0  0  0  0  0  0  0  0  0  0
  1  2  2  0  0  0  0
  1  3  1  0  0  0  0
  1  7  1  0  0  0  0
  3  4  1  0  0  0  0
  3  5  1  0  0  0  0
  3  6  1  0  0  0  0
  7  8  1  0  0  0  0
  7 12  1  0  0  0  0
  8  9  1  0  0  0  0
  8 11  1  0  0  0  0
  8 13  1  0  0  0  0
  9 10  2  0  0  0  0
  9 17  1  0  0  0  0
 11 14  1  0  0  0  0
 11 15  1  0  0  0  0
 11 16  1  0  0  0  0
 17 18  1  0  0  0  0
 17 28  1  0  0  0  0
 18 19  1  0  0  0  0
 18 21  1  0  0  0  0
 18 29  1  0  0  0  0
 19 20  2  0  0  0  0
 19 41  1  0  0  0  0
 21 22  1  0  0  0  0
 21 30  1  0  0  0  0
 21 31  1  0  0  0  0
 22 23  1  0  0  0  0
 22 32  1  0  0  0  0
 22 33  1  0  0  0  0
 23 24  1  0  0  0  0
 23 34  1  0  0  0  0
 23 35  1  0  0  0  0
 24 25  2  0  0  0  0
 24 36  1  0  0  0  0
 25 26  1  0  0  0  0
 25 27  1  0  0  0  0
 26 37  1  0  0  0  0
 26 38  1  0  0  0  0
 27 39  1  0  0  0  0
 27 40  1  0  0  0  0
 41 42  1  0  0  0  0
 41 46  1  0  0  0  0
 42 43  1  0  0  0  0
 42 45  1  0  0  0  0
 42 47  1  0  0  0  0
 43 44  2  0  0  0  0
 43 51  1  0  0  0  0
 45 48  1  0  0  0  0
 45 49  1  0  0  0  0
 45 50  1  0  0  0  0
 51 52  1  0  0  0  0
 51 53  1  0  0  0  0
 52 54  1  0  0  0  0
 52 55  1  0  0  0  0
 52 56  1  0  0  0  0
M  CHG  1  24   1
M  END
$$$$

  -OEChem-02062319043D

 56 55  0     1  0  0  0  0  0999 V2000
    1.4410   -4.5469   -2.7293 C   0  0  0  0  0  0  0  0  0  0  0  0
    0.3526   -5.0949   -2.6696 O   0  0  0  0  0  0  0  0  0  0  0  0
    2.5423   -5.1267   -3.5959 C   0  0  0  0  0  0  0  0  0  0  0  0
    3.3757   -5.4554   -2.9703 H   0  0  0  0  0  0  0  0  0  0  0  0
    2.1655   -5.9846   -4.1597 H   0  0  0  0  0  0  0  0  0  0  0  0
    2.8996   -4.3727   -4.3014 H   0  0  0  0  0  0  0  0  0  0  0  0
    1.6636   -3.3921   -2.0088 N   0  0  0  0  0  0  0  0  0  0  0  0
    0.6325   -2.6877   -1.2354 C   0  0  2  0  0  0  0  0  0  0  0  0
    0.9101   -1.1690   -1.1844 C   0  0  0  0  0  0  0  0  0  0  0  0
    2.0287   -0.7265   -1.3910 O   0  0  0  0  0  0  0  0  0  0  0  0
    0.5984   -3.2836    0.1755 C   0  0  0  0  0  0  0  0  0  0  0  0
    2.5542   -2.9151   -2.1469 H   0  0  0  0  0  0  0  0  0  0  0  0
   -0.3433   -2.8315   -1.7123 H   0  0  0  0  0  0  0  0  0  0  0  0
    1.5645   -3.1479    0.6719 H   0  0  0  0  0  0  0  0  0  0  0  0
   -0.1762   -2.8015    0.7783 H   0  0  0  0  0  0  0  0  0  0  0  0
    0.3793   -4.3553    0.1279 H   0  0  0  0  0  0  0  0  0  0  0  0
    0.0566   -0.2455   -0.6209 N   0  0  0  0  0  0  0  0  0  0  0  0
   -1.3918   -0.2853   -0.8755 C   0  0  2  0  0  0  0  0  0  0  0  0
   -1.7557   -0.1372   -2.3661 C   0  0  0  0  0  0  0  0  0  0  0  0
   -2.6580   -0.8196   -2.8229 O   0  0  0  0  0  0  0  0  0  0  0  0
   -2.0876    0.8229   -0.0667 C   0  0  0  0  0  0  0  0  0  0  0  0
   -1.9544    0.5996    1.4466 C   0  0  0  0  0  0  0  0  0  0  0  0
   -2.7253    1.6810    2.2017 C   0  0  0  0  0  0  0  0  0  0  0  0
   -2.6186    1.4483    3.6539 N   0  3  0  0  0  0  0  0  0  0  0  0
   -3.2319    2.1685    4.5490 C   0  0  0  0  0  0  0  0  0  0  0  0
   -3.0641    1.8794    5.8824 N   0  0  0  0  0  0  0  0  0  0  0  0
   -4.0522    3.2177    4.2006 N   0  0  0  0  0  0  0  0  0  0  0  0
    0.4946    0.6728   -0.5794 H   0  0  0  0  0  0  0  0  0  0  0  0
   -1.7895   -1.2524   -0.5474 H   0  0  0  0  0  0  0  0  0  0  0  0
   -3.1511    0.8374   -0.3332 H   0  0  0  0  0  0  0  0  0  0  0  0
   -1.6656    1.7969   -0.3377 H   0  0  0  0  0  0  0  0  0  0  0  0
   -2.3516   -0.3877    1.7067 H   0  0  0  0  0  0  0  0  0  0  0  0
   -0.8986    0.6288    1.7368 H   0  0  0  0  0  0  0  0  0  0  0  0
   -2.3115    2.6631    1.9458 H   0  0  0  0  0  0  0  0  0  0  0  0
   -3.7759    1.6539    1.8914 H   0  0  0  0  0  0  0  0  0  0  0  0
   -2.0300    0.6730    3.9567 H   0  0  0  0  0  0  0  0  0  0  0  0
   -3.3817    2.5582    6.5722 H   0  0  0  0  0  0  0  0  0  0  0  0
   -2.3283    1.2306    6.1555 H   0  0  0  0  0  0  0  0  0  0  0  0
   -4.6855    3.5983    4.9012 H   0  0  0  0  0  0  0  0  0  0  0  0
   -4.3015    3.3249    3.2196 H   0  0  0  0  0  0  0  0  0  0  0  0
   -1.1501    0.8195   -3.1550 N   0  0  0  0  0  0  0  0  0  0  0  0
   -1.3585    0.9493   -4.6025 C   0  0  2  0  0  0  0  0  0  0  0  0
   -0.1056    1.5428   -5.2786 C   0  0  0  0  0  0  0  0  0  0  0  0
    0.7517    2.0844   -4.5885 O   0  0  0  0  0  0  0  0  0  0  0  0
   -2.5774    1.8441   -4.8471 C   0  0  0  0  0  0  0  0  0  0  0  0
   -0.3089    1.2674   -2.7888 H   0  0  0  0  0  0  0  0  0  0  0  0
   -1.5372   -0.0380   -5.0425 H   0  0  0  0  0  0  0  0  0  0  0  0
   -2.4140    2.8384   -4.4196 H   0  0  0  0  0  0  0  0  0  0  0  0
   -2.7648    1.9524   -5.9195 H   0  0  0  0  0  0  0  0  0  0  0  0
   -3.4685    1.4073   -4.3855 H   0  0  0  0  0  0  0  0  0  0  0  0
    0.0711    1.4563   -6.6465 N   0  0  0  0  0  0  0  0  0  0  0  0
    1.2539    1.9649   -7.3318 C   0  0  0  0  0  0  0  0  0  0  0  0
   -0.6432    0.9778   -7.1883 H   0  0  0  0  0  0  0  0  0  0  0  0
    1.3610    3.0417   -7.1639 H   0  0  0  0  0  0  0  0  0  0  0  0
    2.1551    1.4604   -6.9673 H   0  0  0  0  0  0  0  0  0  0  0  0
    1.1724    1.7903   -8.4091 H   0  0  0  0  0  0  0  0  0  0  0  0
  1  2  2  0  0  0  0
  1  3  1  0  0  0  0
  1  7  1  0  0  0  0
  3  4  1  0  0  0  0
  3  5  1  0  0  0  0
  3  6  1  0  0  0  0
  7  8  1  0  0  0  0
  7 12  1  0  0  0  0
  8  9  1  0  0  0  0
  8 11  1  0  0  0  0
  8 13  1  0  0  0  0
  9 10  2  0  0  0  0
  9 17  1  0  0  0  0
 11 14  1  0  0  0  0
 11 15  1  0  0  0  0
 11 16  1  0  0  0  0
 17 18  1  0  0  0  0
 17 28  1  0  0  0  0
 18 19  1  0  0  0  0
 18 21  1  0  0  0  0
 18 29  1  0  0  0  0
 19 20  2  0  0  0  0
 19 41  1  0  0  0  0
 21 22  1  0  0  0  0
 21 30  1  0  0  0  0
 21 31  1  0  0  0  0
 22 23  1  0  0  0  0
 22 32  1  0  0  0  0
 22 33  1  0  0  0  0
 23 24  1  0  0  0  0
 23 34  1  0  0  0  0
 23 35  1  0  0  0  0
 24 25  2  0  0  0  0
 24 36  1  0  0  0  0
 25 26  1  0  0  0  0
 25 27  1  0  0  0  0
 26 37  1  0  0  0  0
 26 38  1  0  0  0  0
 27 39  1  0  0  0  0
 27 40  1  0  0  0  0
 41 42  1  0  0  0  0
 41 46  1  0  0  0  0
 42 43  1  0  0  0  0
 42 45  1  0  0  0  0
 42 47  1  0  0  0  0
 43 44  2  0  0  0  0
 43 51  1  0  0  0  0
 45 48  1  0  0  0  0
 45 49  1  0  0  0  0
 45 50  1  0  0  0  0
 51 52  1  0  0  0  0
 51 53  1  0  0  0  0
 52 54  1  0  0  0  0
 52 55  1  0  0  0  0
 52 56  1  0  0  0  0
M  CHG  1  24   1
M  END
$$$$

  -OEChem-02062319043D

 56 55  0     1  0  0  0  0  0999 V2000
    1.0298   -3.1736   -3.5836 C   0  0  0  0  0  0  0  0  0  0  0  0
   -0.0892   -2.7753   -3.8707 O   0  0  0  0  0  0  0  0  0  0  0  0
    2.0215   -3.4962   -4.6842 C   0  0  0  0  0  0  0  0  0  0  0  0
    2.3883   -4.5191   -4.5695 H   0  0  0  0  0  0  0  0  0  0  0  0
    1.5434   -3.4018   -5.6631 H   0  0  0  0  0  0  0  0  0  0  0  0
    2.8667   -2.8051   -4.6373 H   0  0  0  0  0  0  0  0  0  0  0  0
    1.4111   -3.2809   -2.2608 N   0  0  0  0  0  0  0  0  0  0  0  0
    0.6104   -2.7041   -1.1724 C   0  0  2  0  0  0  0  0  0  0  0  0
    0.7905   -1.1696   -1.0994 C   0  0  0  0  0  0  0  0  0  0  0  0
    1.8816   -0.6588   -1.2977 O   0  0  0  0  0  0  0  0  0  0  0  0
    1.0403   -3.3655    0.1378 C   0  0  0  0  0  0  0  0  0  0  0  0
    2.4096   -3.3864   -2.1014 H   0  0  0  0  0  0  0  0  0  0  0  0
   -0.4469   -2.9315   -1.3436 H   0  0  0  0  0  0  0  0  0  0  0  0
    2.0962   -3.1613    0.3438 H   0  0  0  0  0  0  0  0  0  0  0  0
    0.4426   -2.9838    0.9709 H   0  0  0  0  0  0  0  0  0  0  0  0
    0.8987   -4.4493    0.0796 H   0  0  0  0  0  0  0  0  0  0  0  0
   -0.1129   -0.2913   -0.5402 N   0  0  0  0  0  0  0  0  0  0  0  0
   -1.5643   -0.5277   -0.5058 C   0  0  2  0  0  0  0  0  0  0  0  0
   -2.1905   -0.6805   -1.9041 C   0  0  0  0  0  0  0  0  0  0  0  0
   -3.0548   -1.5288   -2.0607 O   0  0  0  0  0  0  0  0  0  0  0  0
   -2.2560    0.6386    0.2202 C   0  0  0  0  0  0  0  0  0  0  0  0
   -1.8275    0.7515    1.6897 C   0  0  0  0  0  0  0  0  0  0  0  0
   -2.6094    1.8795    2.3607 C   0  0  0  0  0  0  0  0  0  0  0  0
   -2.1797    2.0282    3.7628 N   0  3  0  0  0  0  0  0  0  0  0  0
   -2.6392    2.9471    4.5627 C   0  0  0  0  0  0  0  0  0  0  0  0
   -2.1669    3.0241    5.8512 N   0  0  0  0  0  0  0  0  0  0  0  0
   -3.5945    3.8510    4.1567 N   0  0  0  0  0  0  0  0  0  0  0  0
    0.2182    0.6700   -0.5822 H   0  0  0  0  0  0  0  0  0  0  0  0
   -1.7674   -1.4529    0.0445 H   0  0  0  0  0  0  0  0  0  0  0  0
   -3.3405    0.4838    0.1756 H   0  0  0  0  0  0  0  0  0  0  0  0
   -2.0352    1.5764   -0.3018 H   0  0  0  0  0  0  0  0  0  0  0  0
   -2.0235   -0.1956    2.2043 H   0  0  0  0  0  0  0  0  0  0  0  0
   -0.7533    0.9573    1.7516 H   0  0  0  0  0  0  0  0  0  0  0  0
   -2.4325    2.8126    1.8139 H   0  0  0  0  0  0  0  0  0  0  0  0
   -3.6797    1.6483    2.3162 H   0  0  0  0  0  0  0  0  0  0  0  0
   -1.4847    1.3674    4.1079 H   0  0  0  0  0  0  0  0  0  0  0  0
   -2.3791    3.8579    6.3965 H   0  0  0  0  0  0  0  0  0  0  0  0
   -1.3358    2.4912    6.1004 H   0  0  0  0  0  0  0  0  0  0  0  0
   -4.0935    4.3859    4.8647 H   0  0  0  0  0  0  0  0  0  0  0  0
   -4.0583    3.6866    3.2655 H   0  0  0  0  0  0  0  0  0  0  0  0
   -1.8596    0.1827   -2.9274 N   0  0  0  0  0  0  0  0  0  0  0  0
   -2.0626   -0.1702   -4.3367 C   0  0  2  0  0  0  0  0  0  0  0  0
   -0.7773    0.1245   -5.1353 C   0  0  0  0  0  0  0  0  0  0  0  0
   -0.0291    1.0228   -4.7590 O   0  0  0  0  0  0  0  0  0  0  0  0
   -3.2413    0.6382   -4.8807 C   0  0  0  0  0  0  0  0  0  0  0  0
   -1.0446    0.7730   -2.7615 H   0  0  0  0  0  0  0  0  0  0  0  0
   -2.2789   -1.2395   -4.4394 H   0  0  0  0  0  0  0  0  0  0  0  0
   -3.0401    1.7114   -4.8004 H   0  0  0  0  0  0  0  0  0  0  0  0
   -3.4169    0.3946   -5.9330 H   0  0  0  0  0  0  0  0  0  0  0  0
   -4.1496    0.4078   -4.3152 H   0  0  0  0  0  0  0  0  0  0  0  0
   -0.4536   -0.6170   -6.2550 N   0  0  0  0  0  0  0  0  0  0  0  0
    0.8092   -0.4574   -6.9646 C   0  0  0  0  0  0  0  0  0  0  0  0
   -0.9869   -1.4709   -6.3987 H   0  0  0  0  0  0  0  0  0  0  0  0
    0.9241    0.5731   -7.3169 H   0  0  0  0  0  0  0  0  0  0  0  0
    1.6503   -0.7005   -6.3074 H   0  0  0  0  0  0  0  0  0  0  0  0
    0.8418   -1.1221   -7.8330 H   0  0  0  0  0  0  0  0  0  0  0  0
  1  2  2  0  0  0  0
  1  3  1  0  0  0  0
  1  7  1  0  0  0  0
  3  4  1  0  0  0  0
  3  5  1  0  0  0  0
  3  6  1  0  0  0  0
  7  8  1  0  0  0  0
  7 12  1  0  0  0  0
  8  9  1  0  0  0  0
  8 11  1  0  0  0  0
  8 13  1  0  0  0  0
  9 10  2  0  0  0  0
  9 17  1  0  0  0  0
 11 14  1  0  0  0  0
 11 15  1  0  0  0  0
 11 16  1  0  0  0  0
 17 18  1  0  0  0  0
 17 28  1  0  0  0  0
 18 19  1  0  0  0  0
 18 21  1  0  0  0  0
 18 29  1  0  0  0  0
 19 20  2  0  0  0  0
 19 41  1  0  0  0  0
 21 22  1  0  0  0  0
 21 30  1  0  0  0  0
 21 31  1  0  0  0  0
 22 23  1  0  0  0  0
 22 32  1  0  0  0  0
 22 33  1  0  0  0  0
 23 24  1  0  0  0  0
 23 34  1  0  0  0  0
 23 35  1  0  0  0  0
 24 25  2  0  0  0  0
 24 36  1  0  0  0  0
 25 26  1  0  0  0  0
 25 27  1  0  0  0  0
 26 37  1  0  0  0  0
 26 38  1  0  0  0  0
 27 39  1  0  0  0  0
 27 40  1  0  0  0  0
 41 42  1  0  0  0  0
 41 46  1  0  0  0  0
 42 43  1  0  0  0  0
 42 45  1  0  0  0  0
 42 47  1  0  0  0  0
 43 44  2  0  0  0  0
 43 51  1  0  0  0  0
 45 48  1  0  0  0  0
 45 49  1  0  0  0  0
 45 50  1  0  0  0  0
 51 52  1  0  0  0  0
 51 53  1  0  0  0  0
 52 54  1  0  0  0  0
 52 55  1  0  0  0  0
 52 56  1  0  0  0  0
M  CHG  1  24   1
M  END
$$$$

  -OEChem-02062319043D

 56 55  0     1  0  0  0  0  0999 V2000
    0.9746   -3.4643   -3.4954 C   0  0  0  0  0  0  0  0  0  0  0  0
   -0.2286   -3.3964   -3.6951 O   0  0  0  0  0  0  0  0  0  0  0  0
    1.9119   -3.7765   -4.6457 C   0  0  0  0  0  0  0  0  0  0  0  0
    2.5207   -4.6510   -4.4048 H   0  0  0  0  0  0  0  0  0  0  0  0
    1.3389   -3.9869   -5.5528 H   0  0  0  0  0  0  0  0  0  0  0  0
    2.5684   -2.9234   -4.8332 H   0  0  0  0  0  0  0  0  0  0  0  0
    1.4908   -3.2209   -2.2387 N   0  0  0  0  0  0  0  0  0  0  0  0
    0.6962   -2.6543   -1.1395 C   0  0  2  0  0  0  0  0  0  0  0  0
    0.8104   -1.1112   -1.0992 C   0  0  0  0  0  0  0  0  0  0  0  0
    1.8479   -0.5500   -1.4148 O   0  0  0  0  0  0  0  0  0  0  0  0
    1.2060   -3.2647    0.1668 C   0  0  0  0  0  0  0  0  0  0  0  0
    2.4979   -3.0845   -2.1978 H   0  0  0  0  0  0  0  0  0  0  0  0
   -0.3543   -2.9359   -1.2574 H   0  0  0  0  0  0  0  0  0  0  0  0
    2.2566   -3.0033    0.3301 H   0  0  0  0  0  0  0  0  0  0  0  0
    0.6197   -2.8975    1.0145 H   0  0  0  0  0  0  0  0  0  0  0  0
    1.1184   -4.3554    0.1331 H   0  0  0  0  0  0  0  0  0  0  0  0
   -0.1300   -0.2483   -0.5745 N   0  0  0  0  0  0  0  0  0  0  0  0
   -1.5208   -0.5976   -0.2464 C   0  0  2  0  0  0  0  0  0  0  0  0
   -2.3224   -1.0925   -1.4642 C   0  0  0  0  0  0  0  0  0  0  0  0
   -3.0466   -2.0661   -1.3303 O   0  0  0  0  0  0  0  0  0  0  0  0
   -2.2287    0.6185    0.3740 C   0  0  0  0  0  0  0  0  0  0  0  0
   -1.6025    1.0241    1.7160 C   0  0  0  0  0  0  0  0  0  0  0  0
   -2.3928    2.1792    2.3276 C   0  0  0  0  0  0  0  0  0  0  0  0
   -1.7783    2.5833    3.6055 N   0  3  0  0  0  0  0  0  0  0  0  0
   -2.1985    3.5841    4.3245 C   0  0  0  0  0  0  0  0  0  0  0  0
   -1.5506    3.8955    5.4960 N   0  0  0  0  0  0  0  0  0  0  0  0
   -3.2817    4.3451    3.9471 N   0  0  0  0  0  0  0  0  0  0  0  0
    0.1169    0.7306   -0.7006 H   0  0  0  0  0  0  0  0  0  0  0  0
   -1.5198   -1.4115    0.4875 H   0  0  0  0  0  0  0  0  0  0  0  0
   -3.2840    0.3664    0.5330 H   0  0  0  0  0  0  0  0  0  0  0  0
   -2.1916    1.4616   -0.3248 H   0  0  0  0  0  0  0  0  0  0  0  0
   -1.6115    0.1670    2.3983 H   0  0  0  0  0  0  0  0  0  0  0  0
   -0.5610    1.3280    1.5652 H   0  0  0  0  0  0  0  0  0  0  0  0
   -2.3960    3.0219    1.6270 H   0  0  0  0  0  0  0  0  0  0  0  0
   -3.4277    1.8579    2.4905 H   0  0  0  0  0  0  0  0  0  0  0  0
   -0.9831    2.0350    3.9312 H   0  0  0  0  0  0  0  0  0  0  0  0
   -1.7518    4.7900    5.9395 H   0  0  0  0  0  0  0  0  0  0  0  0
   -0.6515    3.4589    5.6906 H   0  0  0  0  0  0  0  0  0  0  0  0
   -3.7163    4.9541    4.6378 H   0  0  0  0  0  0  0  0  0  0  0  0
   -3.8558    4.0086    3.1768 H   0  0  0  0  0  0  0  0  0  0  0  0
   -2.2462   -0.4296   -2.6711 N   0  0  0  0  0  0  0  0  0  0  0  0
   -2.5686   -1.0785   -3.9467 C   0  0  2  0  0  0  0  0  0  0  0  0
   -1.4842   -0.7420   -4.9908 C   0  0  0  0  0  0  0  0  0  0  0  0
   -0.8441    0.3002   -4.8773 O   0  0  0  0  0  0  0  0  0  0  0  0
   -3.9421   -0.5937   -4.4130 C   0  0  0  0  0  0  0  0  0  0  0  0
   -1.5284    0.2923   -2.7393 H   0  0  0  0  0  0  0  0  0  0  0  0
   -2.5914   -2.1676   -3.8290 H   0  0  0  0  0  0  0  0  0  0  0  0
   -3.9394    0.4925   -4.5475 H   0  0  0  0  0  0  0  0  0  0  0  0
   -4.2082   -1.0623   -5.3655 H   0  0  0  0  0  0  0  0  0  0  0  0
   -4.7053   -0.8544   -3.6733 H   0  0  0  0  0  0  0  0  0  0  0  0
   -1.2126   -1.6048   -6.0346 N   0  0  0  0  0  0  0  0  0  0  0  0
   -0.1194   -1.3823   -6.9724 C   0  0  0  0  0  0  0  0  0  0  0  0
   -1.5805   -2.5485   -5.9369 H   0  0  0  0  0  0  0  0  0  0  0  0
   -0.2500   -0.4282   -7.4939 H   0  0  0  0  0  0  0  0  0  0  0  0
    0.8404   -1.3669   -6.4457 H   0  0  0  0  0  0  0  0  0  0  0  0
   -0.0938   -2.1809   -7.7200 H   0  0  0  0  0  0  0  0  0  0  0  0
  1  2  2  0  0  0  0
  1  3  1  0  0  0  0
  1  7  1  0  0  0  0
  3  4  1  0  0  0  0
  3  5  1  0  0  0  0
  3  6  1  0  0  0  0
  7  8  1  0  0  0  0
  7 12  1  0  0  0  0
  8  9  1  0  0  0  0
  8 11  1  0  0  0  0
  8 13  1  0  0  0  0
  9 10  2  0  0  0  0
  9 17  1  0  0  0  0
 11 14  1  0  0  0  0
 11 15  1  0  0  0  0
 11 16  1  0  0  0  0
 17 18  1  0  0  0  0
 17 28  1  0  0  0  0
 18 19  1  0  0  0  0
 18 21  1  0  0  0  0
 18 29  1  0  0  0  0
 19 20  2  0  0  0  0
 19 41  1  0  0  0  0
 21 22  1  0  0  0  0
 21 30  1  0  0  0  0
 21 31  1  0  0  0  0
 22 23  1  0  0  0  0
 22 32  1  0  0  0  0
 22 33  1  0  0  0  0
 23 24  1  0  0  0  0
 23 34  1  0  0  0  0
 23 35  1  0  0  0  0
 24 25  2  0  0  0  0
 24 36  1  0  0  0  0
 25 26  1  0  0  0  0
 25 27  1  0  0  0  0
 26 37  1  0  0  0  0
 26 38  1  0  0  0  0
 27 39  1  0  0  0  0
 27 40  1  0  0  0  0
 41 42  1  0  0  0  0
 41 46  1  0  0  0  0
 42 43  1  0  0  0  0
 42 45  1  0  0  0  0
 42 47  1  0  0  0  0
 43 44  2  0  0  0  0
 43 51  1  0  0  0  0
 45 48  1  0  0  0  0
 45 49  1  0  0  0  0
 45 50  1  0  0  0  0
 51 52  1  0  0  0  0
 51 53  1  0  0  0  0
 52 54  1  0  0  0  0
 52 55  1  0  0  0  0
 52 56  1  0  0  0  0
M  CHG  1  24   1
M  END
$$$$

  -OEChem-02062319043D

 56 55  0     1  0  0  0  0  0999 V2000
    0.9638   -3.7242   -3.3171 C   0  0  0  0  0  0  0  0  0  0  0  0
   -0.2430   -3.9115   -3.3450 O   0  0  0  0  0  0  0  0  0  0  0  0
    1.7932   -3.9703   -4.5627 C   0  0  0  0  0  0  0  0  0  0  0  0
    2.5752   -4.7040   -4.3524 H   0  0  0  0  0  0  0  0  0  0  0  0
    1.1606   -4.3530   -5.3681 H   0  0  0  0  0  0  0  0  0  0  0  0
    2.2565   -3.0371   -4.8928 H   0  0  0  0  0  0  0  0  0  0  0  0
    1.5770   -3.2593   -2.1710 N   0  0  0  0  0  0  0  0  0  0  0  0
    0.8443   -2.7180   -1.0172 C   0  0  2  0  0  0  0  0  0  0  0  0
    0.9362   -1.1730   -0.9835 C   0  0  0  0  0  0  0  0  0  0  0  0
    1.9432   -0.6004   -1.3706 O   0  0  0  0  0  0  0  0  0  0  0  0
    1.4532   -3.3197    0.2503 C   0  0  0  0  0  0  0  0  0  0  0  0
    2.5399   -2.9494   -2.2854 H   0  0  0  0  0  0  0  0  0  0  0  0
   -0.2039   -3.0208   -1.0619 H   0  0  0  0  0  0  0  0  0  0  0  0
    2.5076   -3.0395    0.3434 H   0  0  0  0  0  0  0  0  0  0  0  0
    0.9180   -2.9651    1.1361 H   0  0  0  0  0  0  0  0  0  0  0  0
    1.3840   -4.4118    0.2197 H   0  0  0  0  0  0  0  0  0  0  0  0
   -0.0253   -0.3000   -0.5158 N   0  0  0  0  0  0  0  0  0  0  0  0
   -1.3395   -0.6438    0.0487 C   0  0  2  0  0  0  0  0  0  0  0  0
   -2.2409   -1.4172   -0.9312 C   0  0  0  0  0  0  0  0  0  0  0  0
   -2.8653   -2.3825   -0.5208 O   0  0  0  0  0  0  0  0  0  0  0  0
   -2.0594    0.6421    0.4899 C   0  0  0  0  0  0  0  0  0  0  0  0
   -1.3410    1.3413    1.6537 C   0  0  0  0  0  0  0  0  0  0  0  0
   -2.1434    2.5673    2.0867 C   0  0  0  0  0  0  0  0  0  0  0  0
   -1.4759    3.2390    3.2171 N   0  3  0  0  0  0  0  0  0  0  0  0
   -1.9961    4.2385    3.8699 C   0  0  0  0  0  0  0  0  0  0  0  0
   -1.2989    4.8090    4.9080 N   0  0  0  0  0  0  0  0  0  0  0  0
   -3.2357    4.7462    3.5528 N   0  0  0  0  0  0  0  0  0  0  0  0
    0.2146    0.6777   -0.6589 H   0  0  0  0  0  0  0  0  0  0  0  0
   -1.1944   -1.2857    0.9251 H   0  0  0  0  0  0  0  0  0  0  0  0
   -3.0769    0.3833    0.8056 H   0  0  0  0  0  0  0  0  0  0  0  0
   -2.1420    1.3267   -0.3620 H   0  0  0  0  0  0  0  0  0  0  0  0
   -1.2428    0.6460    2.4947 H   0  0  0  0  0  0  0  0  0  0  0  0
   -0.3349    1.6462    1.3464 H   0  0  0  0  0  0  0  0  0  0  0  0
   -2.2311    3.2567    1.2389 H   0  0  0  0  0  0  0  0  0  0  0  0
   -3.1497    2.2477    2.3801 H   0  0  0  0  0  0  0  0  0  0  0  0
   -0.5573    2.8904    3.4887 H   0  0  0  0  0  0  0  0  0  0  0  0
   -1.6179    5.7046    5.2737 H   0  0  0  0  0  0  0  0  0  0  0  0
   -0.3191    4.5630    5.0357 H   0  0  0  0  0  0  0  0  0  0  0  0
   -3.7012    5.3570    4.2212 H   0  0  0  0  0  0  0  0  0  0  0  0
   -3.8130    4.2251    2.8962 H   0  0  0  0  0  0  0  0  0  0  0  0
   -2.3536   -1.0098   -2.2435 N   0  0  0  0  0  0  0  0  0  0  0  0
   -2.8380   -1.8863   -3.3160 C   0  0  2  0  0  0  0  0  0  0  0  0
   -2.0384   -1.6322   -4.6114 C   0  0  0  0  0  0  0  0  0  0  0  0
   -1.4104   -0.5837   -4.7377 O   0  0  0  0  0  0  0  0  0  0  0  0
   -4.3289   -1.6218   -3.5368 C   0  0  0  0  0  0  0  0  0  0  0  0
   -1.7003   -0.2873   -2.5482 H   0  0  0  0  0  0  0  0  0  0  0  0
   -2.6947   -2.9368   -3.0390 H   0  0  0  0  0  0  0  0  0  0  0  0
   -4.4944   -0.5802   -3.8299 H   0  0  0  0  0  0  0  0  0  0  0  0
   -4.7196   -2.2725   -4.3250 H   0  0  0  0  0  0  0  0  0  0  0  0
   -4.8883   -1.8212   -2.6175 H   0  0  0  0  0  0  0  0  0  0  0  0
   -2.0169   -2.5705   -5.6251 N   0  0  0  0  0  0  0  0  0  0  0  0
   -1.1960   -2.4223   -6.8198 C   0  0  0  0  0  0  0  0  0  0  0  0
   -2.3585   -3.4980   -5.3856 H   0  0  0  0  0  0  0  0  0  0  0  0
   -1.4572   -1.5016   -7.3520 H   0  0  0  0  0  0  0  0  0  0  0  0
   -0.1347   -2.3859   -6.5537 H   0  0  0  0  0  0  0  0  0  0  0  0
   -1.3570   -3.2671   -7.4967 H   0  0  0  0  0  0  0  0  0  0  0  0
  1  2  2  0  0  0  0
  1  3  1  0  0  0  0
  1  7  1  0  0  0  0
  3  4  1  0  0  0  0
  3  5  1  0  0  0  0
  3  6  1  0  0  0  0
  7  8  1  0  0  0  0
  7 12  1  0  0  0  0
  8  9  1  0  0  0  0
  8 11  1  0  0  0  0
  8 13  1  0  0  0  0
  9 10  2  0  0  0  0
  9 17  1  0  0  0  0
 11 14  1  0  0  0  0
 11 15  1  0  0  0  0
 11 16  1  0  0  0  0
 17 18  1  0  0  0  0
 17 28  1  0  0  0  0
 18 19  1  0  0  0  0
 18 21  1  0  0  0  0
 18 29  1  0  0  0  0
 19 20  2  0  0  0  0
 19 41  1  0  0  0  0
 21 22  1  0  0  0  0
 21 30  1  0  0  0  0
 21 31  1  0  0  0  0
 22 23  1  0  0  0  0
 22 32  1  0  0  0  0
 22 33  1  0  0  0  0
 23 24  1  0  0  0  0
 23 34  1  0  0  0  0
 23 35  1  0  0  0  0
 24 25  2  0  0  0  0
 24 36  1  0  0  0  0
 25 26  1  0  0  0  0
 25 27  1  0  0  0  0
 26 37  1  0  0  0  0
 26 38  1  0  0  0  0
 27 39  1  0  0  0  0
 27 40  1  0  0  0  0
 41 42  1  0  0  0  0
 41 46  1  0  0  0  0
 42 43  1  0  0  0  0
 42 45  1  0  0  0  0
 42 47  1  0  0  0  0
 43 44  2  0  0  0  0
 43 51  1  0  0  0  0
 45 48  1  0  0  0  0
 45 49  1  0  0  0  0
 45 50  1  0  0  0  0
 51 52  1  0  0  0  0
 51 53  1  0  0  0  0
 52 54  1  0  0  0  0
 52 55  1  0  0  0  0
 52 56  1  0  0  0  0
M  CHG  1  24   1
M  END
$$$$

  -OEChem-02062319043D

 56 55  0     1  0  0  0  0  0999 V2000
    0.9837   -4.0245   -3.1778 C   0  0  0  0  0  0  0  0  0  0  0  0
   -0.1416   -4.4752   -3.0186 O   0  0  0  0  0  0  0  0  0  0  0  0
    1.7347   -4.3124   -4.4634 C   0  0  0  0  0  0  0  0  0  0  0  0
    2.6858   -4.8011   -4.2385 H   0  0  0  0  0  0  0  0  0  0  0  0
    1.1450   -4.9709   -5.1071 H   0  0  0  0  0  0  0  0  0  0  0  0
    1.9295   -3.3795   -4.9979 H   0  0  0  0  0  0  0  0  0  0  0  0
    1.5698   -3.2327   -2.2107 N   0  0  0  0  0  0  0  0  0  0  0  0
    0.8603   -2.6899   -1.0433 C   0  0  2  0  0  0  0  0  0  0  0  0
    0.9155   -1.1411   -1.0250 C   0  0  0  0  0  0  0  0  0  0  0  0
    1.8624   -0.5509   -1.5230 O   0  0  0  0  0  0  0  0  0  0  0  0
    1.5146   -3.2657    0.2134 C   0  0  0  0  0  0  0  0  0  0  0  0
    2.4339   -2.7641   -2.4782 H   0  0  0  0  0  0  0  0  0  0  0  0
   -0.1799   -3.0127   -1.0649 H   0  0  0  0  0  0  0  0  0  0  0  0
    2.5639   -2.9601    0.2760 H   0  0  0  0  0  0  0  0  0  0  0  0
    0.9940   -2.9178    1.1104 H   0  0  0  0  0  0  0  0  0  0  0  0
    1.4711   -4.3594    0.1935 H   0  0  0  0  0  0  0  0  0  0  0  0
   -0.0530   -0.2744   -0.5543 N   0  0  0  0  0  0  0  0  0  0  0  0
   -1.2074   -0.6019    0.2995 C   0  0  2  0  0  0  0  0  0  0  0  0
   -2.1626   -1.6274   -0.3362 C   0  0  0  0  0  0  0  0  0  0  0  0
   -2.4992   -2.6065    0.3098 O   0  0  0  0  0  0  0  0  0  0  0  0
   -1.9873    0.6860    0.6149 C   0  0  0  0  0  0  0  0  0  0  0  0
   -1.1835    1.6461    1.5039 C   0  0  0  0  0  0  0  0  0  0  0  0
   -2.0360    2.8677    1.8438 C   0  0  0  0  0  0  0  0  0  0  0  0
   -1.2814    3.7812    2.7221 N   0  3  0  0  0  0  0  0  0  0  0  0
   -1.8001    4.8361    3.2826 C   0  0  0  0  0  0  0  0  0  0  0  0
   -1.0183    5.6342    4.0834 N   0  0  0  0  0  0  0  0  0  0  0  0
   -3.1202    5.1808    3.1005 N   0  0  0  0  0  0  0  0  0  0  0  0
    0.1862    0.7026   -0.7022 H   0  0  0  0  0  0  0  0  0  0  0  0
   -0.8464   -1.0378    1.2377 H   0  0  0  0  0  0  0  0  0  0  0  0
   -2.9157    0.4168    1.1322 H   0  0  0  0  0  0  0  0  0  0  0  0
   -2.2634    1.1869   -0.3202 H   0  0  0  0  0  0  0  0  0  0  0  0
   -0.8905    1.1311    2.4257 H   0  0  0  0  0  0  0  0  0  0  0  0
   -0.2720    1.9650    0.9874 H   0  0  0  0  0  0  0  0  0  0  0  0
   -2.3144    3.3816    0.9166 H   0  0  0  0  0  0  0  0  0  0  0  0
   -2.9517    2.5343    2.3445 H   0  0  0  0  0  0  0  0  0  0  0  0
   -0.3012    3.5585    2.8916 H   0  0  0  0  0  0  0  0  0  0  0  0
   -1.3710    6.5529    4.3463 H   0  0  0  0  0  0  0  0  0  0  0  0
   -0.0100    5.4926    4.0845 H   0  0  0  0  0  0  0  0  0  0  0  0
   -3.5414    5.8593    3.7320 H   0  0  0  0  0  0  0  0  0  0  0  0
   -3.7313    4.5097    2.6399 H   0  0  0  0  0  0  0  0  0  0  0  0
   -2.5313   -1.4923   -1.6579 N   0  0  0  0  0  0  0  0  0  0  0  0
   -2.9608   -2.6152   -2.4993 C   0  0  2  0  0  0  0  0  0  0  0  0
   -2.4662   -2.4038   -3.9463 C   0  0  0  0  0  0  0  0  0  0  0  0
   -2.1475   -1.2756   -4.3146 O   0  0  0  0  0  0  0  0  0  0  0  0
   -4.4876   -2.7164   -2.4589 C   0  0  0  0  0  0  0  0  0  0  0  0
   -2.1010   -0.7200   -2.1687 H   0  0  0  0  0  0  0  0  0  0  0  0
   -2.5259   -3.5512   -2.1311 H   0  0  0  0  0  0  0  0  0  0  0  0
   -4.9429   -1.7939   -2.8329 H   0  0  0  0  0  0  0  0  0  0  0  0
   -4.8317   -3.5507   -3.0784 H   0  0  0  0  0  0  0  0  0  0  0  0
   -4.8296   -2.8852   -1.4330 H   0  0  0  0  0  0  0  0  0  0  0  0
   -2.3501   -3.4673   -4.8193 N   0  0  0  0  0  0  0  0  0  0  0  0
   -1.7719   -3.3275   -6.1496 C   0  0  0  0  0  0  0  0  0  0  0  0
   -2.3392   -4.3902   -4.3887 H   0  0  0  0  0  0  0  0  0  0  0  0
   -2.3460   -2.6077   -6.7426 H   0  0  0  0  0  0  0  0  0  0  0  0
   -0.7352   -2.9817   -6.0833 H   0  0  0  0  0  0  0  0  0  0  0  0
   -1.7853   -4.2899   -6.6704 H   0  0  0  0  0  0  0  0  0  0  0  0
  1  2  2  0  0  0  0
  1  3  1  0  0  0  0
  1  7  1  0  0  0  0
  3  4  1  0  0  0  0
  3  5  1  0  0  0  0
  3  6  1  0  0  0  0
  7  8  1  0  0  0  0
  7 12  1  0  0  0  0
  8  9  1  0  0  0  0
  8 11  1  0  0  0  0
  8 13  1  0  0  0  0
  9 10  2  0  0  0  0
  9 17  1  0  0  0  0
 11 14  1  0  0  0  0
 11 15  1  0  0  0  0
 11 16  1  0  0  0  0
 17 18  1  0  0  0  0
 17 28  1  0  0  0  0
 18 19  1  0  0  0  0
 18 21  1  0  0  0  0
 18 29  1  0  0  0  0
 19 20  2  0  0  0  0
 19 41  1  0  0  0  0
 21 22  1  0  0  0  0
 21 30  1  0  0  0  0
 21 31  1  0  0  0  0
 22 23  1  0  0  0  0
 22 32  1  0  0  0  0
 22 33  1  0  0  0  0
 23 24  1  0  0  0  0
 23 34  1  0  0  0  0
 23 35  1  0  0  0  0
 24 25  2  0  0  0  0
 24 36  1  0  0  0  0
 25 26  1  0  0  0  0
 25 27  1  0  0  0  0
 26 37  1  0  0  0  0
 26 38  1  0  0  0  0
 27 39  1  0  0  0  0
 27 40  1  0  0  0  0
 41 42  1  0  0  0  0
 41 46  1  0  0  0  0
 42 43  1  0  0  0  0
 42 45  1  0  0  0  0
 42 47  1  0  0  0  0
 43 44  2  0  0  0  0
 43 51  1  0  0  0  0
 45 48  1  0  0  0  0
 45 49  1  0  0  0  0
 45 50  1  0  0  0  0
 51 52  1  0  0  0  0
 51 53  1  0  0  0  0
 52 54  1  0  0  0  0
 52 55  1  0  0  0  0
 52 56  1  0  0  0  0
M  CHG  1  24   1
M  END
$$$$

  -OEChem-02062319043D

 56 55  0     1  0  0  0  0  0999 V2000
    1.1061   -4.2358   -2.9999 C   0  0  0  0  0  0  0  0  0  0  0  0
    0.1141   -4.8508   -2.6330 O   0  0  0  0  0  0  0  0  0  0  0  0
    1.7809   -4.6009   -4.3078 C   0  0  0  0  0  0  0  0  0  0  0  0
    2.8201   -4.8860   -4.1255 H   0  0  0  0  0  0  0  0  0  0  0  0
    1.2629   -5.4413   -4.7784 H   0  0  0  0  0  0  0  0  0  0  0  0
    1.7588   -3.7470   -4.9894 H   0  0  0  0  0  0  0  0  0  0  0  0
    1.5972   -3.1898   -2.2449 N   0  0  0  0  0  0  0  0  0  0  0  0
    0.9130   -2.6313   -1.0717 C   0  0  2  0  0  0  0  0  0  0  0  0
    0.9420   -1.0824   -1.0634 C   0  0  0  0  0  0  0  0  0  0  0  0
    1.8130   -0.4811   -1.6744 O   0  0  0  0  0  0  0  0  0  0  0  0
    1.5831   -3.1913    0.1840 C   0  0  0  0  0  0  0  0  0  0  0  0
    2.3437   -2.6313   -2.6565 H   0  0  0  0  0  0  0  0  0  0  0  0
   -0.1233   -2.9585   -1.0856 H   0  0  0  0  0  0  0  0  0  0  0  0
    2.6314   -2.8803    0.2330 H   0  0  0  0  0  0  0  0  0  0  0  0
    1.0696   -2.8389    1.0833 H   0  0  0  0  0  0  0  0  0  0  0  0
    1.5433   -4.2852    0.1743 H   0  0  0  0  0  0  0  0  0  0  0  0
   -0.0409   -0.2315   -0.5904 N   0  0  0  0  0  0  0  0  0  0  0  0
   -0.9902   -0.5145    0.5027 C   0  0  2  0  0  0  0  0  0  0  0  0
   -1.8965   -1.7319    0.2398 C   0  0  0  0  0  0  0  0  0  0  0  0
   -1.9464   -2.6313    1.0627 O   0  0  0  0  0  0  0  0  0  0  0  0
   -1.8707    0.7249    0.7404 C   0  0  0  0  0  0  0  0  0  0  0  0
   -1.0660    1.9132    1.2887 C   0  0  0  0  0  0  0  0  0  0  0  0
   -2.0026    3.0895    1.5603 C   0  0  0  0  0  0  0  0  0  0  0  0
   -1.2446    4.2115    2.1438 N   0  3  0  0  0  0  0  0  0  0  0  0
   -1.8001    5.2989    2.5959 C   0  0  0  0  0  0  0  0  0  0  0  0
   -1.0131    6.2971    3.1183 N   0  0  0  0  0  0  0  0  0  0  0  0
   -3.1639    5.4833    2.5705 N   0  0  0  0  0  0  0  0  0  0  0  0
    0.1702    0.7402   -0.7997 H   0  0  0  0  0  0  0  0  0  0  0  0
   -0.4257   -0.7300    1.4170 H   0  0  0  0  0  0  0  0  0  0  0  0
   -2.6550    0.4661    1.4613 H   0  0  0  0  0  0  0  0  0  0  0  0
   -2.3642    1.0088   -0.1961 H   0  0  0  0  0  0  0  0  0  0  0  0
   -0.5651    1.6172    2.2172 H   0  0  0  0  0  0  0  0  0  0  0  0
   -0.2972    2.2144    0.5692 H   0  0  0  0  0  0  0  0  0  0  0  0
   -2.4720    3.4016    0.6203 H   0  0  0  0  0  0  0  0  0  0  0  0
   -2.7892    2.7669    2.2510 H   0  0  0  0  0  0  0  0  0  0  0  0
   -0.2310    4.1136    2.1903 H   0  0  0  0  0  0  0  0  0  0  0  0
   -1.4297    7.2130    3.2757 H   0  0  0  0  0  0  0  0  0  0  0  0
   -0.0045    6.2476    2.9880 H   0  0  0  0  0  0  0  0  0  0  0  0
   -3.5690    6.2281    3.1342 H   0  0  0  0  0  0  0  0  0  0  0  0
   -3.7516    4.6867    2.3341 H   0  0  0  0  0  0  0  0  0  0  0  0
   -2.4923   -1.8761   -0.9965 N   0  0  0  0  0  0  0  0  0  0  0  0
   -2.9036   -3.1614   -1.5749 C   0  0  2  0  0  0  0  0  0  0  0  0
   -2.7333   -3.1159   -3.1090 C   0  0  0  0  0  0  0  0  0  0  0  0
   -2.7266   -2.0271   -3.6779 O   0  0  0  0  0  0  0  0  0  0  0  0
   -4.3619   -3.4376   -1.2010 C   0  0  0  0  0  0  0  0  0  0  0  0
   -2.2992   -1.1426   -1.6801 H   0  0  0  0  0  0  0  0  0  0  0  0
   -2.2729   -3.9705   -1.1898 H   0  0  0  0  0  0  0  0  0  0  0  0
   -5.0130   -2.6443   -1.5822 H   0  0  0  0  0  0  0  0  0  0  0  0
   -4.6898   -4.3914   -1.6259 H   0  0  0  0  0  0  0  0  0  0  0  0
   -4.4721   -3.4884   -0.1132 H   0  0  0  0  0  0  0  0  0  0  0  0
   -2.5461   -4.2721   -3.8401 N   0  0  0  0  0  0  0  0  0  0  0  0
   -2.2596   -4.2538   -5.2690 C   0  0  0  0  0  0  0  0  0  0  0  0
   -2.2235   -5.0786   -3.3065 H   0  0  0  0  0  0  0  0  0  0  0  0
   -3.0514   -3.7286   -5.8137 H   0  0  0  0  0  0  0  0  0  0  0  0
   -1.3059   -3.7521   -5.4623 H   0  0  0  0  0  0  0  0  0  0  0  0
   -2.1995   -5.2763   -5.6543 H   0  0  0  0  0  0  0  0  0  0  0  0
  1  2  2  0  0  0  0
  1  3  1  0  0  0  0
  1  7  1  0  0  0  0
  3  4  1  0  0  0  0
  3  5  1  0  0  0  0
  3  6  1  0  0  0  0
  7  8  1  0  0  0  0
  7 12  1  0  0  0  0
  8  9  1  0  0  0  0
  8 11  1  0  0  0  0
  8 13  1  0  0  0  0
  9 10  2  0  0  0  0
  9 17  1  0  0  0  0
 11 14  1  0  0  0  0
 11 15  1  0  0  0  0
 11 16  1  0  0  0  0
 17 18  1  0  0  0  0
 17 28  1  0  0  0  0
 18 19  1  0  0  0  0
 18 21  1  0  0  0  0
 18 29  1  0  0  0  0
 19 20  2  0  0  0  0
 19 41  1  0  0  0  0
 21 22  1  0  0  0  0
 21 30  1  0  0  0  0
 21 31  1  0  0  0  0
 22 23  1  0  0  0  0
 22 32  1  0  0  0  0
 22 33  1  0  0  0  0
 23 24  1  0  0  0  0
 23 34  1  0  0  0  0
 23 35  1  0  0  0  0
 24 25  2  0  0  0  0
 24 36  1  0  0  0  0
 25 26  1  0  0  0  0
 25 27  1  0  0  0  0
 26 37  1  0  0  0  0
 26 38  1  0  0  0  0
 27 39  1  0  0  0  0
 27 40  1  0  0  0  0
 41 42  1  0  0  0  0
 41 46  1  0  0  0  0
 42 43  1  0  0  0  0
 42 45  1  0  0  0  0
 42 47  1  0  0  0  0
 43 44  2  0  0  0  0
 43 51  1  0  0  0  0
 45 48  1  0  0  0  0
 45 49  1  0  0  0  0
 45 50  1  0  0  0  0
 51 52  1  0  0  0  0
 51 53  1  0  0  0  0
 52 54  1  0  0  0  0
 52 55  1  0  0  0  0
 52 56  1  0  0  0  0
M  CHG  1  24   1
M  END
$$$$

  -OEChem-02062319043D

 56 55  0     1  0  0  0  0  0999 V2000
    1.2646   -4.2671   -2.9084 C   0  0  0  0  0  0  0  0  0  0  0  0
    0.4278   -4.9825   -2.3754 O   0  0  0  0  0  0  0  0  0  0  0  0
    1.8844   -4.6781   -4.2301 C   0  0  0  0  0  0  0  0  0  0  0  0
    2.9603   -4.8245   -4.1081 H   0  0  0  0  0  0  0  0  0  0  0  0
    1.4391   -5.6135   -4.5806 H   0  0  0  0  0  0  0  0  0  0  0  0
    1.7114   -3.9038   -4.9813 H   0  0  0  0  0  0  0  0  0  0  0  0
    1.6419   -3.0824   -2.3086 N   0  0  0  0  0  0  0  0  0  0  0  0
    1.0066   -2.5408   -1.1014 C   0  0  2  0  0  0  0  0  0  0  0  0
    1.0035   -0.9937   -1.0697 C   0  0  0  0  0  0  0  0  0  0  0  0
    1.8066   -0.3688   -1.7467 O   0  0  0  0  0  0  0  0  0  0  0  0
    1.7422   -3.0992    0.1202 C   0  0  0  0  0  0  0  0  0  0  0  0
    2.2760   -2.4718   -2.8222 H   0  0  0  0  0  0  0  0  0  0  0  0
   -0.0243   -2.8816   -1.0839 H   0  0  0  0  0  0  0  0  0  0  0  0
    2.7953   -2.8016    0.1030 H   0  0  0  0  0  0  0  0  0  0  0  0
    1.2915   -2.7322    1.0468 H   0  0  0  0  0  0  0  0  0  0  0  0
    1.6893   -4.1925    0.1253 H   0  0  0  0  0  0  0  0  0  0  0  0
   -0.0066   -0.1723   -0.6023 N   0  0  0  0  0  0  0  0  0  0  0  0
   -0.7501   -0.3742    0.6568 C   0  0  2  0  0  0  0  0  0  0  0  0
   -1.5243   -1.7045    0.7432 C   0  0  0  0  0  0  0  0  0  0  0  0
   -1.3727   -2.4295    1.7127 O   0  0  0  0  0  0  0  0  0  0  0  0
   -1.7353    0.7923    0.8484 C   0  0  0  0  0  0  0  0  0  0  0  0
   -1.0148    2.1322    1.0631 C   0  0  0  0  0  0  0  0  0  0  0  0
   -2.0395    3.2340    1.3281 C   0  0  0  0  0  0  0  0  0  0  0  0
   -1.3495    4.5177    1.5546 N   0  3  0  0  0  0  0  0  0  0  0  0
   -1.9654    5.6258    1.8524 C   0  0  0  0  0  0  0  0  0  0  0  0
   -1.2386    6.7770    2.0414 N   0  0  0  0  0  0  0  0  0  0  0  0
   -3.3338    5.6819    1.9892 N   0  0  0  0  0  0  0  0  0  0  0  0
    0.1596    0.7891   -0.8862 H   0  0  0  0  0  0  0  0  0  0  0  0
   -0.0365   -0.3745    1.4890 H   0  0  0  0  0  0  0  0  0  0  0  0
   -2.3624    0.5835    1.7233 H   0  0  0  0  0  0  0  0  0  0  0  0
   -2.3960    0.8602   -0.0234 H   0  0  0  0  0  0  0  0  0  0  0  0
   -0.3330    2.0481    1.9168 H   0  0  0  0  0  0  0  0  0  0  0  0
   -0.4225    2.3883    0.1784 H   0  0  0  0  0  0  0  0  0  0  0  0
   -2.7118    3.3147    0.4662 H   0  0  0  0  0  0  0  0  0  0  0  0
   -2.6334    2.9650    2.2087 H   0  0  0  0  0  0  0  0  0  0  0  0
   -0.3328    4.5184    1.4797 H   0  0  0  0  0  0  0  0  0  0  0  0
   -1.7358    7.6649    2.0831 H   0  0  0  0  0  0  0  0  0  0  0  0
   -0.2591    6.7913    1.7631 H   0  0  0  0  0  0  0  0  0  0  0  0
   -3.7505    6.4962    2.4363 H   0  0  0  0  0  0  0  0  0  0  0  0
   -3.8498    4.8047    2.0107 H   0  0  0  0  0  0  0  0  0  0  0  0
   -2.2747   -2.1262   -0.3353 N   0  0  0  0  0  0  0  0  0  0  0  0
   -2.6409   -3.5234   -0.6013 C   0  0  2  0  0  0  0  0  0  0  0  0
   -2.7244   -3.7552   -2.1269 C   0  0  0  0  0  0  0  0  0  0  0  0
   -2.7864   -2.7827   -2.8759 O   0  0  0  0  0  0  0  0  0  0  0  0
   -3.9818   -3.8273    0.0714 C   0  0  0  0  0  0  0  0  0  0  0  0
   -2.2569   -1.5255   -1.1617 H   0  0  0  0  0  0  0  0  0  0  0  0
   -1.8740   -4.1973   -0.2024 H   0  0  0  0  0  0  0  0  0  0  0  0
   -4.7646   -3.1700   -0.3202 H   0  0  0  0  0  0  0  0  0  0  0  0
   -4.2747   -4.8658   -0.1114 H   0  0  0  0  0  0  0  0  0  0  0  0
   -3.9068   -3.6769    1.1529 H   0  0  0  0  0  0  0  0  0  0  0  0
   -2.7020   -5.0298   -2.6581 N   0  0  0  0  0  0  0  0  0  0  0  0
   -2.6272   -5.2749   -4.0933 C   0  0  0  0  0  0  0  0  0  0  0  0
   -2.3850   -5.7691   -2.0359 H   0  0  0  0  0  0  0  0  0  0  0  0
   -3.4843   -4.8244   -4.6051 H   0  0  0  0  0  0  0  0  0  0  0  0
   -1.7062   -4.8511   -4.5073 H   0  0  0  0  0  0  0  0  0  0  0  0
   -2.6353   -6.3507   -4.2933 H   0  0  0  0  0  0  0  0  0  0  0  0
  1  2  2  0  0  0  0
  1  3  1  0  0  0  0
  1  7  1  0  0  0  0
  3  4  1  0  0  0  0
  3  5  1  0  0  0  0
  3  6  1  0  0  0  0
  7  8  1  0  0  0  0
  7 12  1  0  0  0  0
  8  9  1  0  0  0  0
  8 11  1  0  0  0  0
  8 13  1  0  0  0  0
  9 10  2  0  0  0  0
  9 17  1  0  0  0  0
 11 14  1  0  0  0  0
 11 15  1  0  0  0  0
 11 16  1  0  0  0  0
 17 18  1  0  0  0  0
 17 28  1  0  0  0  0
 18 19  1  0  0  0  0
 18 21  1  0  0  0  0
 18 29  1  0  0  0  0
 19 20  2  0  0  0  0
 19 41  1  0  0  0  0
 21 22  1  0  0  0  0
 21 30  1  0  0  0  0
 21 31  1  0  0  0  0
 22 23  1  0  0  0  0
 22 32  1  0  0  0  0
 22 33  1  0  0  0  0
 23 24  1  0  0  0  0
 23 34  1  0  0  0  0
 23 35  1  0  0  0  0
 24 25  2  0  0  0  0
 24 36  1  0  0  0  0
 25 26  1  0  0  0  0
 25 27  1  0  0  0  0
 26 37  1  0  0  0  0
 26 38  1  0  0  0  0
 27 39  1  0  0  0  0
 27 40  1  0  0  0  0
 41 42  1  0  0  0  0
 41 46  1  0  0  0  0
 42 43  1  0  0  0  0
 42 45  1  0  0  0  0
 42 47  1  0  0  0  0
 43 44  2  0  0  0  0
 43 51  1  0  0  0  0
 45 48  1  0  0  0  0
 45 49  1  0  0  0  0
 45 50  1  0  0  0  0
 51 52  1  0  0  0  0
 51 53  1  0  0  0  0
 52 54  1  0  0  0  0
 52 55  1  0  0  0  0
 52 56  1  0  0  0  0
M  CHG  1  24   1
M  END
$$$$

  -OEChem-02062319043D

 56 55  0     1  0  0  0  0  0999 V2000
    1.3533   -4.2480   -2.8893 C   0  0  0  0  0  0  0  0  0  0  0  0
    0.6540   -5.0174   -2.2468 O   0  0  0  0  0  0  0  0  0  0  0  0
    1.8939   -4.6607   -4.2442 C   0  0  0  0  0  0  0  0  0  0  0  0
    2.9804   -4.7651   -4.1953 H   0  0  0  0  0  0  0  0  0  0  0  0
    1.4606   -5.6181   -4.5466 H   0  0  0  0  0  0  0  0  0  0  0  0
    1.6393   -3.9074   -4.9936 H   0  0  0  0  0  0  0  0  0  0  0  0
    1.6543   -3.0021   -2.3783 N   0  0  0  0  0  0  0  0  0  0  0  0
    1.0906   -2.4732   -1.1309 C   0  0  2  0  0  0  0  0  0  0  0  0
    1.0580   -0.9269   -1.0981 C   0  0  0  0  0  0  0  0  0  0  0  0
    1.7936   -0.2920   -1.8400 O   0  0  0  0  0  0  0  0  0  0  0  0
    1.9303   -3.0107    0.0344 C   0  0  0  0  0  0  0  0  0  0  0  0
    2.1933   -2.3644   -2.9621 H   0  0  0  0  0  0  0  0  0  0  0  0
    0.0677   -2.8341   -1.0470 H   0  0  0  0  0  0  0  0  0  0  0  0
    2.9754   -2.7037   -0.0748 H   0  0  0  0  0  0  0  0  0  0  0  0
    1.5598   -2.6358    0.9915 H   0  0  0  0  0  0  0  0  0  0  0  0
    1.8899   -4.1043    0.0593 H   0  0  0  0  0  0  0  0  0  0  0  0
    0.0213   -0.1324   -0.6449 N   0  0  0  0  0  0  0  0  0  0  0  0
   -0.5030   -0.1842    0.7342 C   0  0  2  0  0  0  0  0  0  0  0  0
   -1.0765   -1.5478    1.1690 C   0  0  0  0  0  0  0  0  0  0  0  0
   -0.7193   -2.0474    2.2232 O   0  0  0  0  0  0  0  0  0  0  0  0
   -1.5925    0.8904    0.8968 C   0  0  0  0  0  0  0  0  0  0  0  0
   -1.0246    2.3125    0.7735 C   0  0  0  0  0  0  0  0  0  0  0  0
   -2.1271    3.3375    1.0325 C   0  0  0  0  0  0  0  0  0  0  0  0
   -1.5757    4.7005    0.9203 N   0  3  0  0  0  0  0  0  0  0  0  0
   -2.2782    5.7823    1.0981 C   0  0  0  0  0  0  0  0  0  0  0  0
   -1.6755    7.0106    0.9673 N   0  0  0  0  0  0  0  0  0  0  0  0
   -3.6158    5.7363    1.4197 N   0  0  0  0  0  0  0  0  0  0  0  0
    0.1165    0.7980   -1.0418 H   0  0  0  0  0  0  0  0  0  0  0  0
    0.3184    0.0384    1.4254 H   0  0  0  0  0  0  0  0  0  0  0  0
   -2.0543    0.7772    1.8849 H   0  0  0  0  0  0  0  0  0  0  0  0
   -2.3758    0.7351    0.1459 H   0  0  0  0  0  0  0  0  0  0  0  0
   -0.2168    2.4475    1.5014 H   0  0  0  0  0  0  0  0  0  0  0  0
   -0.6102    2.4670   -0.2281 H   0  0  0  0  0  0  0  0  0  0  0  0
   -2.9305    3.1946    0.3008 H   0  0  0  0  0  0  0  0  0  0  0  0
   -2.5369    3.1776    2.0361 H   0  0  0  0  0  0  0  0  0  0  0  0
   -0.5835    4.7826    0.7011 H   0  0  0  0  0  0  0  0  0  0  0  0
   -2.2666    7.8381    0.9089 H   0  0  0  0  0  0  0  0  0  0  0  0
   -0.7457    7.0590    0.5547 H   0  0  0  0  0  0  0  0  0  0  0  0
   -4.0614    6.5769    1.7824 H   0  0  0  0  0  0  0  0  0  0  0  0
   -4.0167    4.8348    1.6703 H   0  0  0  0  0  0  0  0  0  0  0  0
   -1.9135   -2.2385    0.3177 N   0  0  0  0  0  0  0  0  0  0  0  0
   -2.1822   -3.6805    0.3852 C   0  0  2  0  0  0  0  0  0  0  0  0
   -2.5295   -4.2104   -1.0245 C   0  0  0  0  0  0  0  0  0  0  0  0
   -2.7879   -3.4060   -1.9171 O   0  0  0  0  0  0  0  0  0  0  0  0
   -3.3341   -3.9380    1.3602 C   0  0  0  0  0  0  0  0  0  0  0  0
   -2.0929   -1.8101   -0.5925 H   0  0  0  0  0  0  0  0  0  0  0  0
   -1.2878   -4.2103    0.7310 H   0  0  0  0  0  0  0  0  0  0  0  0
   -4.2405   -3.4244    1.0247 H   0  0  0  0  0  0  0  0  0  0  0  0
   -3.5458   -5.0096    1.4276 H   0  0  0  0  0  0  0  0  0  0  0  0
   -3.0755   -3.5755    2.3600 H   0  0  0  0  0  0  0  0  0  0  0  0
   -2.5291   -5.5649   -1.2955 N   0  0  0  0  0  0  0  0  0  0  0  0
   -2.6844   -6.0934   -2.6453 C   0  0  0  0  0  0  0  0  0  0  0  0
   -2.1214   -6.1728   -0.5908 H   0  0  0  0  0  0  0  0  0  0  0  0
   -3.6373   -5.7701   -3.0774 H   0  0  0  0  0  0  0  0  0  0  0  0
   -1.8686   -5.7473   -3.2888 H   0  0  0  0  0  0  0  0  0  0  0  0
   -2.6703   -7.1874   -2.6265 H   0  0  0  0  0  0  0  0  0  0  0  0
  1  2  2  0  0  0  0
  1  3  1  0  0  0  0
  1  7  1  0  0  0  0
  3  4  1  0  0  0  0
  3  5  1  0  0  0  0
  3  6  1  0  0  0  0
  7  8  1  0  0  0  0
  7 12  1  0  0  0  0
  8  9  1  0  0  0  0
  8 11  1  0  0  0  0
  8 13  1  0  0  0  0
  9 10  2  0  0  0  0
  9 17  1  0  0  0  0
 11 14  1  0  0  0  0
 11 15  1  0  0  0  0
 11 16  1  0  0  0  0
 17 18  1  0  0  0  0
 17 28  1  0  0  0  0
 18 19  1  0  0  0  0
 18 21  1  0  0  0  0
 18 29  1  0  0  0  0
 19 20  2  0  0  0  0
 19 41  1  0  0  0  0
 21 22  1  0  0  0  0
 21 30  1  0  0  0  0
 21 31  1  0  0  0  0
 22 23  1  0  0  0  0
 22 32  1  0  0  0  0
 22 33  1  0  0  0  0
 23 24  1  0  0  0  0
 23 34  1  0  0  0  0
 23 35  1  0  0  0  0
 24 25  2  0  0  0  0
 24 36  1  0  0  0  0
 25 26  1  0  0  0  0
 25 27  1  0  0  0  0
 26 37  1  0  0  0  0
 26 38  1  0  0  0  0
 27 39  1  0  0  0  0
 27 40  1  0  0  0  0
 41 42  1  0  0  0  0
 41 46  1  0  0  0  0
 42 43  1  0  0  0  0
 42 45  1  0  0  0  0
 42 47  1  0  0  0  0
 43 44  2  0  0  0  0
 43 51  1  0  0  0  0
 45 48  1  0  0  0  0
 45 49  1  0  0  0  0
 45 50  1  0  0  0  0
 51 52  1  0  0  0  0
 51 53  1  0  0  0  0
 52 54  1  0  0  0  0
 52 55  1  0  0  0  0
 52 56  1  0  0  0  0
M  CHG  1  24   1
M  END
$$$$

  -OEChem-02062319043D

 56 55  0     1  0  0  0  0  0999 V2000
    1.3252   -4.2569   -2.8708 C   0  0  0  0  0  0  0  0  0  0  0  0
    0.7490   -5.0476   -2.1393 O   0  0  0  0  0  0  0  0  0  0  0  0
    1.7735   -4.6853   -4.2547 C   0  0  0  0  0  0  0  0  0  0  0  0
    2.8615   -4.6211   -4.3318 H   0  0  0  0  0  0  0  0  0  0  0  0
    1.4661   -5.7171   -4.4471 H   0  0  0  0  0  0  0  0  0  0  0  0
    1.3228   -4.0373   -5.0099 H   0  0  0  0  0  0  0  0  0  0  0  0
    1.5752   -2.9720   -2.4342 N   0  0  0  0  0  0  0  0  0  0  0  0
    1.1278   -2.4376   -1.1424 C   0  0  2  0  0  0  0  0  0  0  0  0
    1.0739   -0.8916   -1.1324 C   0  0  0  0  0  0  0  0  0  0  0  0
    1.7488   -0.2620   -1.9342 O   0  0  0  0  0  0  0  0  0  0  0  0
    2.0977   -2.9371   -0.0623 C   0  0  0  0  0  0  0  0  0  0  0  0
    2.0379   -2.3309   -3.0767 H   0  0  0  0  0  0  0  0  0  0  0  0
    0.1228   -2.8144   -0.9468 H   0  0  0  0  0  0  0  0  0  0  0  0
    3.1185   -2.6124   -0.2882 H   0  0  0  0  0  0  0  0  0  0  0  0
    1.8255   -2.5512    0.9225 H   0  0  0  0  0  0  0  0  0  0  0  0
    2.0850   -4.0303   -0.0120 H   0  0  0  0  0  0  0  0  0  0  0  0
    0.0139   -0.1224   -0.6947 N   0  0  0  0  0  0  0  0  0  0  0  0
   -0.2770    0.0389    0.7430 C   0  0  2  0  0  0  0  0  0  0  0  0
   -0.5896   -1.2707    1.4925 C   0  0  0  0  0  0  0  0  0  0  0  0
   -0.0113   -1.5281    2.5356 O   0  0  0  0  0  0  0  0  0  0  0  0
   -1.4551    1.0145    0.9126 C   0  0  0  0  0  0  0  0  0  0  0  0
   -1.0947    2.4363    0.4539 C   0  0  0  0  0  0  0  0  0  0  0  0
   -2.2567    3.3877    0.7332 C   0  0  0  0  0  0  0  0  0  0  0  0
   -1.8975    4.7533    0.3064 N   0  3  0  0  0  0  0  0  0  0  0  0
   -2.7059    5.7714    0.3835 C   0  0  0  0  0  0  0  0  0  0  0  0
   -2.2854    7.0070   -0.0488 N   0  0  0  0  0  0  0  0  0  0  0  0
   -3.9788    5.6497    0.8927 N   0  0  0  0  0  0  0  0  0  0  0  0
    0.0173    0.7481   -1.2190 H   0  0  0  0  0  0  0  0  0  0  0  0
    0.6072    0.4667    1.2299 H   0  0  0  0  0  0  0  0  0  0  0  0
   -1.7385    1.0433    1.9712 H   0  0  0  0  0  0  0  0  0  0  0  0
   -2.3200    0.6471    0.3486 H   0  0  0  0  0  0  0  0  0  0  0  0
   -0.2028    2.7778    0.9912 H   0  0  0  0  0  0  0  0  0  0  0  0
   -0.8695    2.4391   -0.6179 H   0  0  0  0  0  0  0  0  0  0  0  0
   -3.1424    3.0427    0.1882 H   0  0  0  0  0  0  0  0  0  0  0  0
   -2.4805    3.3746    1.8057 H   0  0  0  0  0  0  0  0  0  0  0  0
   -0.9558    4.8935   -0.0580 H   0  0  0  0  0  0  0  0  0  0  0  0
   -2.9793    7.7426   -0.1715 H   0  0  0  0  0  0  0  0  0  0  0  0
   -1.4207    7.0733   -0.5824 H   0  0  0  0  0  0  0  0  0  0  0  0
   -4.4863    6.4942    1.1493 H   0  0  0  0  0  0  0  0  0  0  0  0
   -4.2225    4.7818    1.3654 H   0  0  0  0  0  0  0  0  0  0  0  0
   -1.4492   -2.1875    0.9261 N   0  0  0  0  0  0  0  0  0  0  0  0
   -1.5597   -3.6016    1.3021 C   0  0  2  0  0  0  0  0  0  0  0  0
   -2.1042   -4.4114    0.1039 C   0  0  0  0  0  0  0  0  0  0  0  0
   -2.6393   -3.8109   -0.8248 O   0  0  0  0  0  0  0  0  0  0  0  0
   -2.4885   -3.7360    2.5126 C   0  0  0  0  0  0  0  0  0  0  0  0
   -1.8398   -1.9497    0.0124 H   0  0  0  0  0  0  0  0  0  0  0  0
   -0.5702   -3.9969    1.5559 H   0  0  0  0  0  0  0  0  0  0  0  0
   -3.4840   -3.3472    2.2763 H   0  0  0  0  0  0  0  0  0  0  0  0
   -2.5848   -4.7857    2.8063 H   0  0  0  0  0  0  0  0  0  0  0  0
   -2.0883   -3.1769    3.3640 H   0  0  0  0  0  0  0  0  0  0  0  0
   -1.9703   -5.7853    0.0512 N   0  0  0  0  0  0  0  0  0  0  0  0
   -2.3184   -6.5627   -1.1328 C   0  0  0  0  0  0  0  0  0  0  0  0
   -1.3861   -6.2228    0.7578 H   0  0  0  0  0  0  0  0  0  0  0  0
   -3.3760   -6.4292   -1.3834 H   0  0  0  0  0  0  0  0  0  0  0  0
   -1.7117   -6.2507   -1.9893 H   0  0  0  0  0  0  0  0  0  0  0  0
   -2.1400   -7.6271   -0.9525 H   0  0  0  0  0  0  0  0  0  0  0  0
  1  2  2  0  0  0  0
  1  3  1  0  0  0  0
  1  7  1  0  0  0  0
  3  4  1  0  0  0  0
  3  5  1  0  0  0  0
  3  6  1  0  0  0  0
  7  8  1  0  0  0  0
  7 12  1  0  0  0  0
  8  9  1  0  0  0  0
  8 11  1  0  0  0  0
  8 13  1  0  0  0  0
  9 10  2  0  0  0  0
  9 17  1  0  0  0  0
 11 14  1  0  0  0  0
 11 15  1  0  0  0  0
 11 16  1  0  0  0  0
 17 18  1  0  0  0  0
 17 28  1  0  0  0  0
 18 19  1  0  0  0  0
 18 21  1  0  0  0  0
 18 29  1  0  0  0  0
 19 20  2  0  0  0  0
 19 41  1  0  0  0  0
 21 22  1  0  0  0  0
 21 30  1  0  0  0  0
 21 31  1  0  0  0  0
 22 23  1  0  0  0  0
 22 32  1  0  0  0  0
 22 33  1  0  0  0  0
 23 24  1  0  0  0  0
 23 34  1  0  0  0  0
 23 35  1  0  0  0  0
 24 25  2  0  0  0  0
 24 36  1  0  0  0  0
 25 26  1  0  0  0  0
 25 27  1  0  0  0  0
 26 37  1  0  0  0  0
 26 38  1  0  0  0  0
 27 39  1  0  0  0  0
 27 40  1  0  0  0  0
 41 42  1  0  0  0  0
 41 46  1  0  0  0  0
 42 43  1  0  0  0  0
 42 45  1  0  0  0  0
 42 47  1  0  0  0  0
 43 44  2  0  0  0  0
 43 51  1  0  0  0  0
 45 48  1  0  0  0  0
 45 49  1  0  0  0  0
 45 50  1  0  0  0  0
 51 52  1  0  0  0  0
 51 53  1  0  0  0  0
 52 54  1  0  0  0  0
 52 55  1  0  0  0  0
 52 56  1  0  0  0  0
M  CHG  1  24   1
M  END
$$$$

  -OEChem-02062319043D

 56 55  0     1  0  0  0  0  0999 V2000
    1.1255   -4.1606   -3.0075 C   0  0  0  0  0  0  0  0  0  0  0  0
    0.4252   -4.9040   -2.3414 O   0  0  0  0  0  0  0  0  0  0  0  0
    1.6690   -4.6238   -4.3455 C   0  0  0  0  0  0  0  0  0  0  0  0
    2.7597   -4.6766   -4.3078 H   0  0  0  0  0  0  0  0  0  0  0  0
    1.2766   -5.6157   -4.5878 H   0  0  0  0  0  0  0  0  0  0  0  0
    1.3711   -3.9269   -5.1326 H   0  0  0  0  0  0  0  0  0  0  0  0
    1.4319   -2.9002   -2.5362 N   0  0  0  0  0  0  0  0  0  0  0  0
    1.0394   -2.3972   -1.2131 C   0  0  2  0  0  0  0  0  0  0  0  0
    0.9300   -0.8552   -1.2263 C   0  0  0  0  0  0  0  0  0  0  0  0
    1.9431   -0.1877   -1.3739 O   0  0  0  0  0  0  0  0  0  0  0  0
    2.0962   -2.8867   -0.2112 C   0  0  0  0  0  0  0  0  0  0  0  0
    2.1060   -2.3560   -3.0709 H   0  0  0  0  0  0  0  0  0  0  0  0
    0.0617   -2.8039   -0.9365 H   0  0  0  0  0  0  0  0  0  0  0  0
    3.0974   -2.5731   -0.5239 H   0  0  0  0  0  0  0  0  0  0  0  0
    1.9122   -2.4815    0.7858 H   0  0  0  0  0  0  0  0  0  0  0  0
    2.0792   -3.9789   -0.1464 H   0  0  0  0  0  0  0  0  0  0  0  0
   -0.1708   -0.1452   -0.7708 N   0  0  0  0  0  0  0  0  0  0  0  0
   -0.2026    0.2675    0.6485 C   0  0  2  0  0  0  0  0  0  0  0  0
   -0.1556   -0.8858    1.6698 C   0  0  0  0  0  0  0  0  0  0  0  0
    0.6193   -0.8551    2.6110 O   0  0  0  0  0  0  0  0  0  0  0  0
   -1.4240    1.1679    0.8946 C   0  0  0  0  0  0  0  0  0  0  0  0
   -1.2908    2.4873    0.1190 C   0  0  0  0  0  0  0  0  0  0  0  0
   -2.4527    3.4241    0.4399 C   0  0  0  0  0  0  0  0  0  0  0  0
   -2.2763    4.6834   -0.3065 N   0  3  0  0  0  0  0  0  0  0  0  0
   -3.1233    5.6711   -0.2767 C   0  0  0  0  0  0  0  0  0  0  0  0
   -2.8709    6.8030   -1.0146 N   0  0  0  0  0  0  0  0  0  0  0  0
   -4.2720    5.6201    0.4794 N   0  0  0  0  0  0  0  0  0  0  0  0
   -1.0319   -0.6019   -1.0608 H   0  0  0  0  0  0  0  0  0  0  0  0
    0.6993    0.8621    0.8420 H   0  0  0  0  0  0  0  0  0  0  0  0
   -1.4949    1.3865    1.9665 H   0  0  0  0  0  0  0  0  0  0  0  0
   -2.3406    0.6460    0.5994 H   0  0  0  0  0  0  0  0  0  0  0  0
   -0.3455    2.9713    0.3899 H   0  0  0  0  0  0  0  0  0  0  0  0
   -1.2684    2.2843   -0.9574 H   0  0  0  0  0  0  0  0  0  0  0  0
   -3.3958    2.9429    0.1572 H   0  0  0  0  0  0  0  0  0  0  0  0
   -2.4692    3.6214    1.5176 H   0  0  0  0  0  0  0  0  0  0  0  0
   -1.4274    4.7728   -0.8642 H   0  0  0  0  0  0  0  0  0  0  0  0
   -3.6237    7.4761   -1.1457 H   0  0  0  0  0  0  0  0  0  0  0  0
   -2.1213    6.7837   -1.7039 H   0  0  0  0  0  0  0  0  0  0  0  0
   -4.7719    6.4876    0.6639 H   0  0  0  0  0  0  0  0  0  0  0  0
   -4.3632    4.8628    1.1533 H   0  0  0  0  0  0  0  0  0  0  0  0
   -0.9536   -1.9929    1.4743 N   0  0  0  0  0  0  0  0  0  0  0  0
   -0.8037   -3.2911    2.1386 C   0  0  2  0  0  0  0  0  0  0  0  0
   -1.3642   -4.3864    1.2063 C   0  0  0  0  0  0  0  0  0  0  0  0
   -2.1049   -4.0505    0.2851 O   0  0  0  0  0  0  0  0  0  0  0  0
   -1.5552   -3.2734    3.4718 C   0  0  0  0  0  0  0  0  0  0  0  0
   -1.5697   -1.9972    0.6622 H   0  0  0  0  0  0  0  0  0  0  0  0
    0.2556   -3.5016    2.3207 H   0  0  0  0  0  0  0  0  0  0  0  0
   -2.6178   -3.0668    3.3100 H   0  0  0  0  0  0  0  0  0  0  0  0
   -1.4610   -4.2397    3.9766 H   0  0  0  0  0  0  0  0  0  0  0  0
   -1.1442   -2.5007    4.1288 H   0  0  0  0  0  0  0  0  0  0  0  0
   -1.0006   -5.7102    1.3559 N   0  0  0  0  0  0  0  0  0  0  0  0
   -1.3620   -6.7394    0.3874 C   0  0  0  0  0  0  0  0  0  0  0  0
   -0.3181   -5.9354    2.0737 H   0  0  0  0  0  0  0  0  0  0  0  0
   -2.4497   -6.7978    0.2751 H   0  0  0  0  0  0  0  0  0  0  0  0
   -0.9193   -6.5185   -0.5894 H   0  0  0  0  0  0  0  0  0  0  0  0
   -0.9976   -7.7163    0.7190 H   0  0  0  0  0  0  0  0  0  0  0  0
  1  2  2  0  0  0  0
  1  3  1  0  0  0  0
  1  7  1  0  0  0  0
  3  4  1  0  0  0  0
  3  5  1  0  0  0  0
  3  6  1  0  0  0  0
  7  8  1  0  0  0  0
  7 12  1  0  0  0  0
  8  9  1  0  0  0  0
  8 11  1  0  0  0  0
  8 13  1  0  0  0  0
  9 10  2  0  0  0  0
  9 17  1  0  0  0  0
 11 14  1  0  0  0  0
 11 15  1  0  0  0  0
 11 16  1  0  0  0  0
 17 18  1  0  0  0  0
 17 28  1  0  0  0  0
 18 19  1  0  0  0  0
 18 21  1  0  0  0  0
 18 29  1  0  0  0  0
 19 20  2  0  0  0  0
 19 41  1  0  0  0  0
 21 22  1  0  0  0  0
 21 30  1  0  0  0  0
 21 31  1  0  0  0  0
 22 23  1  0  0  0  0
 22 32  1  0  0  0  0
 22 33  1  0  0  0  0
 23 24  1  0  0  0  0
 23 34  1  0  0  0  0
 23 35  1  0  0  0  0
 24 25  2  0  0  0  0
 24 36  1  0  0  0  0
 25 26  1  0  0  0  0
 25 27  1  0  0  0  0
 26 37  1  0  0  0  0
 26 38  1  0  0  0  0
 27 39  1  0  0  0  0
 27 40  1  0  0  0  0
 41 42  1  0  0  0  0
 41 46  1  0  0  0  0
 42 43  1  0  0  0  0
 42 45  1  0  0  0  0
 42 47  1  0  0  0  0
 43 44  2  0  0  0  0
 43 51  1  0  0  0  0
 45 48  1  0  0  0  0
 45 49  1  0  0  0  0
 45 50  1  0  0  0  0
 51 52  1  0  0  0  0
 51 53  1  0  0  0  0
 52 54  1  0  0  0  0
 52 55  1  0  0  0  0
 52 56  1  0  0  0  0
M  CHG  1  24   1
M  END
$$$$

  -OEChem-02062319043D

 56 55  0     1  0  0  0  0  0999 V2000
   -0.2518   -2.9879   -2.0272 C   0  0  0  0  0  0  0  0  0  0  0  0
   -0.9767   -2.3108   -1.3090 O   0  0  0  0  0  0  0  0  0  0  0  0
   -0.8613   -4.0133   -2.9630 C   0  0  0  0  0  0  0  0  0  0  0  0
   -0.5358   -3.8288   -3.9897 H   0  0  0  0  0  0  0  0  0  0  0  0
   -0.5492   -5.0170   -2.6626 H   0  0  0  0  0  0  0  0  0  0  0  0
   -1.9530   -3.9597   -2.9237 H   0  0  0  0  0  0  0  0  0  0  0  0
    1.1141   -2.7754   -2.0376 N   0  0  0  0  0  0  0  0  0  0  0  0
    1.8704   -2.1781   -0.9207 C   0  0  2  0  0  0  0  0  0  0  0  0
    1.7363   -0.6397   -0.7649 C   0  0  0  0  0  0  0  0  0  0  0  0
    2.6839    0.0354   -0.3875 O   0  0  0  0  0  0  0  0  0  0  0  0
    3.3312   -2.6105   -1.1073 C   0  0  0  0  0  0  0  0  0  0  0  0
    1.6329   -3.4132   -2.6354 H   0  0  0  0  0  0  0  0  0  0  0  0
    1.5234   -2.6190    0.0162 H   0  0  0  0  0  0  0  0  0  0  0  0
    3.7538   -2.1621   -2.0123 H   0  0  0  0  0  0  0  0  0  0  0  0
    3.9354   -2.2941   -0.2504 H   0  0  0  0  0  0  0  0  0  0  0  0
    3.4024   -3.6999   -1.1859 H   0  0  0  0  0  0  0  0  0  0  0  0
    0.4884   -0.0600   -0.6347 N   0  0  0  0  0  0  0  0  0  0  0  0
    0.0682    0.4240    0.6921 C   0  0  2  0  0  0  0  0  0  0  0  0
    0.0135   -0.6666    1.7862 C   0  0  0  0  0  0  0  0  0  0  0  0
    0.3264   -0.3732    2.9306 O   0  0  0  0  0  0  0  0  0  0  0  0
   -1.2940    1.1232    0.5698 C   0  0  0  0  0  0  0  0  0  0  0  0
   -1.1884    2.3873   -0.2940 C   0  0  0  0  0  0  0  0  0  0  0  0
   -2.5130    3.1444   -0.2885 C   0  0  0  0  0  0  0  0  0  0  0  0
   -2.3788    4.3627   -1.1075 N   0  3  0  0  0  0  0  0  0  0  0  0
   -3.2694    5.3105   -1.1502 C   0  0  0  0  0  0  0  0  0  0  0  0
   -3.0564    6.4019   -1.9579 N   0  0  0  0  0  0  0  0  0  0  0  0
   -4.4255    5.2547   -0.4054 N   0  0  0  0  0  0  0  0  0  0  0  0
   -0.2191   -0.6524   -1.0751 H   0  0  0  0  0  0  0  0  0  0  0  0
    0.8033    1.1607    1.0387 H   0  0  0  0  0  0  0  0  0  0  0  0
   -1.6413    1.3992    1.5720 H   0  0  0  0  0  0  0  0  0  0  0  0
   -2.0275    0.4322    0.1396 H   0  0  0  0  0  0  0  0  0  0  0  0
   -0.3947    3.0317    0.1007 H   0  0  0  0  0  0  0  0  0  0  0  0
   -0.9211    2.1128   -1.3203 H   0  0  0  0  0  0  0  0  0  0  0  0
   -3.3012    2.4999   -0.6936 H   0  0  0  0  0  0  0  0  0  0  0  0
   -2.7712    3.4043    0.7438 H   0  0  0  0  0  0  0  0  0  0  0  0
   -1.5291    4.4509   -1.6641 H   0  0  0  0  0  0  0  0  0  0  0  0
   -3.8375    7.0267   -2.1485 H   0  0  0  0  0  0  0  0  0  0  0  0
   -2.2936    6.3711   -2.6316 H   0  0  0  0  0  0  0  0  0  0  0  0
   -4.9691    6.1065   -0.2825 H   0  0  0  0  0  0  0  0  0  0  0  0
   -4.4949    4.5344    0.3106 H   0  0  0  0  0  0  0  0  0  0  0  0
   -0.5593   -1.9037    1.5431 N   0  0  0  0  0  0  0  0  0  0  0  0
   -0.6160   -3.0044    2.5192 C   0  0  2  0  0  0  0  0  0  0  0  0
   -0.0837   -4.3445    1.9629 C   0  0  0  0  0  0  0  0  0  0  0  0
    0.0171   -4.5337    0.7553 O   0  0  0  0  0  0  0  0  0  0  0  0
   -2.0736   -3.1558    2.9589 C   0  0  0  0  0  0  0  0  0  0  0  0
   -0.7750   -2.1342    0.5678 H   0  0  0  0  0  0  0  0  0  0  0  0
   -0.0051   -2.7619    3.3951 H   0  0  0  0  0  0  0  0  0  0  0  0
   -2.7051   -3.4211    2.1047 H   0  0  0  0  0  0  0  0  0  0  0  0
   -2.1672   -3.9388    3.7178 H   0  0  0  0  0  0  0  0  0  0  0  0
   -2.4381   -2.2165    3.3863 H   0  0  0  0  0  0  0  0  0  0  0  0
    0.2799   -5.3594    2.8286 N   0  0  0  0  0  0  0  0  0  0  0  0
    0.7750   -6.6577    2.3845 C   0  0  0  0  0  0  0  0  0  0  0  0
    0.2042   -5.1790    3.8260 H   0  0  0  0  0  0  0  0  0  0  0  0
    0.0258   -7.1622    1.7652 H   0  0  0  0  0  0  0  0  0  0  0  0
    1.6939   -6.5401    1.8003 H   0  0  0  0  0  0  0  0  0  0  0  0
    0.9943   -7.2944    3.2473 H   0  0  0  0  0  0  0  0  0  0  0  0
  1  2  2  0  0  0  0
  1  3  1  0  0  0  0
  1  7  1  0  0  0  0
  3  4  1  0  0  0  0
  3  5  1  0  0  0  0
  3  6  1  0  0  0  0
  7  8  1  0  0  0  0
  7 12  1  0  0  0  0
  8  9  1  0  0  0  0
  8 11  1  0  0  0  0
  8 13  1  0  0  0  0
  9 10  2  0  0  0  0
  9 17  1  0  0  0  0
 11 14  1  0  0  0  0
 11 15  1  0  0  0  0
 11 16  1  0  0  0  0
 17 18  1  0  0  0  0
 17 28  1  0  0  0  0
 18 19  1  0  0  0  0
 18 21  1  0  0  0  0
 18 29  1  0  0  0  0
 19 20  2  0  0  0  0
 19 41  1  0  0  0  0
 21 22  1  0  0  0  0
 21 30  1  0  0  0  0
 21 31  1  0  0  0  0
 22 23  1  0  0  0  0
 22 32  1  0  0  0  0
 22 33  1  0  0  0  0
 23 24  1  0  0  0  0
 23 34  1  0  0  0  0
 23 35  1  0  0  0  0
 24 25  2  0  0  0  0
 24 36  1  0  0  0  0
 25 26  1  0  0  0  0
 25 27  1  0  0  0  0
 26 37  1  0  0  0  0
 26 38  1  0  0  0  0
 27 39  1  0  0  0  0
 27 40  1  0  0  0  0
 41 42  1  0  0  0  0
 41 46  1  0  0  0  0
 42 43  1  0  0  0  0
 42 45  1  0  0  0  0
 42 47  1  0  0  0  0
 43 44  2  0  0  0  0
 43 51  1  0  0  0  0
 45 48  1  0  0  0  0
 45 49  1  0  0  0  0
 45 50  1  0  0  0  0
 51 52  1  0  0  0  0
 51 53  1  0  0  0  0
 52 54  1  0  0  0  0
 52 55  1  0  0  0  0
 52 56  1  0  0  0  0
M  CHG  1  24   1
M  END
$$$$

  -OEChem-02062319043D

 56 55  0     1  0  0  0  0  0999 V2000
   -0.3112   -3.0777   -1.6289 C   0  0  0  0  0  0  0  0  0  0  0  0
   -0.8996   -2.4173   -0.7829 O   0  0  0  0  0  0  0  0  0  0  0  0
   -1.0457   -4.1726   -2.3780 C   0  0  0  0  0  0  0  0  0  0  0  0
   -1.0235   -3.9756   -3.4526 H   0  0  0  0  0  0  0  0  0  0  0  0
   -0.5719   -5.1377   -2.1805 H   0  0  0  0  0  0  0  0  0  0  0  0
   -2.0876   -4.2223   -2.0499 H   0  0  0  0  0  0  0  0  0  0  0  0
    0.9914   -2.7671   -1.9724 N   0  0  0  0  0  0  0  0  0  0  0  0
    1.9511   -2.1128   -1.0615 C   0  0  2  0  0  0  0  0  0  0  0  0
    1.7813   -0.5837   -0.8612 C   0  0  0  0  0  0  0  0  0  0  0  0
    2.7389    0.1214   -0.5758 O   0  0  0  0  0  0  0  0  0  0  0  0
    3.3507   -2.4649   -1.5847 C   0  0  0  0  0  0  0  0  0  0  0  0
    1.3961   -3.3805   -2.6749 H   0  0  0  0  0  0  0  0  0  0  0  0
    1.8519   -2.5602   -0.0688 H   0  0  0  0  0  0  0  0  0  0  0  0
    3.5233   -2.0048   -2.5628 H   0  0  0  0  0  0  0  0  0  0  0  0
    4.1197   -2.1050   -0.8931 H   0  0  0  0  0  0  0  0  0  0  0  0
    3.4640   -3.5494   -1.6793 H   0  0  0  0  0  0  0  0  0  0  0  0
    0.5214   -0.0453   -0.6793 N   0  0  0  0  0  0  0  0  0  0  0  0
    0.2309    0.6897    0.5632 C   0  0  2  0  0  0  0  0  0  0  0  0
    0.4033   -0.1813    1.8282 C   0  0  0  0  0  0  0  0  0  0  0  0
    0.8172    0.3333    2.8569 O   0  0  0  0  0  0  0  0  0  0  0  0
   -1.1924    1.2642    0.5046 C   0  0  0  0  0  0  0  0  0  0  0  0
   -1.3116    2.3424   -0.5801 C   0  0  0  0  0  0  0  0  0  0  0  0
   -2.7004    2.9730   -0.5368 C   0  0  0  0  0  0  0  0  0  0  0  0
   -2.7959    4.0249   -1.5647 N   0  3  0  0  0  0  0  0  0  0  0  0
   -3.8183    4.8202   -1.6913 C   0  0  0  0  0  0  0  0  0  0  0  0
   -3.8219    5.7679   -2.6866 N   0  0  0  0  0  0  0  0  0  0  0  0
   -4.9055    4.7428   -0.8508 N   0  0  0  0  0  0  0  0  0  0  0  0
   -0.2017   -0.7206   -0.9348 H   0  0  0  0  0  0  0  0  0  0  0  0
    0.9403    1.5201    0.6601 H   0  0  0  0  0  0  0  0  0  0  0  0
   -1.4362    1.7052    1.4781 H   0  0  0  0  0  0  0  0  0  0  0  0
   -1.9095    0.4576    0.3151 H   0  0  0  0  0  0  0  0  0  0  0  0
   -0.5504    3.1126   -0.4126 H   0  0  0  0  0  0  0  0  0  0  0  0
   -1.1333    1.8991   -1.5659 H   0  0  0  0  0  0  0  0  0  0  0  0
   -3.4545    2.1983   -0.7164 H   0  0  0  0  0  0  0  0  0  0  0  0
   -2.8671    3.3987    0.4589 H   0  0  0  0  0  0  0  0  0  0  0  0
   -2.0020    4.1250   -2.1964 H   0  0  0  0  0  0  0  0  0  0  0  0
   -4.6971    6.2397   -2.9056 H   0  0  0  0  0  0  0  0  0  0  0  0
   -3.1111    5.7180   -3.4140 H   0  0  0  0  0  0  0  0  0  0  0  0
   -5.5585    5.5232   -0.8246 H   0  0  0  0  0  0  0  0  0  0  0  0
   -4.8238    4.1585   -0.0211 H   0  0  0  0  0  0  0  0  0  0  0  0
   -0.1030   -1.4695    1.8743 N   0  0  0  0  0  0  0  0  0  0  0  0
    0.0629   -2.3902    3.0098 C   0  0  2  0  0  0  0  0  0  0  0  0
    0.6841   -3.7446    2.6025 C   0  0  0  0  0  0  0  0  0  0  0  0
    0.6206   -4.1452    1.4450 O   0  0  0  0  0  0  0  0  0  0  0  0
   -1.3175   -2.6070    3.6323 C   0  0  0  0  0  0  0  0  0  0  0  0
   -0.4007   -1.8822    0.9843 H   0  0  0  0  0  0  0  0  0  0  0  0
    0.7246   -1.9481    3.7620 H   0  0  0  0  0  0  0  0  0  0  0  0
   -1.9965   -3.0639    2.9051 H   0  0  0  0  0  0  0  0  0  0  0  0
   -1.2468   -3.2650    4.5038 H   0  0  0  0  0  0  0  0  0  0  0  0
   -1.7411   -1.6507    3.9547 H   0  0  0  0  0  0  0  0  0  0  0  0
    1.3084   -4.5346    3.5497 N   0  0  0  0  0  0  0  0  0  0  0  0
    1.9132   -5.8265    3.2466 C   0  0  0  0  0  0  0  0  0  0  0  0
    1.3722   -4.1734    4.4976 H   0  0  0  0  0  0  0  0  0  0  0  0
    1.1615   -6.5191    2.8536 H   0  0  0  0  0  0  0  0  0  0  0  0
    2.7098   -5.7127    2.5040 H   0  0  0  0  0  0  0  0  0  0  0  0
    2.3446   -6.2644    4.1520 H   0  0  0  0  0  0  0  0  0  0  0  0
  1  2  2  0  0  0  0
  1  3  1  0  0  0  0
  1  7  1  0  0  0  0
  3  4  1  0  0  0  0
  3  5  1  0  0  0  0
  3  6  1  0  0  0  0
  7  8  1  0  0  0  0
  7 12  1  0  0  0  0
  8  9  1  0  0  0  0
  8 11  1  0  0  0  0
  8 13  1  0  0  0  0
  9 10  2  0  0  0  0
  9 17  1  0  0  0  0
 11 14  1  0  0  0  0
 11 15  1  0  0  0  0
 11 16  1  0  0  0  0
 17 18  1  0  0  0  0
 17 28  1  0  0  0  0
 18 19  1  0  0  0  0
 18 21  1  0  0  0  0
 18 29  1  0  0  0  0
 19 20  2  0  0  0  0
 19 41  1  0  0  0  0
 21 22  1  0  0  0  0
 21 30  1  0  0  0  0
 21 31  1  0  0  0  0
 22 23  1  0  0  0  0
 22 32  1  0  0  0  0
 22 33  1  0  0  0  0
 23 24  1  0  0  0  0
 23 34  1  0  0  0  0
 23 35  1  0  0  0  0
 24 25  2  0  0  0  0
 24 36  1  0  0  0  0
 25 26  1  0  0  0  0
 25 27  1  0  0  0  0
 26 37  1  0  0  0  0
 26 38  1  0  0  0  0
 27 39  1  0  0  0  0
 27 40  1  0  0  0  0
 41 42  1  0  0  0  0
 41 46  1  0  0  0  0
 42 43  1  0  0  0  0
 42 45  1  0  0  0  0
 42 47  1  0  0  0  0
 43 44  2  0  0  0  0
 43 51  1  0  0  0  0
 45 48  1  0  0  0  0
 45 49  1  0  0  0  0
 45 50  1  0  0  0  0
 51 52  1  0  0  0  0
 51 53  1  0  0  0  0
 52 54  1  0  0  0  0
 52 55  1  0  0  0  0
 52 56  1  0  0  0  0
M  CHG  1  24   1
M  END
$$$$

  -OEChem-02062319043D

 56 55  0     1  0  0  0  0  0999 V2000
   -0.5298   -3.0613   -2.0714 C   0  0  0  0  0  0  0  0  0  0  0  0
   -1.1340   -2.4884   -1.1742 O   0  0  0  0  0  0  0  0  0  0  0  0
   -1.2885   -3.8849   -3.0945 C   0  0  0  0  0  0  0  0  0  0  0  0
   -0.9233   -4.9151   -3.0894 H   0  0  0  0  0  0  0  0  0  0  0  0
   -2.3562   -3.8909   -2.8577 H   0  0  0  0  0  0  0  0  0  0  0  0
   -1.1504   -3.4626   -4.0925 H   0  0  0  0  0  0  0  0  0  0  0  0
    0.8389   -2.9151   -2.1835 N   0  0  0  0  0  0  0  0  0  0  0  0
    1.6970   -2.3691   -1.1188 C   0  0  2  0  0  0  0  0  0  0  0  0
    1.6482   -0.8240   -1.0048 C   0  0  0  0  0  0  0  0  0  0  0  0
    2.6668   -0.1494   -0.9484 O   0  0  0  0  0  0  0  0  0  0  0  0
    3.1164   -2.8992   -1.3588 C   0  0  0  0  0  0  0  0  0  0  0  0
    1.2906   -3.4419   -2.9266 H   0  0  0  0  0  0  0  0  0  0  0  0
    1.3583   -2.7681   -0.1585 H   0  0  0  0  0  0  0  0  0  0  0  0
    3.5166   -2.5188   -2.3040 H   0  0  0  0  0  0  0  0  0  0  0  0
    3.7822   -2.5816   -0.5493 H   0  0  0  0  0  0  0  0  0  0  0  0
    3.1170   -3.9931   -1.3900 H   0  0  0  0  0  0  0  0  0  0  0  0
    0.4500   -0.2187   -0.6725 N   0  0  0  0  0  0  0  0  0  0  0  0
    0.3788    0.8604    0.3270 C   0  0  2  0  0  0  0  0  0  0  0  0
    0.8745    0.4294    1.7219 C   0  0  0  0  0  0  0  0  0  0  0  0
    1.4381    1.2436    2.4389 O   0  0  0  0  0  0  0  0  0  0  0  0
   -1.0622    1.3852    0.4196 C   0  0  0  0  0  0  0  0  0  0  0  0
   -1.4964    2.0677   -0.8835 C   0  0  0  0  0  0  0  0  0  0  0  0
   -2.8900    2.6662   -0.7140 C   0  0  0  0  0  0  0  0  0  0  0  0
   -3.2751    3.3803   -1.9443 N   0  3  0  0  0  0  0  0  0  0  0  0
   -4.3570    4.0953   -2.0543 C   0  0  0  0  0  0  0  0  0  0  0  0
   -4.6337    4.7297   -3.2417 N   0  0  0  0  0  0  0  0  0  0  0  0
   -5.2398    4.2402   -1.0080 N   0  0  0  0  0  0  0  0  0  0  0  0
   -0.3372   -0.8733   -0.6952 H   0  0  0  0  0  0  0  0  0  0  0  0
    1.0326    1.6800    0.0062 H   0  0  0  0  0  0  0  0  0  0  0  0
   -1.1208    2.1089    1.2409 H   0  0  0  0  0  0  0  0  0  0  0  0
   -1.7418    0.5585    0.6542 H   0  0  0  0  0  0  0  0  0  0  0  0
   -0.7810    2.8586   -1.1352 H   0  0  0  0  0  0  0  0  0  0  0  0
   -1.5006    1.3399   -1.7024 H   0  0  0  0  0  0  0  0  0  0  0  0
   -3.6043    1.8626   -0.5025 H   0  0  0  0  0  0  0  0  0  0  0  0
   -2.8805    3.3571    0.1362 H   0  0  0  0  0  0  0  0  0  0  0  0
   -2.6372    3.3119   -2.7365 H   0  0  0  0  0  0  0  0  0  0  0  0
   -5.5661    5.1141   -3.3825 H   0  0  0  0  0  0  0  0  0  0  0  0
   -4.0859    4.4891   -4.0656 H   0  0  0  0  0  0  0  0  0  0  0  0
   -5.9326    4.9850   -1.0509 H   0  0  0  0  0  0  0  0  0  0  0  0
   -4.9499    3.9068   -0.0907 H   0  0  0  0  0  0  0  0  0  0  0  0
    0.4789   -0.7818    2.2586 N   0  0  0  0  0  0  0  0  0  0  0  0
    1.0570   -1.3482    3.4858 C   0  0  2  0  0  0  0  0  0  0  0  0
    1.5173   -2.8051    3.2676 C   0  0  0  0  0  0  0  0  0  0  0  0
    1.1510   -3.4199    2.2711 O   0  0  0  0  0  0  0  0  0  0  0  0
   -0.0013   -1.2670    4.5885 C   0  0  0  0  0  0  0  0  0  0  0  0
    0.0970   -1.4581    1.5979 H   0  0  0  0  0  0  0  0  0  0  0  0
    1.9386   -0.7751    3.7936 H   0  0  0  0  0  0  0  0  0  0  0  0
   -0.8895   -1.8438    4.3117 H   0  0  0  0  0  0  0  0  0  0  0  0
    0.3919   -1.6632    5.5295 H   0  0  0  0  0  0  0  0  0  0  0  0
   -0.2965   -0.2254    4.7502 H   0  0  0  0  0  0  0  0  0  0  0  0
    2.3512   -3.4265    4.1779 N   0  0  0  0  0  0  0  0  0  0  0  0
    2.8247   -4.7974    4.0255 C   0  0  0  0  0  0  0  0  0  0  0  0
    2.6643   -2.8852    4.9789 H   0  0  0  0  0  0  0  0  0  0  0  0
    1.9805   -5.4949    4.0161 H   0  0  0  0  0  0  0  0  0  0  0  0
    3.3848   -4.9090    3.0911 H   0  0  0  0  0  0  0  0  0  0  0  0
    3.4844   -5.0651    4.8568 H   0  0  0  0  0  0  0  0  0  0  0  0
  1  2  2  0  0  0  0
  1  3  1  0  0  0  0
  1  7  1  0  0  0  0
  3  4  1  0  0  0  0
  3  5  1  0  0  0  0
  3  6  1  0  0  0  0
  7  8  1  0  0  0  0
  7 12  1  0  0  0  0
  8  9  1  0  0  0  0
  8 11  1  0  0  0  0
  8 13  1  0  0  0  0
  9 10  2  0  0  0  0
  9 17  1  0  0  0  0
 11 14  1  0  0  0  0
 11 15  1  0  0  0  0
 11 16  1  0  0  0  0
 17 18  1  0  0  0  0
 17 28  1  0  0  0  0
 18 19  1  0  0  0  0
 18 21  1  0  0  0  0
 18 29  1  0  0  0  0
 19 20  2  0  0  0  0
 19 41  1  0  0  0  0
 21 22  1  0  0  0  0
 21 30  1  0  0  0  0
 21 31  1  0  0  0  0
 22 23  1  0  0  0  0
 22 32  1  0  0  0  0
 22 33  1  0  0  0  0
 23 24  1  0  0  0  0
 23 34  1  0  0  0  0
 23 35  1  0  0  0  0
 24 25  2  0  0  0  0
 24 36  1  0  0  0  0
 25 26  1  0  0  0  0
 25 27  1  0  0  0  0
 26 37  1  0  0  0  0
 26 38  1  0  0  0  0
 27 39  1  0  0  0  0
 27 40  1  0  0  0  0
 41 42  1  0  0  0  0
 41 46  1  0  0  0  0
 42 43  1  0  0  0  0
 42 45  1  0  0  0  0
 42 47  1  0  0  0  0
 43 44  2  0  0  0  0
 43 51  1  0  0  0  0
 45 48  1  0  0  0  0
 45 49  1  0  0  0  0
 45 50  1  0  0  0  0
 51 52  1  0  0  0  0
 51 53  1  0  0  0  0
 52 54  1  0  0  0  0
 52 55  1  0  0  0  0
 52 56  1  0  0  0  0
M  CHG  1  24   1
M  END
$$$$

  -OEChem-02062319043D

 56 55  0     1  0  0  0  0  0999 V2000
   -0.7005   -3.1698   -2.0514 C   0  0  0  0  0  0  0  0  0  0  0  0
   -1.3896   -2.6233   -1.1994 O   0  0  0  0  0  0  0  0  0  0  0  0
   -1.3583   -3.9393   -3.1809 C   0  0  0  0  0  0  0  0  0  0  0  0
   -1.0314   -4.9822   -3.1624 H   0  0  0  0  0  0  0  0  0  0  0  0
   -2.4463   -3.9109   -3.0751 H   0  0  0  0  0  0  0  0  0  0  0  0
   -1.0863   -3.4979   -4.1427 H   0  0  0  0  0  0  0  0  0  0  0  0
    0.6744   -3.0505   -2.0135 N   0  0  0  0  0  0  0  0  0  0  0  0
    1.4245   -2.4605   -0.8932 C   0  0  2  0  0  0  0  0  0  0  0  0
    1.3123   -0.9165   -0.8331 C   0  0  0  0  0  0  0  0  0  0  0  0
    2.2825   -0.1824   -0.9623 O   0  0  0  0  0  0  0  0  0  0  0  0
    2.8779   -2.9383   -1.0023 C   0  0  0  0  0  0  0  0  0  0  0  0
    1.1999   -3.5351   -2.7365 H   0  0  0  0  0  0  0  0  0  0  0  0
    1.0216   -2.8511    0.0476 H   0  0  0  0  0  0  0  0  0  0  0  0
    3.3404   -2.5706   -1.9242 H   0  0  0  0  0  0  0  0  0  0  0  0
    3.4594   -2.5678   -0.1517 H   0  0  0  0  0  0  0  0  0  0  0  0
    2.9241   -4.0314   -0.9957 H   0  0  0  0  0  0  0  0  0  0  0  0
    0.1159   -0.3552   -0.4269 N   0  0  0  0  0  0  0  0  0  0  0  0
    0.0171    0.9382    0.2680 C   0  0  2  0  0  0  0  0  0  0  0  0
    0.7808    0.9601    1.6058 C   0  0  0  0  0  0  0  0  0  0  0  0
    1.3306    1.9889    1.9727 O   0  0  0  0  0  0  0  0  0  0  0  0
   -1.4603    1.2907    0.4982 C   0  0  0  0  0  0  0  0  0  0  0  0
   -2.2011    1.5058   -0.8278 C   0  0  0  0  0  0  0  0  0  0  0  0
   -3.6211    1.9971   -0.5533 C   0  0  0  0  0  0  0  0  0  0  0  0
   -4.3122    2.2943   -1.8225 N   0  3  0  0  0  0  0  0  0  0  0  0
   -4.3695    3.4788   -2.3614 C   0  0  0  0  0  0  0  0  0  0  0  0
   -5.0690    3.6581   -3.5307 N   0  0  0  0  0  0  0  0  0  0  0  0
   -3.7406    4.5661   -1.7982 N   0  0  0  0  0  0  0  0  0  0  0  0
   -0.6536   -1.0247   -0.3382 H   0  0  0  0  0  0  0  0  0  0  0  0
    0.4729    1.7092   -0.3635 H   0  0  0  0  0  0  0  0  0  0  0  0
   -1.5123    2.2085    1.0951 H   0  0  0  0  0  0  0  0  0  0  0  0
   -1.9466    0.4935    1.0717 H   0  0  0  0  0  0  0  0  0  0  0  0
   -1.6609    2.2417   -1.4324 H   0  0  0  0  0  0  0  0  0  0  0  0
   -2.2374    0.5679   -1.3934 H   0  0  0  0  0  0  0  0  0  0  0  0
   -4.1699    1.2209   -0.0081 H   0  0  0  0  0  0  0  0  0  0  0  0
   -3.5938    2.8855    0.0866 H   0  0  0  0  0  0  0  0  0  0  0  0
   -4.7708    1.5121   -2.2886 H   0  0  0  0  0  0  0  0  0  0  0  0
   -5.2721    4.6094   -3.8327 H   0  0  0  0  0  0  0  0  0  0  0  0
   -5.6876    2.9144   -3.8488 H   0  0  0  0  0  0  0  0  0  0  0  0
   -3.6118    5.4025   -2.3640 H   0  0  0  0  0  0  0  0  0  0  0  0
   -3.0751    4.3908   -1.0478 H   0  0  0  0  0  0  0  0  0  0  0  0
    0.6662   -0.1057    2.4771 N   0  0  0  0  0  0  0  0  0  0  0  0
    1.6497   -0.3548    3.5397 C   0  0  2  0  0  0  0  0  0  0  0  0
    2.4411   -1.6466    3.2430 C   0  0  0  0  0  0  0  0  0  0  0  0
    1.9980   -2.4593    2.4357 O   0  0  0  0  0  0  0  0  0  0  0  0
    0.8990   -0.4653    4.8684 C   0  0  0  0  0  0  0  0  0  0  0  0
    0.2929   -0.9501    2.0468 H   0  0  0  0  0  0  0  0  0  0  0  0
    2.3701    0.4674    3.6082 H   0  0  0  0  0  0  0  0  0  0  0  0
    0.1834   -1.2931    4.8377 H   0  0  0  0  0  0  0  0  0  0  0  0
    1.5986   -0.6406    5.6916 H   0  0  0  0  0  0  0  0  0  0  0  0
    0.3529    0.4614    5.0714 H   0  0  0  0  0  0  0  0  0  0  0  0
    3.6429   -1.9031    3.8750 N   0  0  0  0  0  0  0  0  0  0  0  0
    4.4528   -3.0857    3.6052 C   0  0  0  0  0  0  0  0  0  0  0  0
    4.0090   -1.1907    4.5007 H   0  0  0  0  0  0  0  0  0  0  0  0
    3.8842   -3.9976    3.8159 H   0  0  0  0  0  0  0  0  0  0  0  0
    4.7699   -3.1022    2.5572 H   0  0  0  0  0  0  0  0  0  0  0  0
    5.3466   -3.0851    4.2368 H   0  0  0  0  0  0  0  0  0  0  0  0
  1  2  2  0  0  0  0
  1  3  1  0  0  0  0
  1  7  1  0  0  0  0
  3  4  1  0  0  0  0
  3  5  1  0  0  0  0
  3  6  1  0  0  0  0
  7  8  1  0  0  0  0
  7 12  1  0  0  0  0
  8  9  1  0  0  0  0
  8 11  1  0  0  0  0
  8 13  1  0  0  0  0
  9 10  2  0  0  0  0
  9 17  1  0  0  0  0
 11 14  1  0  0  0  0
 11 15  1  0  0  0  0
 11 16  1  0  0  0  0
 17 18  1  0  0  0  0
 17 28  1  0  0  0  0
 18 19  1  0  0  0  0
 18 21  1  0  0  0  0
 18 29  1  0  0  0  0
 19 20  2  0  0  0  0
 19 41  1  0  0  0  0
 21 22  1  0  0  0  0
 21 30  1  0  0  0  0
 21 31  1  0  0  0  0
 22 23  1  0  0  0  0
 22 32  1  0  0  0  0
 22 33  1  0  0  0  0
 23 24  1  0  0  0  0
 23 34  1  0  0  0  0
 23 35  1  0  0  0  0
 24 25  2  0  0  0  0
 24 36  1  0  0  0  0
 25 26  1  0  0  0  0
 25 27  1  0  0  0  0
 26 37  1  0  0  0  0
 26 38  1  0  0  0  0
 27 39  1  0  0  0  0
 27 40  1  0  0  0  0
 41 42  1  0  0  0  0
 41 46  1  0  0  0  0
 42 43  1  0  0  0  0
 42 45  1  0  0  0  0
 42 47  1  0  0  0  0
 43 44  2  0  0  0  0
 43 51  1  0  0  0  0
 45 48  1  0  0  0  0
 45 49  1  0  0  0  0
 45 50  1  0  0  0  0
 51 52  1  0  0  0  0
 51 53  1  0  0  0  0
 52 54  1  0  0  0  0
 52 55  1  0  0  0  0
 52 56  1  0  0  0  0
M  CHG  1  24   1
M  END
$$$$

  -OEChem-02062319043D

 56 55  0     1  0  0  0  0  0999 V2000
   -0.6709   -3.0350   -1.8871 C   0  0  0  0  0  0  0  0  0  0  0  0
   -1.3379   -2.3582   -1.1142 O   0  0  0  0  0  0  0  0  0  0  0  0
   -1.3574   -3.8266   -2.9838 C   0  0  0  0  0  0  0  0  0  0  0  0
   -1.1023   -4.8856   -2.8940 H   0  0  0  0  0  0  0  0  0  0  0  0
   -2.4427   -3.7203   -2.9043 H   0  0  0  0  0  0  0  0  0  0  0  0
   -1.0374   -3.4655   -3.9643 H   0  0  0  0  0  0  0  0  0  0  0  0
    0.7062   -3.0491   -1.7962 N   0  0  0  0  0  0  0  0  0  0  0  0
    1.4784   -2.4442   -0.6999 C   0  0  2  0  0  0  0  0  0  0  0  0
    1.5089   -0.8977   -0.7540 C   0  0  0  0  0  0  0  0  0  0  0  0
    2.5278   -0.2706   -1.0098 O   0  0  0  0  0  0  0  0  0  0  0  0
    2.8847   -3.0546   -0.7376 C   0  0  0  0  0  0  0  0  0  0  0  0
    1.2094   -3.6135   -2.4757 H   0  0  0  0  0  0  0  0  0  0  0  0
    1.0257   -2.7233    0.2582 H   0  0  0  0  0  0  0  0  0  0  0  0
    3.3887   -2.8094   -1.6780 H   0  0  0  0  0  0  0  0  0  0  0  0
    3.4868   -2.6628    0.0886 H   0  0  0  0  0  0  0  0  0  0  0  0
    2.8337   -4.1428   -0.6380 H   0  0  0  0  0  0  0  0  0  0  0  0
    0.3704   -0.2001   -0.3960 N   0  0  0  0  0  0  0  0  0  0  0  0
    0.3281    1.2401   -0.0941 C   0  0  2  0  0  0  0  0  0  0  0  0
    1.2422    1.5975    1.0929 C   0  0  0  0  0  0  0  0  0  0  0  0
    1.8744    2.6438    1.0988 O   0  0  0  0  0  0  0  0  0  0  0  0
   -1.1164    1.6676    0.2073 C   0  0  0  0  0  0  0  0  0  0  0  0
   -2.0381    1.4621   -1.0017 C   0  0  0  0  0  0  0  0  0  0  0  0
   -3.4345    1.9829   -0.6753 C   0  0  0  0  0  0  0  0  0  0  0  0
   -4.3305    1.7423   -1.8209 N   0  3  0  0  0  0  0  0  0  0  0  0
   -5.3185    2.5230   -2.1515 C   0  0  0  0  0  0  0  0  0  0  0  0
   -6.1192    2.1847   -3.2161 N   0  0  0  0  0  0  0  0  0  0  0  0
   -5.5920    3.6863   -1.4682 N   0  0  0  0  0  0  0  0  0  0  0  0
   -0.4686   -0.7715   -0.2702 H   0  0  0  0  0  0  0  0  0  0  0  0
    0.6963    1.7971   -0.9629 H   0  0  0  0  0  0  0  0  0  0  0  0
   -1.1170    2.7275    0.4866 H   0  0  0  0  0  0  0  0  0  0  0  0
   -1.4967    1.0983    1.0627 H   0  0  0  0  0  0  0  0  0  0  0  0
   -1.6339    1.9973   -1.8680 H   0  0  0  0  0  0  0  0  0  0  0  0
   -2.0909    0.3978   -1.2552 H   0  0  0  0  0  0  0  0  0  0  0  0
   -3.8164    1.4638    0.2112 H   0  0  0  0  0  0  0  0  0  0  0  0
   -3.3710    3.0515   -0.4462 H   0  0  0  0  0  0  0  0  0  0  0  0
   -4.1680    0.8900   -2.3563 H   0  0  0  0  0  0  0  0  0  0  0  0
   -7.0026    2.6774   -3.3339 H   0  0  0  0  0  0  0  0  0  0  0  0
   -6.0404    1.2485   -3.6086 H   0  0  0  0  0  0  0  0  0  0  0  0
   -6.2036    4.3749   -1.9018 H   0  0  0  0  0  0  0  0  0  0  0  0
   -4.9042    4.0156   -0.7942 H   0  0  0  0  0  0  0  0  0  0  0  0
    1.2187    0.7971    2.2172 N   0  0  0  0  0  0  0  0  0  0  0  0
    2.4052    0.6513    3.0672 C   0  0  2  0  0  0  0  0  0  0  0  0
    2.9332   -0.7978    2.9775 C   0  0  0  0  0  0  0  0  0  0  0  0
    2.2201   -1.6793    2.5014 O   0  0  0  0  0  0  0  0  0  0  0  0
    2.0155    1.0107    4.5020 C   0  0  0  0  0  0  0  0  0  0  0  0
    0.7255   -0.0815    2.0641 H   0  0  0  0  0  0  0  0  0  0  0  0
    3.2082    1.3200    2.7374 H   0  0  0  0  0  0  0  0  0  0  0  0
    1.2272    0.3433    4.8645 H   0  0  0  0  0  0  0  0  0  0  0  0
    2.8795    0.9241    5.1680 H   0  0  0  0  0  0  0  0  0  0  0  0
    1.6485    2.0412    4.5444 H   0  0  0  0  0  0  0  0  0  0  0  0
    4.2000   -1.1199    3.4254 N   0  0  0  0  0  0  0  0  0  0  0  0
    4.7621   -2.4629    3.3421 C   0  0  0  0  0  0  0  0  0  0  0  0
    4.7875   -0.3619    3.7621 H   0  0  0  0  0  0  0  0  0  0  0  0
    4.1280   -3.1785    3.8766 H   0  0  0  0  0  0  0  0  0  0  0  0
    4.8476   -2.7790    2.2972 H   0  0  0  0  0  0  0  0  0  0  0  0
    5.7593   -2.4844    3.7925 H   0  0  0  0  0  0  0  0  0  0  0  0
  1  2  2  0  0  0  0
  1  3  1  0  0  0  0
  1  7  1  0  0  0  0
  3  4  1  0  0  0  0
  3  5  1  0  0  0  0
  3  6  1  0  0  0  0
  7  8  1  0  0  0  0
  7 12  1  0  0  0  0
  8  9  1  0  0  0  0
  8 11  1  0  0  0  0
  8 13  1  0  0  0  0
  9 10  2  0  0  0  0
  9 17  1  0  0  0  0
 11 14  1  0  0  0  0
 11 15  1  0  0  0  0
 11 16  1  0  0  0  0
 17 18  1  0  0  0  0
 17 28  1  0  0  0  0
 18 19  1  0  0  0  0
 18 21  1  0  0  0  0
 18 29  1  0  0  0  0
 19 20  2  0  0  0  0
 19 41  1  0  0  0  0
 21 22  1  0  0  0  0
 21 30  1  0  0  0  0
 21 31  1  0  0  0  0
 22 23  1  0  0  0  0
 22 32  1  0  0  0  0
 22 33  1  0  0  0  0
 23 24  1  0  0  0  0
 23 34  1  0  0  0  0
 23 35  1  0  0  0  0
 24 25  2  0  0  0  0
 24 36  1  0  0  0  0
 25 26  1  0  0  0  0
 25 27  1  0  0  0  0
 26 37  1  0  0  0  0
 26 38  1  0  0  0  0
 27 39  1  0  0  0  0
 27 40  1  0  0  0  0
 41 42  1  0  0  0  0
 41 46  1  0  0  0  0
 42 43  1  0  0  0  0
 42 45  1  0  0  0  0
 42 47  1  0  0  0  0
 43 44  2  0  0  0  0
 43 51  1  0  0  0  0
 45 48  1  0  0  0  0
 45 49  1  0  0  0  0
 45 50  1  0  0  0  0
 51 52  1  0  0  0  0
 51 53  1  0  0  0  0
 52 54  1  0  0  0  0
 52 55  1  0  0  0  0
 52 56  1  0  0  0  0
M  CHG  1  24   1
M  END
$$$$
