
  -OEChem-02062319033D

 56 55  0     1  0  0  0  0  0999 V2000
    0.7735   -5.8042   -2.0022 C   0  0  0  0  0  0  0  0  0  0  0  0
   -0.2086   -6.3825   -1.5519 O   0  0  0  0  0  0  0  0  0  0  0  0
    1.4751   -6.3646   -3.1946 C   0  0  0  0  0  0  0  0  0  0  0  0
    2.2765   -7.0687   -2.9186 H   0  0  0  0  0  0  0  0  0  0  0  0
    0.7988   -6.9360   -3.8504 H   0  0  0  0  0  0  0  0  0  0  0  0
    1.9556   -5.6216   -3.8511 H   0  0  0  0  0  0  0  0  0  0  0  0
    1.3322   -4.6359   -1.5106 N   0  0  0  0  0  0  0  0  0  0  0  0
    0.8124   -3.9290   -0.3698 C   0  0  2  0  0  0  0  0  0  0  0  0
    1.0666   -2.4424   -0.5818 C   0  0  0  0  0  0  0  0  0  0  0  0
    2.0598   -2.0076   -1.1610 O   0  0  0  0  0  0  0  0  0  0  0  0
    1.4560   -4.4118    0.9207 C   0  0  0  0  0  0  0  0  0  0  0  0
    2.1528   -4.2578   -1.9805 H   0  0  0  0  0  0  0  0  0  0  0  0
   -0.2667   -4.1160   -0.3467 H   0  0  0  0  0  0  0  0  0  0  0  0
    2.5374   -4.2329    0.9160 H   0  0  0  0  0  0  0  0  0  0  0  0
    1.0390   -3.8932    1.7903 H   0  0  0  0  0  0  0  0  0  0  0  0
    1.2976   -5.4871    1.0566 H   0  0  0  0  0  0  0  0  0  0  0  0
    0.0755   -1.6529   -0.0105 N   0  0  0  0  0  0  0  0  0  0  0  0
    0.0900   -0.2140   -0.0751 C   0  0  2  0  0  0  0  0  0  0  0  0
    1.3698    0.2623    0.6037 C   0  0  0  0  0  0  0  0  0  0  0  0
    2.1173    1.1026    0.1074 O   0  0  0  0  0  0  0  0  0  0  0  0
   -1.1373    0.4052    0.6015 C   0  0  0  0  0  0  0  0  0  0  0  0
   -2.4379    0.0906   -0.1472 C   0  0  0  0  0  0  0  0  0  0  0  0
   -3.6561    0.7094    0.5306 C   0  0  0  0  0  0  0  0  0  0  0  0
   -4.8959    0.3879   -0.1725 N   0  3  0  0  0  0  0  0  0  0  0  0
   -6.1473    0.7927    0.2958 C   0  0  0  0  0  0  0  0  0  0  0  0
   -7.2859    0.4502   -0.4260 N   0  0  0  0  0  0  0  0  0  0  0  0
   -6.2833    1.5310    1.4668 N   0  0  0  0  0  0  0  0  0  0  0  0
   -0.7173   -2.1030    0.4417 H   0  0  0  0  0  0  0  0  0  0  0  0
    0.1267    0.0559   -1.1367 H   0  0  0  0  0  0  0  0  0  0  0  0
   -1.0094    1.4925    0.6649 H   0  0  0  0  0  0  0  0  0  0  0  0
   -1.2148    0.0419    1.6348 H   0  0  0  0  0  0  0  0  0  0  0  0
   -2.3667    0.4575   -1.1781 H   0  0  0  0  0  0  0  0  0  0  0  0
   -2.5818   -0.9949   -0.1947 H   0  0  0  0  0  0  0  0  0  0  0  0
   -3.7492    0.3184    1.5485 H   0  0  0  0  0  0  0  0  0  0  0  0
   -3.5654    1.7988    0.5789 H   0  0  0  0  0  0  0  0  0  0  0  0
   -4.8594   -0.1505   -1.0363 H   0  0  0  0  0  0  0  0  0  0  0  0
   -8.2123    0.7297   -0.1123 H   0  0  0  0  0  0  0  0  0  0  0  0
   -7.2223   -0.0889   -1.2861 H   0  0  0  0  0  0  0  0  0  0  0  0
   -7.1922    1.8283    1.8122 H   0  0  0  0  0  0  0  0  0  0  0  0
   -5.4685    1.7955    2.0154 H   0  0  0  0  0  0  0  0  0  0  0  0
    1.6018   -0.3972    1.8027 N   0  0  0  0  0  0  0  0  0  0  0  0
    2.7730   -0.1622    2.6154 C   0  0  2  0  0  0  0  0  0  0  0  0
    3.1308   -1.4678    3.3132 C   0  0  0  0  0  0  0  0  0  0  0  0
    2.2885   -2.2809    3.6878 O   0  0  0  0  0  0  0  0  0  0  0  0
    2.5306    0.9465    3.6277 C   0  0  0  0  0  0  0  0  0  0  0  0
    0.9108   -1.0548    2.1515 H   0  0  0  0  0  0  0  0  0  0  0  0
    3.5809    0.1205    1.9318 H   0  0  0  0  0  0  0  0  0  0  0  0
    1.7244    0.6812    4.3214 H   0  0  0  0  0  0  0  0  0  0  0  0
    3.4281    1.1428    4.2236 H   0  0  0  0  0  0  0  0  0  0  0  0
    2.2443    1.8769    3.1257 H   0  0  0  0  0  0  0  0  0  0  0  0
    4.4989   -1.5980    3.5070 N   0  0  0  0  0  0  0  0  0  0  0  0
    5.0860   -2.7300    4.1852 C   0  0  0  0  0  0  0  0  0  0  0  0
    5.1264   -0.8948    3.1283 H   0  0  0  0  0  0  0  0  0  0  0  0
    5.1967   -2.5001    5.2552 H   0  0  0  0  0  0  0  0  0  0  0  0
    4.4343   -3.6080    4.0645 H   0  0  0  0  0  0  0  0  0  0  0  0
    6.0741   -2.9446    3.7523 H   0  0  0  0  0  0  0  0  0  0  0  0
  1  3  1  0  0  0  0
  1  7  1  0  0  0  0
  1  2  2  0  0  0  0
 42 43  1  0  0  0  0
 43 51  1  0  0  0  0
 43 44  2  0  0  0  0
  8  9  1  0  0  0  0
  9 17  1  0  0  0  0
  9 10  2  0  0  0  0
 18 19  1  0  0  0  0
 19 41  1  0  0  0  0
 19 20  2  0  0  0  0
 25 26  1  0  0  0  0
 25 27  1  0  0  0  0
 24 25  2  0  0  0  0
 42 45  1  0  0  0  0
  8 11  1  0  0  0  0
 51 52  1  0  0  0  0
 21 22  1  0  0  0  0
 22 23  1  0  0  0  0
 18 21  1  0  0  0  0
 23 24  1  0  0  0  0
 41 42  1  0  0  0  0
  7  8  1  0  0  0  0
 17 18  1  0  0  0  0
  3  4  1  0  0  0  0
  3  5  1  0  0  0  0
  3  6  1  0  0  0  0
 45 48  1  0  0  0  0
 45 49  1  0  0  0  0
 45 50  1  0  0  0  0
 11 14  1  0  0  0  0
 11 15  1  0  0  0  0
 11 16  1  0  0  0  0
 52 54  1  0  0  0  0
 52 55  1  0  0  0  0
 52 56  1  0  0  0  0
 22 32  1  0  0  0  0
 22 33  1  0  0  0  0
 21 30  1  0  0  0  0
 21 31  1  0  0  0  0
 23 34  1  0  0  0  0
 23 35  1  0  0  0  0
 42 47  1  0  0  0  0
  8 13  1  0  0  0  0
 18 29  1  0  0  0  0
 26 37  1  0  0  0  0
 26 38  1  0  0  0  0
 27 39  1  0  0  0  0
 27 40  1  0  0  0  0
 51 53  1  0  0  0  0
  7 12  1  0  0  0  0
 41 46  1  0  0  0  0
 17 28  1  0  0  0  0
 24 36  1  0  0  0  0
M  CHG  1  24   1
M  END
$$$$

  -OEChem-02062319033D

 56 55  0     1  0  0  0  0  0999 V2000
    0.7735   -5.8042   -2.0022 C   0  0  0  0  0  0  0  0  0  0  0  0
   -0.2086   -6.3825   -1.5519 O   0  0  0  0  0  0  0  0  0  0  0  0
    1.4751   -6.3646   -3.1946 C   0  0  0  0  0  0  0  0  0  0  0  0
    2.2765   -7.0687   -2.9186 H   0  0  0  0  0  0  0  0  0  0  0  0
    0.7988   -6.9360   -3.8504 H   0  0  0  0  0  0  0  0  0  0  0  0
    1.9556   -5.6216   -3.8511 H   0  0  0  0  0  0  0  0  0  0  0  0
    1.3322   -4.6359   -1.5106 N   0  0  0  0  0  0  0  0  0  0  0  0
    0.8124   -3.9290   -0.3698 C   0  0  2  0  0  0  0  0  0  0  0  0
    1.0666   -2.4424   -0.5818 C   0  0  0  0  0  0  0  0  0  0  0  0
    2.0598   -2.0076   -1.1610 O   0  0  0  0  0  0  0  0  0  0  0  0
    1.4560   -4.4118    0.9207 C   0  0  0  0  0  0  0  0  0  0  0  0
    2.1528   -4.2578   -1.9805 H   0  0  0  0  0  0  0  0  0  0  0  0
   -0.2667   -4.1160   -0.3467 H   0  0  0  0  0  0  0  0  0  0  0  0
    2.5374   -4.2329    0.9160 H   0  0  0  0  0  0  0  0  0  0  0  0
    1.0390   -3.8932    1.7903 H   0  0  0  0  0  0  0  0  0  0  0  0
    1.2976   -5.4871    1.0566 H   0  0  0  0  0  0  0  0  0  0  0  0
    0.0755   -1.6529   -0.0105 N   0  0  0  0  0  0  0  0  0  0  0  0
   -0.0920   -0.2583   -0.3296 C   0  0  2  0  0  0  0  0  0  0  0  0
    1.2021    0.4561    0.0449 C   0  0  0  0  0  0  0  0  0  0  0  0
    1.7680    1.2508   -0.7031 O   0  0  0  0  0  0  0  0  0  0  0  0
   -1.2804    0.3632    0.4111 C   0  0  0  0  0  0  0  0  0  0  0  0
   -2.6241   -0.2086   -0.0566 C   0  0  0  0  0  0  0  0  0  0  0  0
   -3.8033    0.4136    0.6840 C   0  0  0  0  0  0  0  0  0  0  0  0
   -5.0801   -0.1507    0.2522 N   0  3  0  0  0  0  0  0  0  0  0  0
   -6.2950    0.2191    0.8322 C   0  0  0  0  0  0  0  0  0  0  0  0
   -7.4722   -0.3598    0.3702 N   0  0  0  0  0  0  0  0  0  0  0  0
   -6.3570    1.1532    1.8611 N   0  0  0  0  0  0  0  0  0  0  0  0
   -0.5879   -2.0789    0.6328 H   0  0  0  0  0  0  0  0  0  0  0  0
   -0.2339   -0.1956   -1.4146 H   0  0  0  0  0  0  0  0  0  0  0  0
   -1.2767    1.4495    0.2607 H   0  0  0  0  0  0  0  0  0  0  0  0
   -1.1714    0.2000    1.4915 H   0  0  0  0  0  0  0  0  0  0  0  0
   -2.7394   -0.0421   -1.1343 H   0  0  0  0  0  0  0  0  0  0  0  0
   -2.6416   -1.2916    0.1115 H   0  0  0  0  0  0  0  0  0  0  0  0
   -3.7084    0.2190    1.7567 H   0  0  0  0  0  0  0  0  0  0  0  0
   -3.8384    1.4956    0.5243 H   0  0  0  0  0  0  0  0  0  0  0  0
   -5.0979   -0.8396   -0.4978 H   0  0  0  0  0  0  0  0  0  0  0  0
   -8.3738   -0.1122    0.7710 H   0  0  0  0  0  0  0  0  0  0  0  0
   -7.4628   -1.0462   -0.3804 H   0  0  0  0  0  0  0  0  0  0  0  0
   -7.2391    1.4259    2.2869 H   0  0  0  0  0  0  0  0  0  0  0  0
   -5.5125    1.5927    2.2195 H   0  0  0  0  0  0  0  0  0  0  0  0
    1.6738    0.0642    1.2899 N   0  0  0  0  0  0  0  0  0  0  0  0
    2.9085    0.5586    1.8543 C   0  0  2  0  0  0  0  0  0  0  0  0
    3.5128   -0.5494    2.7067 C   0  0  0  0  0  0  0  0  0  0  0  0
    2.8337   -1.3496    3.3466 O   0  0  0  0  0  0  0  0  0  0  0  0
    2.6756    1.8141    2.6802 C   0  0  0  0  0  0  0  0  0  0  0  0
    1.1212   -0.5751    1.8535 H   0  0  0  0  0  0  0  0  0  0  0  0
    3.5751    0.7780    1.0133 H   0  0  0  0  0  0  0  0  0  0  0  0
    2.0099    1.6139    3.5277 H   0  0  0  0  0  0  0  0  0  0  0  0
    3.6161    2.2037    3.0837 H   0  0  0  0  0  0  0  0  0  0  0  0
    2.2135    2.6000    2.0730 H   0  0  0  0  0  0  0  0  0  0  0  0
    4.9002   -0.5126    2.7033 N   0  0  0  0  0  0  0  0  0  0  0  0
    5.7064   -1.4336    3.4700 C   0  0  0  0  0  0  0  0  0  0  0  0
    5.3808    0.1596    2.1126 H   0  0  0  0  0  0  0  0  0  0  0  0
    5.9343   -0.9927    4.4517 H   0  0  0  0  0  0  0  0  0  0  0  0
    5.1546   -2.3748    3.6100 H   0  0  0  0  0  0  0  0  0  0  0  0
    6.6445   -1.6351    2.9320 H   0  0  0  0  0  0  0  0  0  0  0  0
  1  3  1  0  0  0  0
  1  7  1  0  0  0  0
  1  2  2  0  0  0  0
 42 43  1  0  0  0  0
 43 51  1  0  0  0  0
 43 44  2  0  0  0  0
  8  9  1  0  0  0  0
  9 17  1  0  0  0  0
  9 10  2  0  0  0  0
 18 19  1  0  0  0  0
 19 41  1  0  0  0  0
 19 20  2  0  0  0  0
 25 26  1  0  0  0  0
 25 27  1  0  0  0  0
 24 25  2  0  0  0  0
 42 45  1  0  0  0  0
  8 11  1  0  0  0  0
 51 52  1  0  0  0  0
 21 22  1  0  0  0  0
 22 23  1  0  0  0  0
 18 21  1  0  0  0  0
 23 24  1  0  0  0  0
 41 42  1  0  0  0  0
  7  8  1  0  0  0  0
 17 18  1  0  0  0  0
  3  4  1  0  0  0  0
  3  5  1  0  0  0  0
  3  6  1  0  0  0  0
 45 48  1  0  0  0  0
 45 49  1  0  0  0  0
 45 50  1  0  0  0  0
 11 14  1  0  0  0  0
 11 15  1  0  0  0  0
 11 16  1  0  0  0  0
 52 54  1  0  0  0  0
 52 55  1  0  0  0  0
 52 56  1  0  0  0  0
 22 32  1  0  0  0  0
 22 33  1  0  0  0  0
 21 30  1  0  0  0  0
 21 31  1  0  0  0  0
 23 34  1  0  0  0  0
 23 35  1  0  0  0  0
 42 47  1  0  0  0  0
  8 13  1  0  0  0  0
 18 29  1  0  0  0  0
 26 37  1  0  0  0  0
 26 38  1  0  0  0  0
 27 39  1  0  0  0  0
 27 40  1  0  0  0  0
 51 53  1  0  0  0  0
  7 12  1  0  0  0  0
 41 46  1  0  0  0  0
 17 28  1  0  0  0  0
 24 36  1  0  0  0  0
M  CHG  1  24   1
M  END
$$$$

  -OEChem-02062319033D

 56 55  0     1  0  0  0  0  0999 V2000
    0.7735   -5.8042   -2.0022 C   0  0  0  0  0  0  0  0  0  0  0  0
   -0.2086   -6.3825   -1.5519 O   0  0  0  0  0  0  0  0  0  0  0  0
    1.4751   -6.3646   -3.1946 C   0  0  0  0  0  0  0  0  0  0  0  0
    2.2765   -7.0687   -2.9186 H   0  0  0  0  0  0  0  0  0  0  0  0
    0.7988   -6.9360   -3.8504 H   0  0  0  0  0  0  0  0  0  0  0  0
    1.9556   -5.6216   -3.8511 H   0  0  0  0  0  0  0  0  0  0  0  0
    1.3322   -4.6359   -1.5106 N   0  0  0  0  0  0  0  0  0  0  0  0
    0.8124   -3.9290   -0.3698 C   0  0  2  0  0  0  0  0  0  0  0  0
    1.0666   -2.4424   -0.5818 C   0  0  0  0  0  0  0  0  0  0  0  0
    2.0598   -2.0076   -1.1610 O   0  0  0  0  0  0  0  0  0  0  0  0
    1.4560   -4.4118    0.9207 C   0  0  0  0  0  0  0  0  0  0  0  0
    2.1528   -4.2578   -1.9805 H   0  0  0  0  0  0  0  0  0  0  0  0
   -0.2667   -4.1160   -0.3467 H   0  0  0  0  0  0  0  0  0  0  0  0
    2.5374   -4.2329    0.9160 H   0  0  0  0  0  0  0  0  0  0  0  0
    1.0390   -3.8932    1.7903 H   0  0  0  0  0  0  0  0  0  0  0  0
    1.2976   -5.4871    1.0566 H   0  0  0  0  0  0  0  0  0  0  0  0
    0.0755   -1.6529   -0.0105 N   0  0  0  0  0  0  0  0  0  0  0  0
   -0.3006   -0.3675   -0.5406 C   0  0  2  0  0  0  0  0  0  0  0  0
    0.9373    0.5224   -0.5060 C   0  0  0  0  0  0  0  0  0  0  0  0
    1.2958    1.2071   -1.4620 O   0  0  0  0  0  0  0  0  0  0  0  0
   -1.4423    0.2723    0.2560 C   0  0  0  0  0  0  0  0  0  0  0  0
   -2.7588   -0.5008    0.1135 C   0  0  0  0  0  0  0  0  0  0  0  0
   -3.8915    0.1405    0.9084 C   0  0  0  0  0  0  0  0  0  0  0  0
   -5.1383   -0.6121    0.7889 N   0  3  0  0  0  0  0  0  0  0  0  0
   -6.2978   -0.2517    1.4780 C   0  0  0  0  0  0  0  0  0  0  0  0
   -7.4491   -1.0152    1.3161 N   0  0  0  0  0  0  0  0  0  0  0  0
   -6.3301    0.8532    2.3225 N   0  0  0  0  0  0  0  0  0  0  0  0
   -0.4375   -2.0067    0.7940 H   0  0  0  0  0  0  0  0  0  0  0  0
   -0.5962   -0.5282   -1.5836 H   0  0  0  0  0  0  0  0  0  0  0  0
   -1.5897    1.3049   -0.0825 H   0  0  0  0  0  0  0  0  0  0  0  0
   -1.1674    0.3309    1.3175 H   0  0  0  0  0  0  0  0  0  0  0  0
   -3.0398   -0.5562   -0.9450 H   0  0  0  0  0  0  0  0  0  0  0  0
   -2.6228   -1.5280    0.4709 H   0  0  0  0  0  0  0  0  0  0  0  0
   -3.6279    0.1656    1.9702 H   0  0  0  0  0  0  0  0  0  0  0  0
   -4.0780    1.1635    0.5677 H   0  0  0  0  0  0  0  0  0  0  0  0
   -5.1757   -1.4311    0.1846 H   0  0  0  0  0  0  0  0  0  0  0  0
   -8.3103   -0.7796    1.8034 H   0  0  0  0  0  0  0  0  0  0  0  0
   -7.4601   -1.8293    0.7065 H   0  0  0  0  0  0  0  0  0  0  0  0
   -7.1718    1.1199    2.8265 H   0  0  0  0  0  0  0  0  0  0  0  0
   -5.5033    1.4297    2.4606 H   0  0  0  0  0  0  0  0  0  0  0  0
    1.6188    0.4229    0.6990 N   0  0  0  0  0  0  0  0  0  0  0  0
    2.8508    1.1288    0.9662 C   0  0  2  0  0  0  0  0  0  0  0  0
    3.6950    0.2664    1.8953 C   0  0  0  0  0  0  0  0  0  0  0  0
    3.2110   -0.4550    2.7649 O   0  0  0  0  0  0  0  0  0  0  0  0
    2.5841    2.4928    1.5836 C   0  0  0  0  0  0  0  0  0  0  0  0
    1.2295   -0.1444    1.4462 H   0  0  0  0  0  0  0  0  0  0  0  0
    3.3647    1.2430    0.0055 H   0  0  0  0  0  0  0  0  0  0  0  0
    2.0697    2.3987    2.5469 H   0  0  0  0  0  0  0  0  0  0  0  0
    3.5173    3.0381    1.7591 H   0  0  0  0  0  0  0  0  0  0  0  0
    1.9521    3.1008    0.9273 H   0  0  0  0  0  0  0  0  0  0  0  0
    5.0542    0.4301    1.6676 N   0  0  0  0  0  0  0  0  0  0  0  0
    6.0627   -0.2474    2.4486 C   0  0  0  0  0  0  0  0  0  0  0  0
    5.3650    1.0176    0.8994 H   0  0  0  0  0  0  0  0  0  0  0  0
    6.3682    0.3934    3.2889 H   0  0  0  0  0  0  0  0  0  0  0  0
    5.6524   -1.1910    2.8376 H   0  0  0  0  0  0  0  0  0  0  0  0
    6.9355   -0.4609    1.8142 H   0  0  0  0  0  0  0  0  0  0  0  0
  1  3  1  0  0  0  0
  1  7  1  0  0  0  0
  1  2  2  0  0  0  0
 42 43  1  0  0  0  0
 43 51  1  0  0  0  0
 43 44  2  0  0  0  0
  8  9  1  0  0  0  0
  9 17  1  0  0  0  0
  9 10  2  0  0  0  0
 18 19  1  0  0  0  0
 19 41  1  0  0  0  0
 19 20  2  0  0  0  0
 25 26  1  0  0  0  0
 25 27  1  0  0  0  0
 24 25  2  0  0  0  0
 42 45  1  0  0  0  0
  8 11  1  0  0  0  0
 51 52  1  0  0  0  0
 21 22  1  0  0  0  0
 22 23  1  0  0  0  0
 18 21  1  0  0  0  0
 23 24  1  0  0  0  0
 41 42  1  0  0  0  0
  7  8  1  0  0  0  0
 17 18  1  0  0  0  0
  3  4  1  0  0  0  0
  3  5  1  0  0  0  0
  3  6  1  0  0  0  0
 45 48  1  0  0  0  0
 45 49  1  0  0  0  0
 45 50  1  0  0  0  0
 11 14  1  0  0  0  0
 11 15  1  0  0  0  0
 11 16  1  0  0  0  0
 52 54  1  0  0  0  0
 52 55  1  0  0  0  0
 52 56  1  0  0  0  0
 22 32  1  0  0  0  0
 22 33  1  0  0  0  0
 21 30  1  0  0  0  0
 21 31  1  0  0  0  0
 23 34  1  0  0  0  0
 23 35  1  0  0  0  0
 42 47  1  0  0  0  0
  8 13  1  0  0  0  0
 18 29  1  0  0  0  0
 26 37  1  0  0  0  0
 26 38  1  0  0  0  0
 27 39  1  0  0  0  0
 27 40  1  0  0  0  0
 51 53  1  0  0  0  0
  7 12  1  0  0  0  0
 41 46  1  0  0  0  0
 17 28  1  0  0  0  0
 24 36  1  0  0  0  0
M  CHG  1  24   1
M  END
$$$$

  -OEChem-02062319033D

 56 55  0     1  0  0  0  0  0999 V2000
    0.7735   -5.8042   -2.0022 C   0  0  0  0  0  0  0  0  0  0  0  0
   -0.2086   -6.3825   -1.5519 O   0  0  0  0  0  0  0  0  0  0  0  0
    1.4751   -6.3646   -3.1946 C   0  0  0  0  0  0  0  0  0  0  0  0
    2.2765   -7.0687   -2.9186 H   0  0  0  0  0  0  0  0  0  0  0  0
    0.7988   -6.9360   -3.8504 H   0  0  0  0  0  0  0  0  0  0  0  0
    1.9556   -5.6216   -3.8511 H   0  0  0  0  0  0  0  0  0  0  0  0
    1.3322   -4.6359   -1.5106 N   0  0  0  0  0  0  0  0  0  0  0  0
    0.8124   -3.9290   -0.3698 C   0  0  2  0  0  0  0  0  0  0  0  0
    1.0666   -2.4424   -0.5818 C   0  0  0  0  0  0  0  0  0  0  0  0
    2.0598   -2.0076   -1.1610 O   0  0  0  0  0  0  0  0  0  0  0  0
    1.4560   -4.4118    0.9207 C   0  0  0  0  0  0  0  0  0  0  0  0
    2.1528   -4.2578   -1.9805 H   0  0  0  0  0  0  0  0  0  0  0  0
   -0.2667   -4.1160   -0.3467 H   0  0  0  0  0  0  0  0  0  0  0  0
    2.5374   -4.2329    0.9160 H   0  0  0  0  0  0  0  0  0  0  0  0
    1.0390   -3.8932    1.7903 H   0  0  0  0  0  0  0  0  0  0  0  0
    1.2976   -5.4871    1.0566 H   0  0  0  0  0  0  0  0  0  0  0  0
    0.0755   -1.6529   -0.0105 N   0  0  0  0  0  0  0  0  0  0  0  0
   -0.5214   -0.5340   -0.6935 C   0  0  2  0  0  0  0  0  0  0  0  0
    0.5936    0.4566   -1.0114 C   0  0  0  0  0  0  0  0  0  0  0  0
    0.7327    0.9747   -2.1175 O   0  0  0  0  0  0  0  0  0  0  0  0
   -1.6117    0.1387    0.1468 C   0  0  0  0  0  0  0  0  0  0  0  0
   -2.8328   -0.7659    0.3516 C   0  0  0  0  0  0  0  0  0  0  0  0
   -3.9147   -0.0913    1.1886 C   0  0  0  0  0  0  0  0  0  0  0  0
   -5.0665   -0.9649    1.4011 N   0  3  0  0  0  0  0  0  0  0  0  0
   -6.1555   -0.5876    2.1890 C   0  0  0  0  0  0  0  0  0  0  0  0
   -7.2179   -1.4712    2.3473 N   0  0  0  0  0  0  0  0  0  0  0  0
   -6.2043    0.6514    2.8196 N   0  0  0  0  0  0  0  0  0  0  0  0
   -0.2761   -1.8911    0.9142 H   0  0  0  0  0  0  0  0  0  0  0  0
   -0.9357   -0.9192   -1.6322 H   0  0  0  0  0  0  0  0  0  0  0  0
   -1.9272    1.0686   -0.3414 H   0  0  0  0  0  0  0  0  0  0  0  0
   -1.2030    0.4257    1.1247 H   0  0  0  0  0  0  0  0  0  0  0  0
   -3.2475   -1.0498   -0.6231 H   0  0  0  0  0  0  0  0  0  0  0  0
   -2.5266   -1.6880    0.8588 H   0  0  0  0  0  0  0  0  0  0  0  0
   -3.5130    0.1621    2.1744 H   0  0  0  0  0  0  0  0  0  0  0  0
   -4.2677    0.8252    0.7061 H   0  0  0  0  0  0  0  0  0  0  0  0
   -5.0877   -1.8848    0.9644 H   0  0  0  0  0  0  0  0  0  0  0  0
   -8.0263   -1.2270    2.9144 H   0  0  0  0  0  0  0  0  0  0  0  0
   -7.2144   -2.3849    1.9005 H   0  0  0  0  0  0  0  0  0  0  0  0
   -6.9949    0.9311    3.3944 H   0  0  0  0  0  0  0  0  0  0  0  0
   -5.4418    1.3177    2.7221 H   0  0  0  0  0  0  0  0  0  0  0  0
    1.4407    0.6544    0.0700 N   0  0  0  0  0  0  0  0  0  0  0  0
    2.6038    1.5096    0.0116 C   0  0  2  0  0  0  0  0  0  0  0  0
    3.6648    0.9241    0.9341 C   0  0  0  0  0  0  0  0  0  0  0  0
    3.3949    0.3419    1.9825 O   0  0  0  0  0  0  0  0  0  0  0  0
    2.2623    2.9362    0.4125 C   0  0  0  0  0  0  0  0  0  0  0  0
    1.2285    0.2081    0.9574 H   0  0  0  0  0  0  0  0  0  0  0  0
    2.9637    1.4837   -1.0227 H   0  0  0  0  0  0  0  0  0  0  0  0
    1.8998    2.9821    1.4459 H   0  0  0  0  0  0  0  0  0  0  0  0
    3.1383    3.5892    0.3403 H   0  0  0  0  0  0  0  0  0  0  0  0
    1.4779    3.3454   -0.2333 H   0  0  0  0  0  0  0  0  0  0  0  0
    4.9504    1.1660    0.4706 N   0  0  0  0  0  0  0  0  0  0  0  0
    6.1304    0.7479    1.1908 C   0  0  0  0  0  0  0  0  0  0  0  0
    5.0801    1.6208   -0.4284 H   0  0  0  0  0  0  0  0  0  0  0  0
    6.4690    1.5639    1.8461 H   0  0  0  0  0  0  0  0  0  0  0  0
    5.8938   -0.1371    1.7998 H   0  0  0  0  0  0  0  0  0  0  0  0
    6.9274    0.4980    0.4750 H   0  0  0  0  0  0  0  0  0  0  0  0
  1  3  1  0  0  0  0
  1  7  1  0  0  0  0
  1  2  2  0  0  0  0
 42 43  1  0  0  0  0
 43 51  1  0  0  0  0
 43 44  2  0  0  0  0
  8  9  1  0  0  0  0
  9 17  1  0  0  0  0
  9 10  2  0  0  0  0
 18 19  1  0  0  0  0
 19 41  1  0  0  0  0
 19 20  2  0  0  0  0
 25 26  1  0  0  0  0
 25 27  1  0  0  0  0
 24 25  2  0  0  0  0
 42 45  1  0  0  0  0
  8 11  1  0  0  0  0
 51 52  1  0  0  0  0
 21 22  1  0  0  0  0
 22 23  1  0  0  0  0
 18 21  1  0  0  0  0
 23 24  1  0  0  0  0
 41 42  1  0  0  0  0
  7  8  1  0  0  0  0
 17 18  1  0  0  0  0
  3  4  1  0  0  0  0
  3  5  1  0  0  0  0
  3  6  1  0  0  0  0
 45 48  1  0  0  0  0
 45 49  1  0  0  0  0
 45 50  1  0  0  0  0
 11 14  1  0  0  0  0
 11 15  1  0  0  0  0
 11 16  1  0  0  0  0
 52 54  1  0  0  0  0
 52 55  1  0  0  0  0
 52 56  1  0  0  0  0
 22 32  1  0  0  0  0
 22 33  1  0  0  0  0
 21 30  1  0  0  0  0
 21 31  1  0  0  0  0
 23 34  1  0  0  0  0
 23 35  1  0  0  0  0
 42 47  1  0  0  0  0
  8 13  1  0  0  0  0
 18 29  1  0  0  0  0
 26 37  1  0  0  0  0
 26 38  1  0  0  0  0
 27 39  1  0  0  0  0
 27 40  1  0  0  0  0
 51 53  1  0  0  0  0
  7 12  1  0  0  0  0
 41 46  1  0  0  0  0
 17 28  1  0  0  0  0
 24 36  1  0  0  0  0
M  CHG  1  24   1
M  END
$$$$

  -OEChem-02062319033D

 56 55  0     1  0  0  0  0  0999 V2000
    0.7735   -5.8042   -2.0022 C   0  0  0  0  0  0  0  0  0  0  0  0
   -0.2086   -6.3825   -1.5519 O   0  0  0  0  0  0  0  0  0  0  0  0
    1.4751   -6.3646   -3.1946 C   0  0  0  0  0  0  0  0  0  0  0  0
    2.2765   -7.0687   -2.9186 H   0  0  0  0  0  0  0  0  0  0  0  0
    0.7988   -6.9360   -3.8504 H   0  0  0  0  0  0  0  0  0  0  0  0
    1.9556   -5.6216   -3.8511 H   0  0  0  0  0  0  0  0  0  0  0  0
    1.3322   -4.6359   -1.5106 N   0  0  0  0  0  0  0  0  0  0  0  0
    0.8124   -3.9290   -0.3698 C   0  0  2  0  0  0  0  0  0  0  0  0
    1.0666   -2.4424   -0.5818 C   0  0  0  0  0  0  0  0  0  0  0  0
    2.0598   -2.0076   -1.1610 O   0  0  0  0  0  0  0  0  0  0  0  0
    1.4560   -4.4118    0.9207 C   0  0  0  0  0  0  0  0  0  0  0  0
    2.1528   -4.2578   -1.9805 H   0  0  0  0  0  0  0  0  0  0  0  0
   -0.2667   -4.1160   -0.3467 H   0  0  0  0  0  0  0  0  0  0  0  0
    2.5374   -4.2329    0.9160 H   0  0  0  0  0  0  0  0  0  0  0  0
    1.0390   -3.8932    1.7903 H   0  0  0  0  0  0  0  0  0  0  0  0
    1.2976   -5.4871    1.0566 H   0  0  0  0  0  0  0  0  0  0  0  0
    0.0755   -1.6529   -0.0105 N   0  0  0  0  0  0  0  0  0  0  0  0
   -0.7395   -0.7466   -0.7780 C   0  0  2  0  0  0  0  0  0  0  0  0
    0.1942    0.2632   -1.4369 C   0  0  0  0  0  0  0  0  0  0  0  0
    0.1172    0.5693   -2.6251 O   0  0  0  0  0  0  0  0  0  0  0  0
   -1.7772   -0.0286    0.0908 C   0  0  0  0  0  0  0  0  0  0  0  0
   -2.8410   -0.9859    0.6413 C   0  0  0  0  0  0  0  0  0  0  0  0
   -3.8712   -0.2660    1.5053 C   0  0  0  0  0  0  0  0  0  0  0  0
   -4.8696   -1.1851    2.0469 N   0  3  0  0  0  0  0  0  0  0  0  0
   -5.8777   -0.7656    2.9169 C   0  0  0  0  0  0  0  0  0  0  0  0
   -6.7945   -1.6967    3.3935 N   0  0  0  0  0  0  0  0  0  0  0  0
   -5.9882    0.5616    3.3185 N   0  0  0  0  0  0  0  0  0  0  0  0
   -0.1149   -1.7402    0.9853 H   0  0  0  0  0  0  0  0  0  0  0  0
   -1.2292   -1.3419   -1.5571 H   0  0  0  0  0  0  0  0  0  0  0  0
   -2.2661    0.7567   -0.4982 H   0  0  0  0  0  0  0  0  0  0  0  0
   -1.2759    0.4779    0.9262 H   0  0  0  0  0  0  0  0  0  0  0  0
   -3.3482   -1.4893   -0.1905 H   0  0  0  0  0  0  0  0  0  0  0  0
   -2.3597   -1.7608    1.2489 H   0  0  0  0  0  0  0  0  0  0  0  0
   -3.3716    0.2086    2.3555 H   0  0  0  0  0  0  0  0  0  0  0  0
   -4.3945    0.5039    0.9301 H   0  0  0  0  0  0  0  0  0  0  0  0
   -4.8397   -2.1698    1.7884 H   0  0  0  0  0  0  0  0  0  0  0  0
   -7.5409   -1.4238    4.0283 H   0  0  0  0  0  0  0  0  0  0  0  0
   -6.7425   -2.6751    3.1201 H   0  0  0  0  0  0  0  0  0  0  0  0
   -6.7204    0.8723    3.9517 H   0  0  0  0  0  0  0  0  0  0  0  0
   -5.3319    1.2644    2.9864 H   0  0  0  0  0  0  0  0  0  0  0  0
    1.1516    0.7430   -0.5540 N   0  0  0  0  0  0  0  0  0  0  0  0
    2.1844    1.6749   -0.9444 C   0  0  2  0  0  0  0  0  0  0  0  0
    3.4244    1.3788   -0.1113 C   0  0  0  0  0  0  0  0  0  0  0  0
    3.3726    0.9868    1.0527 O   0  0  0  0  0  0  0  0  0  0  0  0
    1.7321    3.1142   -0.7532 C   0  0  0  0  0  0  0  0  0  0  0  0
    1.1182    0.4582    0.4203 H   0  0  0  0  0  0  0  0  0  0  0  0
    2.3997    1.4839   -2.0014 H   0  0  0  0  0  0  0  0  0  0  0  0
    1.5118    3.3244    0.2998 H   0  0  0  0  0  0  0  0  0  0  0  0
    2.5051    3.8193   -1.0762 H   0  0  0  0  0  0  0  0  0  0  0  0
    0.8231    3.3170   -1.3298 H   0  0  0  0  0  0  0  0  0  0  0  0
    4.5959    1.6449   -0.8062 N   0  0  0  0  0  0  0  0  0  0  0  0
    5.9051    1.4843   -0.2178 C   0  0  0  0  0  0  0  0  0  0  0  0
    4.5456    1.9282   -1.7804 H   0  0  0  0  0  0  0  0  0  0  0  0
    6.2297    2.4390    0.2217 H   0  0  0  0  0  0  0  0  0  0  0  0
    5.8622    0.7151    0.5673 H   0  0  0  0  0  0  0  0  0  0  0  0
    6.6206    1.1761   -0.9944 H   0  0  0  0  0  0  0  0  0  0  0  0
  1  3  1  0  0  0  0
  1  7  1  0  0  0  0
  1  2  2  0  0  0  0
 42 43  1  0  0  0  0
 43 51  1  0  0  0  0
 43 44  2  0  0  0  0
  8  9  1  0  0  0  0
  9 17  1  0  0  0  0
  9 10  2  0  0  0  0
 18 19  1  0  0  0  0
 19 41  1  0  0  0  0
 19 20  2  0  0  0  0
 25 26  1  0  0  0  0
 25 27  1  0  0  0  0
 24 25  2  0  0  0  0
 42 45  1  0  0  0  0
  8 11  1  0  0  0  0
 51 52  1  0  0  0  0
 21 22  1  0  0  0  0
 22 23  1  0  0  0  0
 18 21  1  0  0  0  0
 23 24  1  0  0  0  0
 41 42  1  0  0  0  0
  7  8  1  0  0  0  0
 17 18  1  0  0  0  0
  3  4  1  0  0  0  0
  3  5  1  0  0  0  0
  3  6  1  0  0  0  0
 45 48  1  0  0  0  0
 45 49  1  0  0  0  0
 45 50  1  0  0  0  0
 11 14  1  0  0  0  0
 11 15  1  0  0  0  0
 11 16  1  0  0  0  0
 52 54  1  0  0  0  0
 52 55  1  0  0  0  0
 52 56  1  0  0  0  0
 22 32  1  0  0  0  0
 22 33  1  0  0  0  0
 21 30  1  0  0  0  0
 21 31  1  0  0  0  0
 23 34  1  0  0  0  0
 23 35  1  0  0  0  0
 42 47  1  0  0  0  0
  8 13  1  0  0  0  0
 18 29  1  0  0  0  0
 26 37  1  0  0  0  0
 26 38  1  0  0  0  0
 27 39  1  0  0  0  0
 27 40  1  0  0  0  0
 51 53  1  0  0  0  0
  7 12  1  0  0  0  0
 41 46  1  0  0  0  0
 17 28  1  0  0  0  0
 24 36  1  0  0  0  0
M  CHG  1  24   1
M  END
$$$$

  -OEChem-02062319033D

 56 55  0     1  0  0  0  0  0999 V2000
    0.7735   -5.8042   -2.0022 C   0  0  0  0  0  0  0  0  0  0  0  0
   -0.2086   -6.3825   -1.5519 O   0  0  0  0  0  0  0  0  0  0  0  0
    1.4751   -6.3646   -3.1946 C   0  0  0  0  0  0  0  0  0  0  0  0
    2.2765   -7.0687   -2.9186 H   0  0  0  0  0  0  0  0  0  0  0  0
    0.7988   -6.9360   -3.8504 H   0  0  0  0  0  0  0  0  0  0  0  0
    1.9556   -5.6216   -3.8511 H   0  0  0  0  0  0  0  0  0  0  0  0
    1.3322   -4.6359   -1.5106 N   0  0  0  0  0  0  0  0  0  0  0  0
    0.8124   -3.9290   -0.3698 C   0  0  2  0  0  0  0  0  0  0  0  0
    1.0666   -2.4424   -0.5818 C   0  0  0  0  0  0  0  0  0  0  0  0
    2.0598   -2.0076   -1.1610 O   0  0  0  0  0  0  0  0  0  0  0  0
    1.4560   -4.4118    0.9207 C   0  0  0  0  0  0  0  0  0  0  0  0
    2.1528   -4.2578   -1.9805 H   0  0  0  0  0  0  0  0  0  0  0  0
   -0.2667   -4.1160   -0.3467 H   0  0  0  0  0  0  0  0  0  0  0  0
    2.5374   -4.2329    0.9160 H   0  0  0  0  0  0  0  0  0  0  0  0
    1.0390   -3.8932    1.7903 H   0  0  0  0  0  0  0  0  0  0  0  0
    1.2976   -5.4871    1.0566 H   0  0  0  0  0  0  0  0  0  0  0  0
    0.0755   -1.6529   -0.0105 N   0  0  0  0  0  0  0  0  0  0  0  0
   -0.9399   -0.9907   -0.7884 C   0  0  2  0  0  0  0  0  0  0  0  0
   -0.2335   -0.0446   -1.7536 C   0  0  0  0  0  0  0  0  0  0  0  0
   -0.5088    0.0186   -2.9500 O   0  0  0  0  0  0  0  0  0  0  0  0
   -1.9275   -0.2181    0.0920 C   0  0  0  0  0  0  0  0  0  0  0  0
   -2.7830   -1.1459    0.9629 C   0  0  0  0  0  0  0  0  0  0  0  0
   -3.7641   -0.3716    1.8371 C   0  0  0  0  0  0  0  0  0  0  0  0
   -4.5611   -1.2577    2.6825 N   0  3  0  0  0  0  0  0  0  0  0  0
   -5.4835   -0.7738    3.6120 C   0  0  0  0  0  0  0  0  0  0  0  0
   -6.2077   -1.6765    4.3834 N   0  0  0  0  0  0  0  0  0  0  0  0
   -5.6966    0.5899    3.7851 N   0  0  0  0  0  0  0  0  0  0  0  0
    0.0353   -1.5641    1.0024 H   0  0  0  0  0  0  0  0  0  0  0  0
   -1.4566   -1.7676   -1.3634 H   0  0  0  0  0  0  0  0  0  0  0  0
   -2.5833    0.3904   -0.5422 H   0  0  0  0  0  0  0  0  0  0  0  0
   -1.3810    0.4839    0.7356 H   0  0  0  0  0  0  0  0  0  0  0  0
   -3.3352   -1.8447    0.3232 H   0  0  0  0  0  0  0  0  0  0  0  0
   -2.1334   -1.7413    1.6147 H   0  0  0  0  0  0  0  0  0  0  0  0
   -3.2133    0.3019    2.5009 H   0  0  0  0  0  0  0  0  0  0  0  0
   -4.4500    0.2213    1.2244 H   0  0  0  0  0  0  0  0  0  0  0  0
   -4.4488   -2.2667    2.6004 H   0  0  0  0  0  0  0  0  0  0  0  0
   -6.8875   -1.3568    5.0693 H   0  0  0  0  0  0  0  0  0  0  0  0
   -6.0765   -2.6801    4.2824 H   0  0  0  0  0  0  0  0  0  0  0  0
   -6.3671    0.9475    4.4606 H   0  0  0  0  0  0  0  0  0  0  0  0
   -5.1813    1.2733    3.2353 H   0  0  0  0  0  0  0  0  0  0  0  0
    0.7711    0.6827   -1.1307 N   0  0  0  0  0  0  0  0  0  0  0  0
    1.6211    1.6136   -1.8367 C   0  0  2  0  0  0  0  0  0  0  0  0
    2.9901    1.5995   -1.1696 C   0  0  0  0  0  0  0  0  0  0  0  0
    3.1458    1.4358    0.0388 O   0  0  0  0  0  0  0  0  0  0  0  0
    1.0296    3.0146   -1.8341 C   0  0  0  0  0  0  0  0  0  0  0  0
    0.9060    0.5889   -0.1284 H   0  0  0  0  0  0  0  0  0  0  0  0
    1.7109    1.2434   -2.8638 H   0  0  0  0  0  0  0  0  0  0  0  0
    0.9320    3.4022   -0.8134 H   0  0  0  0  0  0  0  0  0  0  0  0
    1.6607    3.7128   -2.3938 H   0  0  0  0  0  0  0  0  0  0  0  0
    0.0325    3.0175   -2.2875 H   0  0  0  0  0  0  0  0  0  0  0  0
    4.0148    1.8341   -2.0758 N   0  0  0  0  0  0  0  0  0  0  0  0
    5.4020    1.9117   -1.6812 C   0  0  0  0  0  0  0  0  0  0  0  0
    3.7978    1.9187   -3.0645 H   0  0  0  0  0  0  0  0  0  0  0  0
    5.6667    2.9590   -1.4737 H   0  0  0  0  0  0  0  0  0  0  0  0
    5.5599    1.3074   -0.7757 H   0  0  0  0  0  0  0  0  0  0  0  0
    6.0362    1.5274   -2.4937 H   0  0  0  0  0  0  0  0  0  0  0  0
  1  3  1  0  0  0  0
  1  7  1  0  0  0  0
  1  2  2  0  0  0  0
 42 43  1  0  0  0  0
 43 51  1  0  0  0  0
 43 44  2  0  0  0  0
  8  9  1  0  0  0  0
  9 17  1  0  0  0  0
  9 10  2  0  0  0  0
 18 19  1  0  0  0  0
 19 41  1  0  0  0  0
 19 20  2  0  0  0  0
 25 26  1  0  0  0  0
 25 27  1  0  0  0  0
 24 25  2  0  0  0  0
 42 45  1  0  0  0  0
  8 11  1  0  0  0  0
 51 52  1  0  0  0  0
 21 22  1  0  0  0  0
 22 23  1  0  0  0  0
 18 21  1  0  0  0  0
 23 24  1  0  0  0  0
 41 42  1  0  0  0  0
  7  8  1  0  0  0  0
 17 18  1  0  0  0  0
  3  4  1  0  0  0  0
  3  5  1  0  0  0  0
  3  6  1  0  0  0  0
 45 48  1  0  0  0  0
 45 49  1  0  0  0  0
 45 50  1  0  0  0  0
 11 14  1  0  0  0  0
 11 15  1  0  0  0  0
 11 16  1  0  0  0  0
 52 54  1  0  0  0  0
 52 55  1  0  0  0  0
 52 56  1  0  0  0  0
 22 32  1  0  0  0  0
 22 33  1  0  0  0  0
 21 30  1  0  0  0  0
 21 31  1  0  0  0  0
 23 34  1  0  0  0  0
 23 35  1  0  0  0  0
 42 47  1  0  0  0  0
  8 13  1  0  0  0  0
 18 29  1  0  0  0  0
 26 37  1  0  0  0  0
 26 38  1  0  0  0  0
 27 39  1  0  0  0  0
 27 40  1  0  0  0  0
 51 53  1  0  0  0  0
  7 12  1  0  0  0  0
 41 46  1  0  0  0  0
 17 28  1  0  0  0  0
 24 36  1  0  0  0  0
M  CHG  1  24   1
M  END
$$$$

  -OEChem-02062319033D

 56 55  0     1  0  0  0  0  0999 V2000
    0.7735   -5.8042   -2.0022 C   0  0  0  0  0  0  0  0  0  0  0  0
   -0.2086   -6.3825   -1.5519 O   0  0  0  0  0  0  0  0  0  0  0  0
    1.4751   -6.3646   -3.1946 C   0  0  0  0  0  0  0  0  0  0  0  0
    2.2765   -7.0687   -2.9186 H   0  0  0  0  0  0  0  0  0  0  0  0
    0.7988   -6.9360   -3.8504 H   0  0  0  0  0  0  0  0  0  0  0  0
    1.9556   -5.6216   -3.8511 H   0  0  0  0  0  0  0  0  0  0  0  0
    1.3322   -4.6359   -1.5106 N   0  0  0  0  0  0  0  0  0  0  0  0
    0.8124   -3.9290   -0.3698 C   0  0  2  0  0  0  0  0  0  0  0  0
    1.0666   -2.4424   -0.5818 C   0  0  0  0  0  0  0  0  0  0  0  0
    2.0598   -2.0076   -1.1610 O   0  0  0  0  0  0  0  0  0  0  0  0
    1.4560   -4.4118    0.9207 C   0  0  0  0  0  0  0  0  0  0  0  0
    2.1528   -4.2578   -1.9805 H   0  0  0  0  0  0  0  0  0  0  0  0
   -0.2667   -4.1160   -0.3467 H   0  0  0  0  0  0  0  0  0  0  0  0
    2.5374   -4.2329    0.9160 H   0  0  0  0  0  0  0  0  0  0  0  0
    1.0390   -3.8932    1.7903 H   0  0  0  0  0  0  0  0  0  0  0  0
    1.2976   -5.4871    1.0566 H   0  0  0  0  0  0  0  0  0  0  0  0
    0.0755   -1.6529   -0.0105 N   0  0  0  0  0  0  0  0  0  0  0  0
   -1.1091   -1.2497   -0.7239 C   0  0  2  0  0  0  0  0  0  0  0  0
   -0.6605   -0.4459   -1.9397 C   0  0  0  0  0  0  0  0  0  0  0  0
   -1.1027   -0.6400   -3.0702 O   0  0  0  0  0  0  0  0  0  0  0  0
   -2.0523   -0.4169    0.1502 C   0  0  0  0  0  0  0  0  0  0  0  0
   -2.6627   -1.2348    1.2946 C   0  0  0  0  0  0  0  0  0  0  0  0
   -3.6006   -0.4010    2.1613 C   0  0  0  0  0  0  0  0  0  0  0  0
   -4.1619   -1.1777    3.2644 N   0  3  0  0  0  0  0  0  0  0  0  0
   -4.9997   -0.6114    4.2269 C   0  0  0  0  0  0  0  0  0  0  0  0
   -5.4975   -1.4118    5.2496 N   0  0  0  0  0  0  0  0  0  0  0  0
   -5.3494    0.7344    4.1878 N   0  0  0  0  0  0  0  0  0  0  0  0
    0.1641   -1.3749    0.9644 H   0  0  0  0  0  0  0  0  0  0  0  0
   -1.6026   -2.1672   -1.0643 H   0  0  0  0  0  0  0  0  0  0  0  0
   -2.8572   -0.0052   -0.4706 H   0  0  0  0  0  0  0  0  0  0  0  0
   -1.5111    0.4434    0.5658 H   0  0  0  0  0  0  0  0  0  0  0  0
   -3.2093   -2.0918    0.8831 H   0  0  0  0  0  0  0  0  0  0  0  0
   -1.8630   -1.6309    1.9310 H   0  0  0  0  0  0  0  0  0  0  0  0
   -3.0490    0.4358    2.6010 H   0  0  0  0  0  0  0  0  0  0  0  0
   -4.4302   -0.0032    1.5689 H   0  0  0  0  0  0  0  0  0  0  0  0
   -3.9415   -2.1688    3.3452 H   0  0  0  0  0  0  0  0  0  0  0  0
   -6.1103   -1.0304    5.9663 H   0  0  0  0  0  0  0  0  0  0  0  0
   -5.2617   -2.3995    5.3081 H   0  0  0  0  0  0  0  0  0  0  0  0
   -5.9591    1.1517    4.8863 H   0  0  0  0  0  0  0  0  0  0  0  0
   -5.0001    1.3439    3.4520 H   0  0  0  0  0  0  0  0  0  0  0  0
    0.3253    0.4776   -1.6206 N   0  0  0  0  0  0  0  0  0  0  0  0
    0.9524    1.3298   -2.6045 C   0  0  2  0  0  0  0  0  0  0  0  0
    2.3916    1.5711   -2.1687 C   0  0  0  0  0  0  0  0  0  0  0  0
    2.7299    1.6583   -0.9901 O   0  0  0  0  0  0  0  0  0  0  0  0
    0.2028    2.6442   -2.7565 C   0  0  0  0  0  0  0  0  0  0  0  0
    0.6065    0.5914   -0.6513 H   0  0  0  0  0  0  0  0  0  0  0  0
    0.9445    0.7787   -3.5513 H   0  0  0  0  0  0  0  0  0  0  0  0
    0.2001    3.2103   -1.8179 H   0  0  0  0  0  0  0  0  0  0  0  0
    0.6627    3.2769   -3.5227 H   0  0  0  0  0  0  0  0  0  0  0  0
   -0.8401    2.4674   -3.0410 H   0  0  0  0  0  0  0  0  0  0  0  0
    3.2467    1.7208   -3.2515 N   0  0  0  0  0  0  0  0  0  0  0  0
    4.6554    2.0010   -3.0996 C   0  0  0  0  0  0  0  0  0  0  0  0
    2.8877    1.5930   -4.1931 H   0  0  0  0  0  0  0  0  0  0  0  0
    4.8182    3.0886   -3.1245 H   0  0  0  0  0  0  0  0  0  0  0  0
    5.0074    1.5995   -2.1379 H   0  0  0  0  0  0  0  0  0  0  0  0
    5.2139    1.5279   -3.9208 H   0  0  0  0  0  0  0  0  0  0  0  0
  1  3  1  0  0  0  0
  1  7  1  0  0  0  0
  1  2  2  0  0  0  0
 42 43  1  0  0  0  0
 43 51  1  0  0  0  0
 43 44  2  0  0  0  0
  8  9  1  0  0  0  0
  9 17  1  0  0  0  0
  9 10  2  0  0  0  0
 18 19  1  0  0  0  0
 19 41  1  0  0  0  0
 19 20  2  0  0  0  0
 25 26  1  0  0  0  0
 25 27  1  0  0  0  0
 24 25  2  0  0  0  0
 42 45  1  0  0  0  0
  8 11  1  0  0  0  0
 51 52  1  0  0  0  0
 21 22  1  0  0  0  0
 22 23  1  0  0  0  0
 18 21  1  0  0  0  0
 23 24  1  0  0  0  0
 41 42  1  0  0  0  0
  7  8  1  0  0  0  0
 17 18  1  0  0  0  0
  3  4  1  0  0  0  0
  3  5  1  0  0  0  0
  3  6  1  0  0  0  0
 45 48  1  0  0  0  0
 45 49  1  0  0  0  0
 45 50  1  0  0  0  0
 11 14  1  0  0  0  0
 11 15  1  0  0  0  0
 11 16  1  0  0  0  0
 52 54  1  0  0  0  0
 52 55  1  0  0  0  0
 52 56  1  0  0  0  0
 22 32  1  0  0  0  0
 22 33  1  0  0  0  0
 21 30  1  0  0  0  0
 21 31  1  0  0  0  0
 23 34  1  0  0  0  0
 23 35  1  0  0  0  0
 42 47  1  0  0  0  0
  8 13  1  0  0  0  0
 18 29  1  0  0  0  0
 26 37  1  0  0  0  0
 26 38  1  0  0  0  0
 27 39  1  0  0  0  0
 27 40  1  0  0  0  0
 51 53  1  0  0  0  0
  7 12  1  0  0  0  0
 41 46  1  0  0  0  0
 17 28  1  0  0  0  0
 24 36  1  0  0  0  0
M  CHG  1  24   1
M  END
$$$$

  -OEChem-02062319033D

 56 55  0     1  0  0  0  0  0999 V2000
    0.7735   -5.8042   -2.0022 C   0  0  0  0  0  0  0  0  0  0  0  0
   -0.2086   -6.3825   -1.5519 O   0  0  0  0  0  0  0  0  0  0  0  0
    1.4751   -6.3646   -3.1946 C   0  0  0  0  0  0  0  0  0  0  0  0
    2.2765   -7.0687   -2.9186 H   0  0  0  0  0  0  0  0  0  0  0  0
    0.7988   -6.9360   -3.8504 H   0  0  0  0  0  0  0  0  0  0  0  0
    1.9556   -5.6216   -3.8511 H   0  0  0  0  0  0  0  0  0  0  0  0
    1.3322   -4.6359   -1.5106 N   0  0  0  0  0  0  0  0  0  0  0  0
    0.8124   -3.9290   -0.3698 C   0  0  2  0  0  0  0  0  0  0  0  0
    1.0666   -2.4424   -0.5818 C   0  0  0  0  0  0  0  0  0  0  0  0
    2.0598   -2.0076   -1.1610 O   0  0  0  0  0  0  0  0  0  0  0  0
    1.4560   -4.4118    0.9207 C   0  0  0  0  0  0  0  0  0  0  0  0
    2.1528   -4.2578   -1.9805 H   0  0  0  0  0  0  0  0  0  0  0  0
   -0.2667   -4.1160   -0.3467 H   0  0  0  0  0  0  0  0  0  0  0  0
    2.5374   -4.2329    0.9160 H   0  0  0  0  0  0  0  0  0  0  0  0
    1.0390   -3.8932    1.7903 H   0  0  0  0  0  0  0  0  0  0  0  0
    1.2976   -5.4871    1.0566 H   0  0  0  0  0  0  0  0  0  0  0  0
    0.0755   -1.6529   -0.0105 N   0  0  0  0  0  0  0  0  0  0  0  0
   -1.2355   -1.5060   -0.5889 C   0  0  2  0  0  0  0  0  0  0  0  0
   -1.0576   -0.9132   -1.9827 C   0  0  0  0  0  0  0  0  0  0  0  0
   -1.6240   -1.3614   -2.9774 O   0  0  0  0  0  0  0  0  0  0  0  0
   -2.1432   -0.6115    0.2615 C   0  0  0  0  0  0  0  0  0  0  0  0
   -2.4882   -1.2467    1.6138 C   0  0  0  0  0  0  0  0  0  0  0  0
   -3.3919   -0.3521    2.4559 C   0  0  0  0  0  0  0  0  0  0  0  0
   -3.6993   -0.9506    3.7530 N   0  3  0  0  0  0  0  0  0  0  0  0
   -4.4592   -0.2896    4.7198 C   0  0  0  0  0  0  0  0  0  0  0  0
   -4.7123   -0.9208    5.9331 N   0  0  0  0  0  0  0  0  0  0  0  0
   -4.9701    0.9852    4.4991 N   0  0  0  0  0  0  0  0  0  0  0  0
    0.2627   -1.1854    0.8738 H   0  0  0  0  0  0  0  0  0  0  0  0
   -1.6571   -2.5135   -0.6802 H   0  0  0  0  0  0  0  0  0  0  0  0
   -3.0691   -0.4033   -0.2881 H   0  0  0  0  0  0  0  0  0  0  0  0
   -1.6575    0.3591    0.4284 H   0  0  0  0  0  0  0  0  0  0  0  0
   -2.9791   -2.2138    1.4511 H   0  0  0  0  0  0  0  0  0  0  0  0
   -1.5672   -1.4372    2.1765 H   0  0  0  0  0  0  0  0  0  0  0  0
   -2.8899    0.6010    2.6488 H   0  0  0  0  0  0  0  0  0  0  0  0
   -4.3366   -0.1544    1.9403 H   0  0  0  0  0  0  0  0  0  0  0  0
   -3.3523   -1.8828    3.9719 H   0  0  0  0  0  0  0  0  0  0  0  0
   -5.2625   -0.4669    6.6584 H   0  0  0  0  0  0  0  0  0  0  0  0
   -4.3538   -1.8526    6.1273 H   0  0  0  0  0  0  0  0  0  0  0  0
   -5.5240    1.4709    5.1998 H   0  0  0  0  0  0  0  0  0  0  0  0
   -4.8008    1.4714    3.6216 H   0  0  0  0  0  0  0  0  0  0  0  0
   -0.1556    0.1416   -1.9905 N   0  0  0  0  0  0  0  0  0  0  0  0
    0.2238    0.8428   -3.1954 C   0  0  2  0  0  0  0  0  0  0  0  0
    1.6696    1.2957   -3.0405 C   0  0  0  0  0  0  0  0  0  0  0  0
    2.1533    1.6390   -1.9638 O   0  0  0  0  0  0  0  0  0  0  0  0
   -0.6920    2.0282   -3.4575 C   0  0  0  0  0  0  0  0  0  0  0  0
    0.2401    0.4654   -1.1128 H   0  0  0  0  0  0  0  0  0  0  0  0
    0.1525    0.1215   -4.0168 H   0  0  0  0  0  0  0  0  0  0  0  0
   -0.6341    2.7617   -2.6450 H   0  0  0  0  0  0  0  0  0  0  0  0
   -0.4209    2.5414   -4.3860 H   0  0  0  0  0  0  0  0  0  0  0  0
   -1.7352    1.7042   -3.5390 H   0  0  0  0  0  0  0  0  0  0  0  0
    2.3440    1.3126   -4.2534 N   0  0  0  0  0  0  0  0  0  0  0  0
    3.7163    1.7460   -4.3764 C   0  0  0  0  0  0  0  0  0  0  0  0
    1.8774    0.9733   -5.0894 H   0  0  0  0  0  0  0  0  0  0  0  0
    3.7422    2.8188   -4.6182 H   0  0  0  0  0  0  0  0  0  0  0  0
    4.2423    1.5716   -3.4263 H   0  0  0  0  0  0  0  0  0  0  0  0
    4.2097    1.1775   -5.1785 H   0  0  0  0  0  0  0  0  0  0  0  0
  1  3  1  0  0  0  0
  1  7  1  0  0  0  0
  1  2  2  0  0  0  0
 42 43  1  0  0  0  0
 43 51  1  0  0  0  0
 43 44  2  0  0  0  0
  8  9  1  0  0  0  0
  9 17  1  0  0  0  0
  9 10  2  0  0  0  0
 18 19  1  0  0  0  0
 19 41  1  0  0  0  0
 19 20  2  0  0  0  0
 25 26  1  0  0  0  0
 25 27  1  0  0  0  0
 24 25  2  0  0  0  0
 42 45  1  0  0  0  0
  8 11  1  0  0  0  0
 51 52  1  0  0  0  0
 21 22  1  0  0  0  0
 22 23  1  0  0  0  0
 18 21  1  0  0  0  0
 23 24  1  0  0  0  0
 41 42  1  0  0  0  0
  7  8  1  0  0  0  0
 17 18  1  0  0  0  0
  3  4  1  0  0  0  0
  3  5  1  0  0  0  0
  3  6  1  0  0  0  0
 45 48  1  0  0  0  0
 45 49  1  0  0  0  0
 45 50  1  0  0  0  0
 11 14  1  0  0  0  0
 11 15  1  0  0  0  0
 11 16  1  0  0  0  0
 52 54  1  0  0  0  0
 52 55  1  0  0  0  0
 52 56  1  0  0  0  0
 22 32  1  0  0  0  0
 22 33  1  0  0  0  0
 21 30  1  0  0  0  0
 21 31  1  0  0  0  0
 23 34  1  0  0  0  0
 23 35  1  0  0  0  0
 42 47  1  0  0  0  0
  8 13  1  0  0  0  0
 18 29  1  0  0  0  0
 26 37  1  0  0  0  0
 26 38  1  0  0  0  0
 27 39  1  0  0  0  0
 27 40  1  0  0  0  0
 51 53  1  0  0  0  0
  7 12  1  0  0  0  0
 41 46  1  0  0  0  0
 17 28  1  0  0  0  0
 24 36  1  0  0  0  0
M  CHG  1  24   1
M  END
$$$$

  -OEChem-02062319033D

 56 55  0     1  0  0  0  0  0999 V2000
    0.7735   -5.8042   -2.0022 C   0  0  0  0  0  0  0  0  0  0  0  0
   -0.2086   -6.3825   -1.5519 O   0  0  0  0  0  0  0  0  0  0  0  0
    1.4751   -6.3646   -3.1946 C   0  0  0  0  0  0  0  0  0  0  0  0
    2.2765   -7.0687   -2.9186 H   0  0  0  0  0  0  0  0  0  0  0  0
    0.7988   -6.9360   -3.8504 H   0  0  0  0  0  0  0  0  0  0  0  0
    1.9556   -5.6216   -3.8511 H   0  0  0  0  0  0  0  0  0  0  0  0
    1.3322   -4.6359   -1.5106 N   0  0  0  0  0  0  0  0  0  0  0  0
    0.8124   -3.9290   -0.3698 C   0  0  2  0  0  0  0  0  0  0  0  0
    1.0666   -2.4424   -0.5818 C   0  0  0  0  0  0  0  0  0  0  0  0
    2.0598   -2.0076   -1.1610 O   0  0  0  0  0  0  0  0  0  0  0  0
    1.4560   -4.4118    0.9207 C   0  0  0  0  0  0  0  0  0  0  0  0
    2.1528   -4.2578   -1.9805 H   0  0  0  0  0  0  0  0  0  0  0  0
   -0.2667   -4.1160   -0.3467 H   0  0  0  0  0  0  0  0  0  0  0  0
    2.5374   -4.2329    0.9160 H   0  0  0  0  0  0  0  0  0  0  0  0
    1.0390   -3.8932    1.7903 H   0  0  0  0  0  0  0  0  0  0  0  0
    1.2976   -5.4871    1.0566 H   0  0  0  0  0  0  0  0  0  0  0  0
    0.0755   -1.6529   -0.0105 N   0  0  0  0  0  0  0  0  0  0  0  0
   -1.3104   -1.7421   -0.3926 C   0  0  2  0  0  0  0  0  0  0  0  0
   -1.3978   -1.4148   -1.8795 C   0  0  0  0  0  0  0  0  0  0  0  0
   -2.0371   -2.0966   -2.6781 O   0  0  0  0  0  0  0  0  0  0  0  0
   -2.1939   -0.7886    0.4182 C   0  0  0  0  0  0  0  0  0  0  0  0
   -2.2715   -1.1808    1.8985 C   0  0  0  0  0  0  0  0  0  0  0  0
   -3.1522   -0.2284    2.7008 C   0  0  0  0  0  0  0  0  0  0  0  0
   -3.2047   -0.5918    4.1150 N   0  3  0  0  0  0  0  0  0  0  0  0
   -3.8989    0.1697    5.0571 C   0  0  0  0  0  0  0  0  0  0  0  0
   -3.9057   -0.2368    6.3872 N   0  0  0  0  0  0  0  0  0  0  0  0
   -4.5847    1.3253    4.6977 N   0  0  0  0  0  0  0  0  0  0  0  0
    0.3246   -1.0087    0.7368 H   0  0  0  0  0  0  0  0  0  0  0  0
   -1.6164   -2.7830   -0.2372 H   0  0  0  0  0  0  0  0  0  0  0  0
   -3.2046   -0.7767   -0.0072 H   0  0  0  0  0  0  0  0  0  0  0  0
   -1.8102    0.2367    0.3328 H   0  0  0  0  0  0  0  0  0  0  0  0
   -2.6602   -2.2023    1.9883 H   0  0  0  0  0  0  0  0  0  0  0  0
   -1.2659   -1.1732    2.3344 H   0  0  0  0  0  0  0  0  0  0  0  0
   -2.7467    0.7863    2.6410 H   0  0  0  0  0  0  0  0  0  0  0  0
   -4.1755   -0.2219    2.3131 H   0  0  0  0  0  0  0  0  0  0  0  0
   -2.7216   -1.4282    4.4379 H   0  0  0  0  0  0  0  0  0  0  0  0
   -4.4018    0.2952    7.0982 H   0  0  0  0  0  0  0  0  0  0  0  0
   -3.4145   -1.0765    6.6842 H   0  0  0  0  0  0  0  0  0  0  0  0
   -5.0917    1.8834    5.3797 H   0  0  0  0  0  0  0  0  0  0  0  0
   -4.5969    1.6470    3.7327 H   0  0  0  0  0  0  0  0  0  0  0  0
   -0.6387   -0.3023   -2.2150 N   0  0  0  0  0  0  0  0  0  0  0  0
   -0.5150    0.1858   -3.5692 C   0  0  2  0  0  0  0  0  0  0  0  0
    0.8733    0.7920   -3.7257 C   0  0  0  0  0  0  0  0  0  0  0  0
    1.4552    1.3794   -2.8160 O   0  0  0  0  0  0  0  0  0  0  0  0
   -1.5939    1.2086   -3.8894 C   0  0  0  0  0  0  0  0  0  0  0  0
   -0.1683    0.2196   -1.4815 H   0  0  0  0  0  0  0  0  0  0  0  0
   -0.6110   -0.6836   -4.2288 H   0  0  0  0  0  0  0  0  0  0  0  0
   -1.5138    2.0869   -3.2386 H   0  0  0  0  0  0  0  0  0  0  0  0
   -1.5162    1.5563   -4.9248 H   0  0  0  0  0  0  0  0  0  0  0  0
   -2.5918    0.7798   -3.7476 H   0  0  0  0  0  0  0  0  0  0  0  0
    1.3682    0.6374   -5.0131 N   0  0  0  0  0  0  0  0  0  0  0  0
    2.6485    1.1642   -5.4246 C   0  0  0  0  0  0  0  0  0  0  0  0
    0.8356    0.1018   -5.6922 H   0  0  0  0  0  0  0  0  0  0  0  0
    2.5120    2.1681   -5.8531 H   0  0  0  0  0  0  0  0  0  0  0  0
    3.3170    1.2254   -4.5532 H   0  0  0  0  0  0  0  0  0  0  0  0
    3.0921    0.5000   -6.1810 H   0  0  0  0  0  0  0  0  0  0  0  0
  1  3  1  0  0  0  0
  1  7  1  0  0  0  0
  1  2  2  0  0  0  0
 42 43  1  0  0  0  0
 43 51  1  0  0  0  0
 43 44  2  0  0  0  0
  8  9  1  0  0  0  0
  9 17  1  0  0  0  0
  9 10  2  0  0  0  0
 18 19  1  0  0  0  0
 19 41  1  0  0  0  0
 19 20  2  0  0  0  0
 25 26  1  0  0  0  0
 25 27  1  0  0  0  0
 24 25  2  0  0  0  0
 42 45  1  0  0  0  0
  8 11  1  0  0  0  0
 51 52  1  0  0  0  0
 21 22  1  0  0  0  0
 22 23  1  0  0  0  0
 18 21  1  0  0  0  0
 23 24  1  0  0  0  0
 41 42  1  0  0  0  0
  7  8  1  0  0  0  0
 17 18  1  0  0  0  0
  3  4  1  0  0  0  0
  3  5  1  0  0  0  0
  3  6  1  0  0  0  0
 45 48  1  0  0  0  0
 45 49  1  0  0  0  0
 45 50  1  0  0  0  0
 11 14  1  0  0  0  0
 11 15  1  0  0  0  0
 11 16  1  0  0  0  0
 52 54  1  0  0  0  0
 52 55  1  0  0  0  0
 52 56  1  0  0  0  0
 22 32  1  0  0  0  0
 22 33  1  0  0  0  0
 21 30  1  0  0  0  0
 21 31  1  0  0  0  0
 23 34  1  0  0  0  0
 23 35  1  0  0  0  0
 42 47  1  0  0  0  0
  8 13  1  0  0  0  0
 18 29  1  0  0  0  0
 26 37  1  0  0  0  0
 26 38  1  0  0  0  0
 27 39  1  0  0  0  0
 27 40  1  0  0  0  0
 51 53  1  0  0  0  0
  7 12  1  0  0  0  0
 41 46  1  0  0  0  0
 17 28  1  0  0  0  0
 24 36  1  0  0  0  0
M  CHG  1  24   1
M  END
$$$$

  -OEChem-02062319033D

 56 55  0     1  0  0  0  0  0999 V2000
    0.7735   -5.8042   -2.0022 C   0  0  0  0  0  0  0  0  0  0  0  0
   -0.2086   -6.3825   -1.5519 O   0  0  0  0  0  0  0  0  0  0  0  0
    1.4751   -6.3646   -3.1946 C   0  0  0  0  0  0  0  0  0  0  0  0
    2.2765   -7.0687   -2.9186 H   0  0  0  0  0  0  0  0  0  0  0  0
    0.7988   -6.9360   -3.8504 H   0  0  0  0  0  0  0  0  0  0  0  0
    1.9556   -5.6216   -3.8511 H   0  0  0  0  0  0  0  0  0  0  0  0
    1.3322   -4.6359   -1.5106 N   0  0  0  0  0  0  0  0  0  0  0  0
    0.8124   -3.9290   -0.3698 C   0  0  2  0  0  0  0  0  0  0  0  0
    1.0666   -2.4424   -0.5818 C   0  0  0  0  0  0  0  0  0  0  0  0
    2.0598   -2.0076   -1.1610 O   0  0  0  0  0  0  0  0  0  0  0  0
    1.4560   -4.4118    0.9207 C   0  0  0  0  0  0  0  0  0  0  0  0
    2.1528   -4.2578   -1.9805 H   0  0  0  0  0  0  0  0  0  0  0  0
   -0.2667   -4.1160   -0.3467 H   0  0  0  0  0  0  0  0  0  0  0  0
    2.5374   -4.2329    0.9160 H   0  0  0  0  0  0  0  0  0  0  0  0
    1.0390   -3.8932    1.7903 H   0  0  0  0  0  0  0  0  0  0  0  0
    1.2976   -5.4871    1.0566 H   0  0  0  0  0  0  0  0  0  0  0  0
    0.0755   -1.6529   -0.0105 N   0  0  0  0  0  0  0  0  0  0  0  0
   -1.3288   -1.9419   -0.1485 C   0  0  2  0  0  0  0  0  0  0  0  0
   -1.6578   -1.9165   -1.6373 C   0  0  0  0  0  0  0  0  0  0  0  0
   -2.3139   -2.7954   -2.1925 O   0  0  0  0  0  0  0  0  0  0  0  0
   -2.2010   -0.9361    0.6098 C   0  0  0  0  0  0  0  0  0  0  0  0
   -2.0274   -1.0415    2.1296 C   0  0  0  0  0  0  0  0  0  0  0  0
   -2.8978   -0.0382    2.8792 C   0  0  0  0  0  0  0  0  0  0  0  0
   -2.7120   -0.1258    4.3258 N   0  3  0  0  0  0  0  0  0  0  0  0
   -3.3569    0.7352    5.2157 C   0  0  0  0  0  0  0  0  0  0  0  0
   -3.1325    0.5935    6.5810 N   0  0  0  0  0  0  0  0  0  0  0  0
   -4.2194    1.7315    4.7701 N   0  0  0  0  0  0  0  0  0  0  0  0
    0.3454   -0.8566    0.5627 H   0  0  0  0  0  0  0  0  0  0  0  0
   -1.4833   -2.9572    0.2344 H   0  0  0  0  0  0  0  0  0  0  0  0
   -3.2545   -1.1000    0.3530 H   0  0  0  0  0  0  0  0  0  0  0  0
   -1.9586    0.0846    0.2854 H   0  0  0  0  0  0  0  0  0  0  0  0
   -2.2745   -2.0581    2.4582 H   0  0  0  0  0  0  0  0  0  0  0  0
   -0.9797   -0.8571    2.3939 H   0  0  0  0  0  0  0  0  0  0  0  0
   -2.6292    0.9792    2.5783 H   0  0  0  0  0  0  0  0  0  0  0  0
   -3.9578   -0.2012    2.6621 H   0  0  0  0  0  0  0  0  0  0  0  0
   -2.0922   -0.8361    4.7114 H   0  0  0  0  0  0  0  0  0  0  0  0
   -3.5868    1.2042    7.2558 H   0  0  0  0  0  0  0  0  0  0  0  0
   -2.5080   -0.1242    6.9407 H   0  0  0  0  0  0  0  0  0  0  0  0
   -4.6915    2.3610    5.4139 H   0  0  0  0  0  0  0  0  0  0  0  0
   -4.4023    1.8588    3.7775 H   0  0  0  0  0  0  0  0  0  0  0  0
   -1.0911   -0.8240   -2.2790 N   0  0  0  0  0  0  0  0  0  0  0  0
   -1.2138   -0.5964   -3.7004 C   0  0  2  0  0  0  0  0  0  0  0  0
    0.0571    0.0942   -4.1775 C   0  0  0  0  0  0  0  0  0  0  0  0
    0.6832    0.8971   -3.4887 O   0  0  0  0  0  0  0  0  0  0  0  0
   -2.4414    0.2413   -4.0228 C   0  0  0  0  0  0  0  0  0  0  0  0
   -0.5908   -0.1294   -1.7323 H   0  0  0  0  0  0  0  0  0  0  0  0
   -1.2941   -1.5815   -4.1727 H   0  0  0  0  0  0  0  0  0  0  0  0
   -2.3790    1.2321   -3.5581 H   0  0  0  0  0  0  0  0  0  0  0  0
   -2.5487    0.3889   -5.1025 H   0  0  0  0  0  0  0  0  0  0  0  0
   -3.3516   -0.2426   -3.6526 H   0  0  0  0  0  0  0  0  0  0  0  0
    0.3858   -0.2587   -5.4788 N   0  0  0  0  0  0  0  0  0  0  0  0
    1.5250    0.2952   -6.1727 C   0  0  0  0  0  0  0  0  0  0  0  0
   -0.1665   -0.9620   -5.9605 H   0  0  0  0  0  0  0  0  0  0  0  0
    1.2114    1.1808   -6.7449 H   0  0  0  0  0  0  0  0  0  0  0  0
    2.2943    0.5846   -5.4417 H   0  0  0  0  0  0  0  0  0  0  0  0
    1.9373   -0.4582   -6.8601 H   0  0  0  0  0  0  0  0  0  0  0  0
  1  3  1  0  0  0  0
  1  7  1  0  0  0  0
  1  2  2  0  0  0  0
 42 43  1  0  0  0  0
 43 51  1  0  0  0  0
 43 44  2  0  0  0  0
  8  9  1  0  0  0  0
  9 17  1  0  0  0  0
  9 10  2  0  0  0  0
 18 19  1  0  0  0  0
 19 41  1  0  0  0  0
 19 20  2  0  0  0  0
 25 26  1  0  0  0  0
 25 27  1  0  0  0  0
 24 25  2  0  0  0  0
 42 45  1  0  0  0  0
  8 11  1  0  0  0  0
 51 52  1  0  0  0  0
 21 22  1  0  0  0  0
 22 23  1  0  0  0  0
 18 21  1  0  0  0  0
 23 24  1  0  0  0  0
 41 42  1  0  0  0  0
  7  8  1  0  0  0  0
 17 18  1  0  0  0  0
  3  4  1  0  0  0  0
  3  5  1  0  0  0  0
  3  6  1  0  0  0  0
 45 48  1  0  0  0  0
 45 49  1  0  0  0  0
 45 50  1  0  0  0  0
 11 14  1  0  0  0  0
 11 15  1  0  0  0  0
 11 16  1  0  0  0  0
 52 54  1  0  0  0  0
 52 55  1  0  0  0  0
 52 56  1  0  0  0  0
 22 32  1  0  0  0  0
 22 33  1  0  0  0  0
 21 30  1  0  0  0  0
 21 31  1  0  0  0  0
 23 34  1  0  0  0  0
 23 35  1  0  0  0  0
 42 47  1  0  0  0  0
  8 13  1  0  0  0  0
 18 29  1  0  0  0  0
 26 37  1  0  0  0  0
 26 38  1  0  0  0  0
 27 39  1  0  0  0  0
 27 40  1  0  0  0  0
 51 53  1  0  0  0  0
  7 12  1  0  0  0  0
 41 46  1  0  0  0  0
 17 28  1  0  0  0  0
 24 36  1  0  0  0  0
M  CHG  1  24   1
M  END
$$$$

  -OEChem-02062319033D

 56 55  0     1  0  0  0  0  0999 V2000
    0.7735   -5.8042   -2.0022 C   0  0  0  0  0  0  0  0  0  0  0  0
   -0.2086   -6.3825   -1.5519 O   0  0  0  0  0  0  0  0  0  0  0  0
    1.4751   -6.3646   -3.1946 C   0  0  0  0  0  0  0  0  0  0  0  0
    2.2765   -7.0687   -2.9186 H   0  0  0  0  0  0  0  0  0  0  0  0
    0.7988   -6.9360   -3.8504 H   0  0  0  0  0  0  0  0  0  0  0  0
    1.9556   -5.6216   -3.8511 H   0  0  0  0  0  0  0  0  0  0  0  0
    1.3322   -4.6359   -1.5106 N   0  0  0  0  0  0  0  0  0  0  0  0
    0.8124   -3.9290   -0.3698 C   0  0  2  0  0  0  0  0  0  0  0  0
    1.0666   -2.4424   -0.5818 C   0  0  0  0  0  0  0  0  0  0  0  0
    2.0598   -2.0076   -1.1610 O   0  0  0  0  0  0  0  0  0  0  0  0
    1.4560   -4.4118    0.9207 C   0  0  0  0  0  0  0  0  0  0  0  0
    2.1528   -4.2578   -1.9805 H   0  0  0  0  0  0  0  0  0  0  0  0
   -0.2667   -4.1160   -0.3467 H   0  0  0  0  0  0  0  0  0  0  0  0
    2.5374   -4.2329    0.9160 H   0  0  0  0  0  0  0  0  0  0  0  0
    1.0390   -3.8932    1.7903 H   0  0  0  0  0  0  0  0  0  0  0  0
    1.2976   -5.4871    1.0566 H   0  0  0  0  0  0  0  0  0  0  0  0
    0.0755   -1.6529   -0.0105 N   0  0  0  0  0  0  0  0  0  0  0  0
   -1.2895   -2.0918    0.1269 C   0  0  2  0  0  0  0  0  0  0  0  0
   -1.8200   -2.3841   -1.2726 C   0  0  0  0  0  0  0  0  0  0  0  0
   -2.4356   -3.4103   -1.5538 O   0  0  0  0  0  0  0  0  0  0  0  0
   -2.1640   -1.0440    0.8230 C   0  0  0  0  0  0  0  0  0  0  0  0
   -1.7724   -0.8383    2.2912 C   0  0  0  0  0  0  0  0  0  0  0  0
   -2.6461    0.2056    2.9790 C   0  0  0  0  0  0  0  0  0  0  0  0
   -2.2546    0.4156    4.3710 N   0  3  0  0  0  0  0  0  0  0  0  0
   -2.8703    1.3683    5.1849 C   0  0  0  0  0  0  0  0  0  0  0  0
   -2.4455    1.5135    6.5013 N   0  0  0  0  0  0  0  0  0  0  0  0
   -3.8991    2.1760    4.7114 N   0  0  0  0  0  0  0  0  0  0  0  0
    0.3237   -0.7397    0.3635 H   0  0  0  0  0  0  0  0  0  0  0  0
   -1.2668   -3.0242    0.7025 H   0  0  0  0  0  0  0  0  0  0  0  0
   -3.2154   -1.3511    0.7679 H   0  0  0  0  0  0  0  0  0  0  0  0
   -2.0928   -0.0869    0.2896 H   0  0  0  0  0  0  0  0  0  0  0  0
   -1.8481   -1.7911    2.8288 H   0  0  0  0  0  0  0  0  0  0  0  0
   -0.7282   -0.5103    2.3509 H   0  0  0  0  0  0  0  0  0  0  0  0
   -2.5455    1.1663    2.4648 H   0  0  0  0  0  0  0  0  0  0  0  0
   -3.6985   -0.0937    2.9633 H   0  0  0  0  0  0  0  0  0  0  0  0
   -1.5070   -0.1466    4.7738 H   0  0  0  0  0  0  0  0  0  0  0  0
   -2.8732    2.1979    7.1205 H   0  0  0  0  0  0  0  0  0  0  0  0
   -1.6959    0.9394    6.8796 H   0  0  0  0  0  0  0  0  0  0  0  0
   -4.3508    2.8712    5.2999 H   0  0  0  0  0  0  0  0  0  0  0  0
   -4.2303    2.0924    3.7531 H   0  0  0  0  0  0  0  0  0  0  0  0
   -1.4821   -1.3878   -2.1779 N   0  0  0  0  0  0  0  0  0  0  0  0
   -1.8248   -1.4504   -3.5801 C   0  0  2  0  0  0  0  0  0  0  0  0
   -0.7236   -0.7499   -4.3651 C   0  0  0  0  0  0  0  0  0  0  0  0
   -0.1100    0.2250   -3.9359 O   0  0  0  0  0  0  0  0  0  0  0  0
   -3.1767   -0.8078   -3.8485 C   0  0  0  0  0  0  0  0  0  0  0  0
   -0.9987   -0.5577   -1.8479 H   0  0  0  0  0  0  0  0  0  0  0  0
   -1.8501   -2.5112   -3.8525 H   0  0  0  0  0  0  0  0  0  0  0  0
   -3.1707    0.2554   -3.5817 H   0  0  0  0  0  0  0  0  0  0  0  0
   -3.4479   -0.8814   -4.9069 H   0  0  0  0  0  0  0  0  0  0  0  0
   -3.9628   -1.2936   -3.2605 H   0  0  0  0  0  0  0  0  0  0  0  0
   -0.5363   -1.3148   -5.6189 N   0  0  0  0  0  0  0  0  0  0  0  0
    0.4222   -0.8018   -6.5698 C   0  0  0  0  0  0  0  0  0  0  0  0
   -1.0609   -2.1457   -5.8760 H   0  0  0  0  0  0  0  0  0  0  0  0
   -0.0710   -0.0758   -7.2329 H   0  0  0  0  0  0  0  0  0  0  0  0
    1.2439   -0.3071   -6.0314 H   0  0  0  0  0  0  0  0  0  0  0  0
    0.8239   -1.6319   -7.1694 H   0  0  0  0  0  0  0  0  0  0  0  0
  1  3  1  0  0  0  0
  1  7  1  0  0  0  0
  1  2  2  0  0  0  0
 42 43  1  0  0  0  0
 43 51  1  0  0  0  0
 43 44  2  0  0  0  0
  8  9  1  0  0  0  0
  9 17  1  0  0  0  0
  9 10  2  0  0  0  0
 18 19  1  0  0  0  0
 19 41  1  0  0  0  0
 19 20  2  0  0  0  0
 25 26  1  0  0  0  0
 25 27  1  0  0  0  0
 24 25  2  0  0  0  0
 42 45  1  0  0  0  0
  8 11  1  0  0  0  0
 51 52  1  0  0  0  0
 21 22  1  0  0  0  0
 22 23  1  0  0  0  0
 18 21  1  0  0  0  0
 23 24  1  0  0  0  0
 41 42  1  0  0  0  0
  7  8  1  0  0  0  0
 17 18  1  0  0  0  0
  3  4  1  0  0  0  0
  3  5  1  0  0  0  0
  3  6  1  0  0  0  0
 45 48  1  0  0  0  0
 45 49  1  0  0  0  0
 45 50  1  0  0  0  0
 11 14  1  0  0  0  0
 11 15  1  0  0  0  0
 11 16  1  0  0  0  0
 52 54  1  0  0  0  0
 52 55  1  0  0  0  0
 52 56  1  0  0  0  0
 22 32  1  0  0  0  0
 22 33  1  0  0  0  0
 21 30  1  0  0  0  0
 21 31  1  0  0  0  0
 23 34  1  0  0  0  0
 23 35  1  0  0  0  0
 42 47  1  0  0  0  0
  8 13  1  0  0  0  0
 18 29  1  0  0  0  0
 26 37  1  0  0  0  0
 26 38  1  0  0  0  0
 27 39  1  0  0  0  0
 27 40  1  0  0  0  0
 51 53  1  0  0  0  0
  7 12  1  0  0  0  0
 41 46  1  0  0  0  0
 17 28  1  0  0  0  0
 24 36  1  0  0  0  0
M  CHG  1  24   1
M  END
$$$$

  -OEChem-02062319033D

 56 55  0     1  0  0  0  0  0999 V2000
    0.7735   -5.8042   -2.0022 C   0  0  0  0  0  0  0  0  0  0  0  0
   -0.2086   -6.3825   -1.5519 O   0  0  0  0  0  0  0  0  0  0  0  0
    1.4751   -6.3646   -3.1946 C   0  0  0  0  0  0  0  0  0  0  0  0
    2.2765   -7.0687   -2.9186 H   0  0  0  0  0  0  0  0  0  0  0  0
    0.7988   -6.9360   -3.8504 H   0  0  0  0  0  0  0  0  0  0  0  0
    1.9556   -5.6216   -3.8511 H   0  0  0  0  0  0  0  0  0  0  0  0
    1.3322   -4.6359   -1.5106 N   0  0  0  0  0  0  0  0  0  0  0  0
    0.8124   -3.9290   -0.3698 C   0  0  2  0  0  0  0  0  0  0  0  0
    1.0666   -2.4424   -0.5818 C   0  0  0  0  0  0  0  0  0  0  0  0
    2.0598   -2.0076   -1.1610 O   0  0  0  0  0  0  0  0  0  0  0  0
    1.4560   -4.4118    0.9207 C   0  0  0  0  0  0  0  0  0  0  0  0
    2.1528   -4.2578   -1.9805 H   0  0  0  0  0  0  0  0  0  0  0  0
   -0.2667   -4.1160   -0.3467 H   0  0  0  0  0  0  0  0  0  0  0  0
    2.5374   -4.2329    0.9160 H   0  0  0  0  0  0  0  0  0  0  0  0
    1.0390   -3.8932    1.7903 H   0  0  0  0  0  0  0  0  0  0  0  0
    1.2976   -5.4871    1.0566 H   0  0  0  0  0  0  0  0  0  0  0  0
    0.0755   -1.6529   -0.0105 N   0  0  0  0  0  0  0  0  0  0  0  0
   -1.1950   -2.1816    0.4149 C   0  0  2  0  0  0  0  0  0  0  0  0
   -1.8733   -2.7856   -0.8101 C   0  0  0  0  0  0  0  0  0  0  0  0
   -2.3938   -3.8993   -0.8055 O   0  0  0  0  0  0  0  0  0  0  0  0
   -2.0855   -1.1050    1.0435 C   0  0  0  0  0  0  0  0  0  0  0  0
   -1.5239   -0.5851    2.3723 C   0  0  0  0  0  0  0  0  0  0  0  0
   -2.4142    0.4862    2.9935 C   0  0  0  0  0  0  0  0  0  0  0  0
   -1.8638    0.9956    4.2475 N   0  3  0  0  0  0  0  0  0  0  0  0
   -2.4721    2.0260    4.9668 C   0  0  0  0  0  0  0  0  0  0  0  0
   -1.8915    2.4605    6.1536 N   0  0  0  0  0  0  0  0  0  0  0  0
   -3.6457    2.6286    4.5256 N   0  0  0  0  0  0  0  0  0  0  0  0
    0.2611   -0.6658    0.1527 H   0  0  0  0  0  0  0  0  0  0  0  0
   -0.9818   -2.9796    1.1352 H   0  0  0  0  0  0  0  0  0  0  0  0
   -3.0899   -1.5129    1.2092 H   0  0  0  0  0  0  0  0  0  0  0  0
   -2.2036   -0.2660    0.3450 H   0  0  0  0  0  0  0  0  0  0  0  0
   -1.4102   -1.4194    3.0748 H   0  0  0  0  0  0  0  0  0  0  0  0
   -0.5285   -0.1565    2.2085 H   0  0  0  0  0  0  0  0  0  0  0  0
   -2.5012    1.3351    2.3084 H   0  0  0  0  0  0  0  0  0  0  0  0
   -3.4152    0.0934    3.1962 H   0  0  0  0  0  0  0  0  0  0  0  0
   -1.0059    0.5931    4.6208 H   0  0  0  0  0  0  0  0  0  0  0  0
   -2.3094    3.2088    6.7015 H   0  0  0  0  0  0  0  0  0  0  0  0
   -1.0336    2.0419    6.5048 H   0  0  0  0  0  0  0  0  0  0  0  0
   -4.0927    3.3792    5.0456 H   0  0  0  0  0  0  0  0  0  0  0  0
   -4.0925    2.3318    3.6612 H   0  0  0  0  0  0  0  0  0  0  0  0
   -1.7848   -1.9554   -1.9188 N   0  0  0  0  0  0  0  0  0  0  0  0
   -2.3064   -2.3182   -3.2164 C   0  0  2  0  0  0  0  0  0  0  0  0
   -1.4154   -1.6830   -4.2758 C   0  0  0  0  0  0  0  0  0  0  0  0
   -0.8705   -0.5912   -4.1272 O   0  0  0  0  0  0  0  0  0  0  0  0
   -3.7497   -1.8672   -3.3785 C   0  0  0  0  0  0  0  0  0  0  0  0
   -1.3641   -1.0361   -1.8207 H   0  0  0  0  0  0  0  0  0  0  0  0
   -2.2411   -3.4092   -3.2898 H   0  0  0  0  0  0  0  0  0  0  0  0
   -3.8350   -0.7767   -3.3079 H   0  0  0  0  0  0  0  0  0  0  0  0
   -4.1525   -2.1679   -4.3513 H   0  0  0  0  0  0  0  0  0  0  0  0
   -4.3837   -2.3014   -2.5979 H   0  0  0  0  0  0  0  0  0  0  0  0
   -1.3352   -2.4589   -5.4237 N   0  0  0  0  0  0  0  0  0  0  0  0
   -0.5848   -2.0520   -6.5888 C   0  0  0  0  0  0  0  0  0  0  0  0
   -1.7863   -3.3687   -5.4445 H   0  0  0  0  0  0  0  0  0  0  0  0
   -1.2478   -1.5161   -7.2839 H   0  0  0  0  0  0  0  0  0  0  0  0
    0.2376   -1.3890   -6.2820 H   0  0  0  0  0  0  0  0  0  0  0  0
   -0.1721   -2.9412   -7.0879 H   0  0  0  0  0  0  0  0  0  0  0  0
  1  3  1  0  0  0  0
  1  7  1  0  0  0  0
  1  2  2  0  0  0  0
 42 43  1  0  0  0  0
 43 51  1  0  0  0  0
 43 44  2  0  0  0  0
  8  9  1  0  0  0  0
  9 17  1  0  0  0  0
  9 10  2  0  0  0  0
 18 19  1  0  0  0  0
 19 41  1  0  0  0  0
 19 20  2  0  0  0  0
 25 26  1  0  0  0  0
 25 27  1  0  0  0  0
 24 25  2  0  0  0  0
 42 45  1  0  0  0  0
  8 11  1  0  0  0  0
 51 52  1  0  0  0  0
 21 22  1  0  0  0  0
 22 23  1  0  0  0  0
 18 21  1  0  0  0  0
 23 24  1  0  0  0  0
 41 42  1  0  0  0  0
  7  8  1  0  0  0  0
 17 18  1  0  0  0  0
  3  4  1  0  0  0  0
  3  5  1  0  0  0  0
  3  6  1  0  0  0  0
 45 48  1  0  0  0  0
 45 49  1  0  0  0  0
 45 50  1  0  0  0  0
 11 14  1  0  0  0  0
 11 15  1  0  0  0  0
 11 16  1  0  0  0  0
 52 54  1  0  0  0  0
 52 55  1  0  0  0  0
 52 56  1  0  0  0  0
 22 32  1  0  0  0  0
 22 33  1  0  0  0  0
 21 30  1  0  0  0  0
 21 31  1  0  0  0  0
 23 34  1  0  0  0  0
 23 35  1  0  0  0  0
 42 47  1  0  0  0  0
  8 13  1  0  0  0  0
 18 29  1  0  0  0  0
 26 37  1  0  0  0  0
 26 38  1  0  0  0  0
 27 39  1  0  0  0  0
 27 40  1  0  0  0  0
 51 53  1  0  0  0  0
  7 12  1  0  0  0  0
 41 46  1  0  0  0  0
 17 28  1  0  0  0  0
 24 36  1  0  0  0  0
M  CHG  1  24   1
M  END
$$$$

  -OEChem-02062319033D

 56 55  0     1  0  0  0  0  0999 V2000
    0.7735   -5.8042   -2.0022 C   0  0  0  0  0  0  0  0  0  0  0  0
   -0.2086   -6.3825   -1.5519 O   0  0  0  0  0  0  0  0  0  0  0  0
    1.4751   -6.3646   -3.1946 C   0  0  0  0  0  0  0  0  0  0  0  0
    2.2765   -7.0687   -2.9186 H   0  0  0  0  0  0  0  0  0  0  0  0
    0.7988   -6.9360   -3.8504 H   0  0  0  0  0  0  0  0  0  0  0  0
    1.9556   -5.6216   -3.8511 H   0  0  0  0  0  0  0  0  0  0  0  0
    1.3322   -4.6359   -1.5106 N   0  0  0  0  0  0  0  0  0  0  0  0
    0.8124   -3.9290   -0.3698 C   0  0  2  0  0  0  0  0  0  0  0  0
    1.0666   -2.4424   -0.5818 C   0  0  0  0  0  0  0  0  0  0  0  0
    2.0598   -2.0076   -1.1610 O   0  0  0  0  0  0  0  0  0  0  0  0
    1.4560   -4.4118    0.9207 C   0  0  0  0  0  0  0  0  0  0  0  0
    2.1528   -4.2578   -1.9805 H   0  0  0  0  0  0  0  0  0  0  0  0
   -0.2667   -4.1160   -0.3467 H   0  0  0  0  0  0  0  0  0  0  0  0
    2.5374   -4.2329    0.9160 H   0  0  0  0  0  0  0  0  0  0  0  0
    1.0390   -3.8932    1.7903 H   0  0  0  0  0  0  0  0  0  0  0  0
    1.2976   -5.4871    1.0566 H   0  0  0  0  0  0  0  0  0  0  0  0
    0.0755   -1.6529   -0.0105 N   0  0  0  0  0  0  0  0  0  0  0  0
   -1.0519   -2.2052    0.6957 C   0  0  2  0  0  0  0  0  0  0  0  0
   -1.8141   -3.0938   -0.2815 C   0  0  0  0  0  0  0  0  0  0  0  0
   -2.1914   -4.2291    0.0014 O   0  0  0  0  0  0  0  0  0  0  0  0
   -1.9707   -1.1148    1.2562 C   0  0  0  0  0  0  0  0  0  0  0  0
   -1.2989   -0.2992    2.3674 C   0  0  0  0  0  0  0  0  0  0  0  0
   -2.2179    0.7846    2.9215 C   0  0  0  0  0  0  0  0  0  0  0  0
   -1.5662    1.5746    3.9637 N   0  3  0  0  0  0  0  0  0  0  0  0
   -2.1896    2.6633    4.5762 C   0  0  0  0  0  0  0  0  0  0  0  0
   -1.5083    3.3701    5.5615 N   0  0  0  0  0  0  0  0  0  0  0  0
   -3.4763    3.0585    4.2253 N   0  0  0  0  0  0  0  0  0  0  0  0
    0.1617   -0.6399   -0.0554 H   0  0  0  0  0  0  0  0  0  0  0  0
   -0.6477   -2.8263    1.5031 H   0  0  0  0  0  0  0  0  0  0  0  0
   -2.8865   -1.5744    1.6469 H   0  0  0  0  0  0  0  0  0  0  0  0
   -2.2834   -0.4406    0.4478 H   0  0  0  0  0  0  0  0  0  0  0  0
   -0.9906   -0.9684    3.1795 H   0  0  0  0  0  0  0  0  0  0  0  0
   -0.3942    0.1802    1.9762 H   0  0  0  0  0  0  0  0  0  0  0  0
   -2.4994    1.4740    2.1196 H   0  0  0  0  0  0  0  0  0  0  0  0
   -3.1272    0.3472    3.3451 H   0  0  0  0  0  0  0  0  0  0  0  0
   -0.6231    1.3326    4.2628 H   0  0  0  0  0  0  0  0  0  0  0  0
   -1.9340    4.1678    6.0274 H   0  0  0  0  0  0  0  0  0  0  0  0
   -0.5663    3.1082    5.8419 H   0  0  0  0  0  0  0  0  0  0  0  0
   -3.9348    3.8505    4.6682 H   0  0  0  0  0  0  0  0  0  0  0  0
   -3.9985    2.5608    3.5080 H   0  0  0  0  0  0  0  0  0  0  0  0
   -1.9788   -2.4880   -1.5193 N   0  0  0  0  0  0  0  0  0  0  0  0
   -2.6259   -3.1405   -2.6342 C   0  0  2  0  0  0  0  0  0  0  0  0
   -1.9713   -2.6414   -3.9156 C   0  0  0  0  0  0  0  0  0  0  0  0
   -1.5464   -1.4958   -4.0496 O   0  0  0  0  0  0  0  0  0  0  0  0
   -4.1214   -2.8647   -2.6447 C   0  0  0  0  0  0  0  0  0  0  0  0
   -1.6622   -1.5321   -1.6523 H   0  0  0  0  0  0  0  0  0  0  0  0
   -2.4406   -4.2144   -2.5231 H   0  0  0  0  0  0  0  0  0  0  0  0
   -4.3267   -1.7937   -2.7553 H   0  0  0  0  0  0  0  0  0  0  0  0
   -4.6146   -3.3831   -3.4736 H   0  0  0  0  0  0  0  0  0  0  0  0
   -4.5856   -3.1973   -1.7100 H   0  0  0  0  0  0  0  0  0  0  0  0
   -1.9564   -3.6129   -4.9066 N   0  0  0  0  0  0  0  0  0  0  0  0
   -1.4271   -3.3703   -6.2284 C   0  0  0  0  0  0  0  0  0  0  0  0
   -2.2935   -4.5475   -4.6953 H   0  0  0  0  0  0  0  0  0  0  0  0
   -2.2387   -3.0419   -6.8943 H   0  0  0  0  0  0  0  0  0  0  0  0
   -0.6562   -2.5874   -6.1764 H   0  0  0  0  0  0  0  0  0  0  0  0
   -0.9830   -4.2968   -6.6211 H   0  0  0  0  0  0  0  0  0  0  0  0
  1  3  1  0  0  0  0
  1  7  1  0  0  0  0
  1  2  2  0  0  0  0
 42 43  1  0  0  0  0
 43 51  1  0  0  0  0
 43 44  2  0  0  0  0
  8  9  1  0  0  0  0
  9 17  1  0  0  0  0
  9 10  2  0  0  0  0
 18 19  1  0  0  0  0
 19 41  1  0  0  0  0
 19 20  2  0  0  0  0
 25 26  1  0  0  0  0
 25 27  1  0  0  0  0
 24 25  2  0  0  0  0
 42 45  1  0  0  0  0
  8 11  1  0  0  0  0
 51 52  1  0  0  0  0
 21 22  1  0  0  0  0
 22 23  1  0  0  0  0
 18 21  1  0  0  0  0
 23 24  1  0  0  0  0
 41 42  1  0  0  0  0
  7  8  1  0  0  0  0
 17 18  1  0  0  0  0
  3  4  1  0  0  0  0
  3  5  1  0  0  0  0
  3  6  1  0  0  0  0
 45 48  1  0  0  0  0
 45 49  1  0  0  0  0
 45 50  1  0  0  0  0
 11 14  1  0  0  0  0
 11 15  1  0  0  0  0
 11 16  1  0  0  0  0
 52 54  1  0  0  0  0
 52 55  1  0  0  0  0
 52 56  1  0  0  0  0
 22 32  1  0  0  0  0
 22 33  1  0  0  0  0
 21 30  1  0  0  0  0
 21 31  1  0  0  0  0
 23 34  1  0  0  0  0
 23 35  1  0  0  0  0
 42 47  1  0  0  0  0
  8 13  1  0  0  0  0
 18 29  1  0  0  0  0
 26 37  1  0  0  0  0
 26 38  1  0  0  0  0
 27 39  1  0  0  0  0
 27 40  1  0  0  0  0
 51 53  1  0  0  0  0
  7 12  1  0  0  0  0
 41 46  1  0  0  0  0
 17 28  1  0  0  0  0
 24 36  1  0  0  0  0
M  CHG  1  24   1
M  END
$$$$

  -OEChem-02062319033D

 56 55  0     1  0  0  0  0  0999 V2000
    0.7735   -5.8042   -2.0022 C   0  0  0  0  0  0  0  0  0  0  0  0
   -0.2086   -6.3825   -1.5519 O   0  0  0  0  0  0  0  0  0  0  0  0
    1.4751   -6.3646   -3.1946 C   0  0  0  0  0  0  0  0  0  0  0  0
    2.2765   -7.0687   -2.9186 H   0  0  0  0  0  0  0  0  0  0  0  0
    0.7988   -6.9360   -3.8504 H   0  0  0  0  0  0  0  0  0  0  0  0
    1.9556   -5.6216   -3.8511 H   0  0  0  0  0  0  0  0  0  0  0  0
    1.3322   -4.6359   -1.5106 N   0  0  0  0  0  0  0  0  0  0  0  0
    0.8124   -3.9290   -0.3698 C   0  0  2  0  0  0  0  0  0  0  0  0
    1.0666   -2.4424   -0.5818 C   0  0  0  0  0  0  0  0  0  0  0  0
    2.0598   -2.0076   -1.1610 O   0  0  0  0  0  0  0  0  0  0  0  0
    1.4560   -4.4118    0.9207 C   0  0  0  0  0  0  0  0  0  0  0  0
    2.1528   -4.2578   -1.9805 H   0  0  0  0  0  0  0  0  0  0  0  0
   -0.2667   -4.1160   -0.3467 H   0  0  0  0  0  0  0  0  0  0  0  0
    2.5374   -4.2329    0.9160 H   0  0  0  0  0  0  0  0  0  0  0  0
    1.0390   -3.8932    1.7903 H   0  0  0  0  0  0  0  0  0  0  0  0
    1.2976   -5.4871    1.0566 H   0  0  0  0  0  0  0  0  0  0  0  0
    0.0755   -1.6529   -0.0105 N   0  0  0  0  0  0  0  0  0  0  0  0
   -0.8699   -2.1609    0.9502 C   0  0  2  0  0  0  0  0  0  0  0  0
   -1.6464   -3.2877    0.2773 C   0  0  0  0  0  0  0  0  0  0  0  0
   -1.8421   -4.3772    0.8119 O   0  0  0  0  0  0  0  0  0  0  0  0
   -1.8275   -1.0728    1.4466 C   0  0  0  0  0  0  0  0  0  0  0  0
   -1.1128    0.0001    2.2768 C   0  0  0  0  0  0  0  0  0  0  0  0
   -2.0707    1.0804    2.7681 C   0  0  0  0  0  0  0  0  0  0  0  0
   -1.3820    2.1131    3.5390 N   0  3  0  0  0  0  0  0  0  0  0  0
   -2.0419    3.2369    4.0397 C   0  0  0  0  0  0  0  0  0  0  0  0
   -1.3219    4.1801    4.7653 N   0  0  0  0  0  0  0  0  0  0  0  0
   -3.4026    3.4363    3.8310 N   0  0  0  0  0  0  0  0  0  0  0  0
    0.0323   -0.6640   -0.2465 H   0  0  0  0  0  0  0  0  0  0  0  0
   -0.2871   -2.5748    1.7810 H   0  0  0  0  0  0  0  0  0  0  0  0
   -2.6192   -1.5314    2.0512 H   0  0  0  0  0  0  0  0  0  0  0  0
   -2.3267   -0.5987    0.5911 H   0  0  0  0  0  0  0  0  0  0  0  0
   -0.6179   -0.4689    3.1357 H   0  0  0  0  0  0  0  0  0  0  0  0
   -0.3344    0.4769    1.6700 H   0  0  0  0  0  0  0  0  0  0  0  0
   -2.5402    1.5735    1.9114 H   0  0  0  0  0  0  0  0  0  0  0  0
   -2.8541    0.6505    3.3997 H   0  0  0  0  0  0  0  0  0  0  0  0
   -0.3847    2.0216    3.7243 H   0  0  0  0  0  0  0  0  0  0  0  0
   -1.7726    5.0097    5.1440 H   0  0  0  0  0  0  0  0  0  0  0  0
   -0.3258    4.0654    4.9362 H   0  0  0  0  0  0  0  0  0  0  0  0
   -3.8879    4.2528    4.1935 H   0  0  0  0  0  0  0  0  0  0  0  0
   -3.9545    2.7636    3.3039 H   0  0  0  0  0  0  0  0  0  0  0  0
   -2.0508   -2.9493   -1.0066 N   0  0  0  0  0  0  0  0  0  0  0  0
   -2.7614   -3.8613   -1.8731 C   0  0  2  0  0  0  0  0  0  0  0  0
   -2.3533   -3.5598   -3.3091 C   0  0  0  0  0  0  0  0  0  0  0  0
   -2.0916   -2.4271   -3.7083 O   0  0  0  0  0  0  0  0  0  0  0  0
   -4.2664   -3.7324   -1.6972 C   0  0  0  0  0  0  0  0  0  0  0  0
   -1.8725   -2.0118   -1.3543 H   0  0  0  0  0  0  0  0  0  0  0  0
   -2.4349   -4.8719   -1.6046 H   0  0  0  0  0  0  0  0  0  0  0  0
   -4.6121   -2.7264   -1.9616 H   0  0  0  0  0  0  0  0  0  0  0  0
   -4.8027   -4.4440   -2.3336 H   0  0  0  0  0  0  0  0  0  0  0  0
   -4.5548   -3.9203   -0.6573 H   0  0  0  0  0  0  0  0  0  0  0  0
   -2.3578   -4.6983   -4.1029 N   0  0  0  0  0  0  0  0  0  0  0  0
   -2.0476   -4.6667   -5.5131 C   0  0  0  0  0  0  0  0  0  0  0  0
   -2.5479   -5.6018   -3.6796 H   0  0  0  0  0  0  0  0  0  0  0  0
   -2.9763   -4.5492   -6.0908 H   0  0  0  0  0  0  0  0  0  0  0  0
   -1.3766   -3.8205   -5.7219 H   0  0  0  0  0  0  0  0  0  0  0  0
   -1.5533   -5.6063   -5.8009 H   0  0  0  0  0  0  0  0  0  0  0  0
  1  3  1  0  0  0  0
  1  7  1  0  0  0  0
  1  2  2  0  0  0  0
 42 43  1  0  0  0  0
 43 51  1  0  0  0  0
 43 44  2  0  0  0  0
  8  9  1  0  0  0  0
  9 17  1  0  0  0  0
  9 10  2  0  0  0  0
 18 19  1  0  0  0  0
 19 41  1  0  0  0  0
 19 20  2  0  0  0  0
 25 26  1  0  0  0  0
 25 27  1  0  0  0  0
 24 25  2  0  0  0  0
 42 45  1  0  0  0  0
  8 11  1  0  0  0  0
 51 52  1  0  0  0  0
 21 22  1  0  0  0  0
 22 23  1  0  0  0  0
 18 21  1  0  0  0  0
 23 24  1  0  0  0  0
 41 42  1  0  0  0  0
  7  8  1  0  0  0  0
 17 18  1  0  0  0  0
  3  4  1  0  0  0  0
  3  5  1  0  0  0  0
  3  6  1  0  0  0  0
 45 48  1  0  0  0  0
 45 49  1  0  0  0  0
 45 50  1  0  0  0  0
 11 14  1  0  0  0  0
 11 15  1  0  0  0  0
 11 16  1  0  0  0  0
 52 54  1  0  0  0  0
 52 55  1  0  0  0  0
 52 56  1  0  0  0  0
 22 32  1  0  0  0  0
 22 33  1  0  0  0  0
 21 30  1  0  0  0  0
 21 31  1  0  0  0  0
 23 34  1  0  0  0  0
 23 35  1  0  0  0  0
 42 47  1  0  0  0  0
  8 13  1  0  0  0  0
 18 29  1  0  0  0  0
 26 37  1  0  0  0  0
 26 38  1  0  0  0  0
 27 39  1  0  0  0  0
 27 40  1  0  0  0  0
 51 53  1  0  0  0  0
  7 12  1  0  0  0  0
 41 46  1  0  0  0  0
 17 28  1  0  0  0  0
 24 36  1  0  0  0  0
M  CHG  1  24   1
M  END
$$$$

  -OEChem-02062319033D

 56 55  0     1  0  0  0  0  0999 V2000
    0.7735   -5.8042   -2.0022 C   0  0  0  0  0  0  0  0  0  0  0  0
   -0.2086   -6.3825   -1.5519 O   0  0  0  0  0  0  0  0  0  0  0  0
    1.4751   -6.3646   -3.1946 C   0  0  0  0  0  0  0  0  0  0  0  0
    2.2765   -7.0687   -2.9186 H   0  0  0  0  0  0  0  0  0  0  0  0
    0.7988   -6.9360   -3.8504 H   0  0  0  0  0  0  0  0  0  0  0  0
    1.9556   -5.6216   -3.8511 H   0  0  0  0  0  0  0  0  0  0  0  0
    1.3322   -4.6359   -1.5106 N   0  0  0  0  0  0  0  0  0  0  0  0
    0.8124   -3.9290   -0.3698 C   0  0  2  0  0  0  0  0  0  0  0  0
    1.0666   -2.4424   -0.5818 C   0  0  0  0  0  0  0  0  0  0  0  0
    2.0598   -2.0076   -1.1610 O   0  0  0  0  0  0  0  0  0  0  0  0
    1.4560   -4.4118    0.9207 C   0  0  0  0  0  0  0  0  0  0  0  0
    2.1528   -4.2578   -1.9805 H   0  0  0  0  0  0  0  0  0  0  0  0
   -0.2667   -4.1160   -0.3467 H   0  0  0  0  0  0  0  0  0  0  0  0
    2.5374   -4.2329    0.9160 H   0  0  0  0  0  0  0  0  0  0  0  0
    1.0390   -3.8932    1.7903 H   0  0  0  0  0  0  0  0  0  0  0  0
    1.2976   -5.4871    1.0566 H   0  0  0  0  0  0  0  0  0  0  0  0
    0.0755   -1.6529   -0.0105 N   0  0  0  0  0  0  0  0  0  0  0  0
   -0.6614   -2.0517    1.1611 C   0  0  2  0  0  0  0  0  0  0  0  0
   -1.3817   -3.3540    0.8282 C   0  0  0  0  0  0  0  0  0  0  0  0
   -1.3699   -4.3336    1.5707 O   0  0  0  0  0  0  0  0  0  0  0  0
   -1.6657   -0.9819    1.6016 C   0  0  0  0  0  0  0  0  0  0  0  0
   -0.9781    0.2922    2.1067 C   0  0  0  0  0  0  0  0  0  0  0  0
   -1.9825    1.3535    2.5437 C   0  0  0  0  0  0  0  0  0  0  0  0
   -1.3238    2.5746    3.0022 N   0  3  0  0  0  0  0  0  0  0  0  0
   -2.0391    3.7077    3.3940 C   0  0  0  0  0  0  0  0  0  0  0  0
   -1.3451    4.8354    3.8195 N   0  0  0  0  0  0  0  0  0  0  0  0
   -3.4296    3.7363    3.3696 N   0  0  0  0  0  0  0  0  0  0  0  0
   -0.1181   -0.7362   -0.4077 H   0  0  0  0  0  0  0  0  0  0  0  0
    0.0752   -2.2423    1.9500 H   0  0  0  0  0  0  0  0  0  0  0  0
   -2.3062   -1.3868    2.3944 H   0  0  0  0  0  0  0  0  0  0  0  0
   -2.3308   -0.7297    0.7651 H   0  0  0  0  0  0  0  0  0  0  0  0
   -0.3175    0.0452    2.9463 H   0  0  0  0  0  0  0  0  0  0  0  0
   -0.3532    0.7133    1.3107 H   0  0  0  0  0  0  0  0  0  0  0  0
   -2.6208    1.6268    1.6979 H   0  0  0  0  0  0  0  0  0  0  0  0
   -2.6146    0.9826    3.3563 H   0  0  0  0  0  0  0  0  0  0  0  0
   -0.3068    2.6132    3.0419 H   0  0  0  0  0  0  0  0  0  0  0  0
   -1.8360    5.6771    4.1117 H   0  0  0  0  0  0  0  0  0  0  0  0
   -0.3285    4.8486    3.8494 H   0  0  0  0  0  0  0  0  0  0  0  0
   -3.9552    4.5589    3.6538 H   0  0  0  0  0  0  0  0  0  0  0  0
   -3.9637    2.9266    3.0628 H   0  0  0  0  0  0  0  0  0  0  0  0
   -1.9959   -3.3080   -0.4156 N   0  0  0  0  0  0  0  0  0  0  0  0
   -2.7037   -4.4315   -0.9850 C   0  0  2  0  0  0  0  0  0  0  0  0
   -2.5355   -4.3757   -2.4976 C   0  0  0  0  0  0  0  0  0  0  0  0
   -2.4689   -3.3217   -3.1267 O   0  0  0  0  0  0  0  0  0  0  0  0
   -4.1749   -4.4111   -0.6005 C   0  0  0  0  0  0  0  0  0  0  0  0
   -1.9809   -2.4425   -0.9471 H   0  0  0  0  0  0  0  0  0  0  0  0
   -2.2244   -5.3369   -0.5968 H   0  0  0  0  0  0  0  0  0  0  0  0
   -4.6719   -3.5112   -0.9808 H   0  0  0  0  0  0  0  0  0  0  0  0
   -4.7038   -5.2784   -1.0091 H   0  0  0  0  0  0  0  0  0  0  0  0
   -4.2933   -4.4212    0.4883 H   0  0  0  0  0  0  0  0  0  0  0  0
   -2.5118   -5.6411   -3.0672 N   0  0  0  0  0  0  0  0  0  0  0  0
   -2.4039   -5.8529   -4.4918 C   0  0  0  0  0  0  0  0  0  0  0  0
   -2.5322   -6.4599   -2.4664 H   0  0  0  0  0  0  0  0  0  0  0  0
   -3.4103   -5.9354   -4.9280 H   0  0  0  0  0  0  0  0  0  0  0  0
   -1.8744   -5.0043   -4.9495 H   0  0  0  0  0  0  0  0  0  0  0  0
   -1.8443   -6.7805   -4.6830 H   0  0  0  0  0  0  0  0  0  0  0  0
  1  3  1  0  0  0  0
  1  7  1  0  0  0  0
  1  2  2  0  0  0  0
 42 43  1  0  0  0  0
 43 51  1  0  0  0  0
 43 44  2  0  0  0  0
  8  9  1  0  0  0  0
  9 17  1  0  0  0  0
  9 10  2  0  0  0  0
 18 19  1  0  0  0  0
 19 41  1  0  0  0  0
 19 20  2  0  0  0  0
 25 26  1  0  0  0  0
 25 27  1  0  0  0  0
 24 25  2  0  0  0  0
 42 45  1  0  0  0  0
  8 11  1  0  0  0  0
 51 52  1  0  0  0  0
 21 22  1  0  0  0  0
 22 23  1  0  0  0  0
 18 21  1  0  0  0  0
 23 24  1  0  0  0  0
 41 42  1  0  0  0  0
  7  8  1  0  0  0  0
 17 18  1  0  0  0  0
  3  4  1  0  0  0  0
  3  5  1  0  0  0  0
  3  6  1  0  0  0  0
 45 48  1  0  0  0  0
 45 49  1  0  0  0  0
 45 50  1  0  0  0  0
 11 14  1  0  0  0  0
 11 15  1  0  0  0  0
 11 16  1  0  0  0  0
 52 54  1  0  0  0  0
 52 55  1  0  0  0  0
 52 56  1  0  0  0  0
 22 32  1  0  0  0  0
 22 33  1  0  0  0  0
 21 30  1  0  0  0  0
 21 31  1  0  0  0  0
 23 34  1  0  0  0  0
 23 35  1  0  0  0  0
 42 47  1  0  0  0  0
  8 13  1  0  0  0  0
 18 29  1  0  0  0  0
 26 37  1  0  0  0  0
 26 38  1  0  0  0  0
 27 39  1  0  0  0  0
 27 40  1  0  0  0  0
 51 53  1  0  0  0  0
  7 12  1  0  0  0  0
 41 46  1  0  0  0  0
 17 28  1  0  0  0  0
 24 36  1  0  0  0  0
M  CHG  1  24   1
M  END
$$$$

  -OEChem-02062319033D

 56 55  0     1  0  0  0  0  0999 V2000
    0.7735   -5.8042   -2.0022 C   0  0  0  0  0  0  0  0  0  0  0  0
   -0.2086   -6.3825   -1.5519 O   0  0  0  0  0  0  0  0  0  0  0  0
    1.4751   -6.3646   -3.1946 C   0  0  0  0  0  0  0  0  0  0  0  0
    2.2765   -7.0687   -2.9186 H   0  0  0  0  0  0  0  0  0  0  0  0
    0.7988   -6.9360   -3.8504 H   0  0  0  0  0  0  0  0  0  0  0  0
    1.9556   -5.6216   -3.8511 H   0  0  0  0  0  0  0  0  0  0  0  0
    1.3322   -4.6359   -1.5106 N   0  0  0  0  0  0  0  0  0  0  0  0
    0.8124   -3.9290   -0.3698 C   0  0  2  0  0  0  0  0  0  0  0  0
    1.0666   -2.4424   -0.5818 C   0  0  0  0  0  0  0  0  0  0  0  0
    2.0598   -2.0076   -1.1610 O   0  0  0  0  0  0  0  0  0  0  0  0
    1.4560   -4.4118    0.9207 C   0  0  0  0  0  0  0  0  0  0  0  0
    2.1528   -4.2578   -1.9805 H   0  0  0  0  0  0  0  0  0  0  0  0
   -0.2667   -4.1160   -0.3467 H   0  0  0  0  0  0  0  0  0  0  0  0
    2.5374   -4.2329    0.9160 H   0  0  0  0  0  0  0  0  0  0  0  0
    1.0390   -3.8932    1.7903 H   0  0  0  0  0  0  0  0  0  0  0  0
    1.2976   -5.4871    1.0566 H   0  0  0  0  0  0  0  0  0  0  0  0
    0.0755   -1.6529   -0.0105 N   0  0  0  0  0  0  0  0  0  0  0  0
   -0.4405   -1.8852    1.3141 C   0  0  2  0  0  0  0  0  0  0  0  0
   -1.0379   -3.2882    1.3336 C   0  0  0  0  0  0  0  0  0  0  0  0
   -0.8068   -4.1012    2.2263 O   0  0  0  0  0  0  0  0  0  0  0  0
   -1.4963   -0.8483    1.7109 C   0  0  0  0  0  0  0  0  0  0  0  0
   -0.9041    0.5573    1.8686 C   0  0  0  0  0  0  0  0  0  0  0  0
   -1.9593    1.5853    2.2636 C   0  0  0  0  0  0  0  0  0  0  0  0
   -1.3956    2.9274    2.3901 N   0  3  0  0  0  0  0  0  0  0  0  0
   -2.1814    4.0436    2.6829 C   0  0  0  0  0  0  0  0  0  0  0  0
   -1.5762    5.2914    2.7883 N   0  0  0  0  0  0  0  0  0  0  0  0
   -3.5554    3.9381    2.8726 N   0  0  0  0  0  0  0  0  0  0  0  0
   -0.2795   -0.8518   -0.5279 H   0  0  0  0  0  0  0  0  0  0  0  0
    0.4147   -1.8513    1.9986 H   0  0  0  0  0  0  0  0  0  0  0  0
   -1.9687   -1.1505    2.6533 H   0  0  0  0  0  0  0  0  0  0  0  0
   -2.2951   -0.8244    0.9579 H   0  0  0  0  0  0  0  0  0  0  0  0
   -0.1098    0.5389    2.6244 H   0  0  0  0  0  0  0  0  0  0  0  0
   -0.4493    0.8733    0.9227 H   0  0  0  0  0  0  0  0  0  0  0  0
   -2.7357    1.6303    1.4937 H   0  0  0  0  0  0  0  0  0  0  0  0
   -2.4249    1.3208    3.2180 H   0  0  0  0  0  0  0  0  0  0  0  0
   -0.3948    3.0669    2.2621 H   0  0  0  0  0  0  0  0  0  0  0  0
   -2.1201    6.1244    3.0007 H   0  0  0  0  0  0  0  0  0  0  0  0
   -0.5742    5.4041    2.6554 H   0  0  0  0  0  0  0  0  0  0  0  0
   -4.1321    4.7477    3.0860 H   0  0  0  0  0  0  0  0  0  0  0  0
   -4.0252    3.0386    2.8013 H   0  0  0  0  0  0  0  0  0  0  0  0
   -1.8178   -3.5396    0.2133 N   0  0  0  0  0  0  0  0  0  0  0  0
   -2.4567   -4.8123   -0.0304 C   0  0  2  0  0  0  0  0  0  0  0  0
   -2.5053   -5.0333   -1.5365 C   0  0  0  0  0  0  0  0  0  0  0  0
   -2.6528   -4.1186   -2.3443 O   0  0  0  0  0  0  0  0  0  0  0  0
   -3.8530   -4.8545    0.5705 C   0  0  0  0  0  0  0  0  0  0  0  0
   -1.9799   -2.7950   -0.4582 H   0  0  0  0  0  0  0  0  0  0  0  0
   -1.8235   -5.5776    0.4314 H   0  0  0  0  0  0  0  0  0  0  0  0
   -4.5020   -4.0946    0.1202 H   0  0  0  0  0  0  0  0  0  0  0  0
   -4.3249   -5.8295    0.4098 H   0  0  0  0  0  0  0  0  0  0  0  0
   -3.8191   -4.6658    1.6490 H   0  0  0  0  0  0  0  0  0  0  0  0
   -2.4080   -6.3770   -1.8701 N   0  0  0  0  0  0  0  0  0  0  0  0
   -2.4716   -6.8482   -3.2339 C   0  0  0  0  0  0  0  0  0  0  0  0
   -2.2473   -7.0631   -1.1386 H   0  0  0  0  0  0  0  0  0  0  0  0
   -3.5111   -7.1059   -3.4852 H   0  0  0  0  0  0  0  0  0  0  0  0
   -2.1157   -6.0582   -3.9117 H   0  0  0  0  0  0  0  0  0  0  0  0
   -1.8362   -7.7393   -3.3438 H   0  0  0  0  0  0  0  0  0  0  0  0
  1  3  1  0  0  0  0
  1  7  1  0  0  0  0
  1  2  2  0  0  0  0
 42 43  1  0  0  0  0
 43 51  1  0  0  0  0
 43 44  2  0  0  0  0
  8  9  1  0  0  0  0
  9 17  1  0  0  0  0
  9 10  2  0  0  0  0
 18 19  1  0  0  0  0
 19 41  1  0  0  0  0
 19 20  2  0  0  0  0
 25 26  1  0  0  0  0
 25 27  1  0  0  0  0
 24 25  2  0  0  0  0
 42 45  1  0  0  0  0
  8 11  1  0  0  0  0
 51 52  1  0  0  0  0
 21 22  1  0  0  0  0
 22 23  1  0  0  0  0
 18 21  1  0  0  0  0
 23 24  1  0  0  0  0
 41 42  1  0  0  0  0
  7  8  1  0  0  0  0
 17 18  1  0  0  0  0
  3  4  1  0  0  0  0
  3  5  1  0  0  0  0
  3  6  1  0  0  0  0
 45 48  1  0  0  0  0
 45 49  1  0  0  0  0
 45 50  1  0  0  0  0
 11 14  1  0  0  0  0
 11 15  1  0  0  0  0
 11 16  1  0  0  0  0
 52 54  1  0  0  0  0
 52 55  1  0  0  0  0
 52 56  1  0  0  0  0
 22 32  1  0  0  0  0
 22 33  1  0  0  0  0
 21 30  1  0  0  0  0
 21 31  1  0  0  0  0
 23 34  1  0  0  0  0
 23 35  1  0  0  0  0
 42 47  1  0  0  0  0
  8 13  1  0  0  0  0
 18 29  1  0  0  0  0
 26 37  1  0  0  0  0
 26 38  1  0  0  0  0
 27 39  1  0  0  0  0
 27 40  1  0  0  0  0
 51 53  1  0  0  0  0
  7 12  1  0  0  0  0
 41 46  1  0  0  0  0
 17 28  1  0  0  0  0
 24 36  1  0  0  0  0
M  CHG  1  24   1
M  END
$$$$

  -OEChem-02062319033D

 56 55  0     1  0  0  0  0  0999 V2000
    0.7735   -5.8042   -2.0022 C   0  0  0  0  0  0  0  0  0  0  0  0
   -0.2086   -6.3825   -1.5519 O   0  0  0  0  0  0  0  0  0  0  0  0
    1.4751   -6.3646   -3.1946 C   0  0  0  0  0  0  0  0  0  0  0  0
    2.2765   -7.0687   -2.9186 H   0  0  0  0  0  0  0  0  0  0  0  0
    0.7988   -6.9360   -3.8504 H   0  0  0  0  0  0  0  0  0  0  0  0
    1.9556   -5.6216   -3.8511 H   0  0  0  0  0  0  0  0  0  0  0  0
    1.3322   -4.6359   -1.5106 N   0  0  0  0  0  0  0  0  0  0  0  0
    0.8124   -3.9290   -0.3698 C   0  0  2  0  0  0  0  0  0  0  0  0
    1.0666   -2.4424   -0.5818 C   0  0  0  0  0  0  0  0  0  0  0  0
    2.0598   -2.0076   -1.1610 O   0  0  0  0  0  0  0  0  0  0  0  0
    1.4560   -4.4118    0.9207 C   0  0  0  0  0  0  0  0  0  0  0  0
    2.1528   -4.2578   -1.9805 H   0  0  0  0  0  0  0  0  0  0  0  0
   -0.2667   -4.1160   -0.3467 H   0  0  0  0  0  0  0  0  0  0  0  0
    2.5374   -4.2329    0.9160 H   0  0  0  0  0  0  0  0  0  0  0  0
    1.0390   -3.8932    1.7903 H   0  0  0  0  0  0  0  0  0  0  0  0
    1.2976   -5.4871    1.0566 H   0  0  0  0  0  0  0  0  0  0  0  0
    0.0755   -1.6529   -0.0105 N   0  0  0  0  0  0  0  0  0  0  0  0
   -0.2225   -1.6726    1.3986 C   0  0  2  0  0  0  0  0  0  0  0  0
   -0.6385   -3.0948    1.7591 C   0  0  0  0  0  0  0  0  0  0  0  0
   -0.1913   -3.6958    2.7338 O   0  0  0  0  0  0  0  0  0  0  0  0
   -1.3308   -0.6810    1.7668 C   0  0  0  0  0  0  0  0  0  0  0  0
   -0.8958    0.7774    1.5789 C   0  0  0  0  0  0  0  0  0  0  0  0
   -2.0028    1.7599    1.9469 C   0  0  0  0  0  0  0  0  0  0  0  0
   -1.5925    3.1476    1.7443 N   0  3  0  0  0  0  0  0  0  0  0  0
   -2.4591    4.2216    1.9551 C   0  0  0  0  0  0  0  0  0  0  0  0
   -1.9997    5.5170    1.7420 N   0  0  0  0  0  0  0  0  0  0  0  0
   -3.7715    4.0279    2.3737 N   0  0  0  0  0  0  0  0  0  0  0  0
   -0.4407   -1.0027   -0.5990 H   0  0  0  0  0  0  0  0  0  0  0  0
    0.7082   -1.4286    1.9235 H   0  0  0  0  0  0  0  0  0  0  0  0
   -1.6299   -0.8386    2.8100 H   0  0  0  0  0  0  0  0  0  0  0  0
   -2.2223   -0.8766    1.1564 H   0  0  0  0  0  0  0  0  0  0  0  0
   -0.0090    0.9783    2.1919 H   0  0  0  0  0  0  0  0  0  0  0  0
   -0.6163    0.9460    0.5326 H   0  0  0  0  0  0  0  0  0  0  0  0
   -2.8771    1.5839    1.3127 H   0  0  0  0  0  0  0  0  0  0  0  0
   -2.2980    1.6422    2.9940 H   0  0  0  0  0  0  0  0  0  0  0  0
   -0.6428    3.3519    1.4381 H   0  0  0  0  0  0  0  0  0  0  0  0
   -2.6054    6.3213    1.8867 H   0  0  0  0  0  0  0  0  0  0  0  0
   -1.0461    5.6943    1.4357 H   0  0  0  0  0  0  0  0  0  0  0  0
   -4.4066    4.8065    2.5286 H   0  0  0  0  0  0  0  0  0  0  0  0
   -4.1351    3.0919    2.5370 H   0  0  0  0  0  0  0  0  0  0  0  0
   -1.5286   -3.6282    0.8374 N   0  0  0  0  0  0  0  0  0  0  0  0
   -2.0373   -4.9776    0.9256 C   0  0  2  0  0  0  0  0  0  0  0  0
   -2.2649   -5.4880   -0.4911 C   0  0  0  0  0  0  0  0  0  0  0  0
   -2.6305   -4.7635   -1.4144 O   0  0  0  0  0  0  0  0  0  0  0  0
   -3.3228   -5.0325    1.7362 C   0  0  0  0  0  0  0  0  0  0  0  0
   -1.8696   -3.0451    0.0788 H   0  0  0  0  0  0  0  0  0  0  0  0
   -1.2594   -5.5778    1.4101 H   0  0  0  0  0  0  0  0  0  0  0  0
   -4.1140   -4.4369    1.2664 H   0  0  0  0  0  0  0  0  0  0  0  0
   -3.6916   -6.0596    1.8263 H   0  0  0  0  0  0  0  0  0  0  0  0
   -3.1644   -4.6373    2.7455 H   0  0  0  0  0  0  0  0  0  0  0  0
   -2.0534   -6.8558   -0.5934 N   0  0  0  0  0  0  0  0  0  0  0  0
   -2.2463   -7.5846   -1.8253 C   0  0  0  0  0  0  0  0  0  0  0  0
   -1.7128   -7.3705    0.2134 H   0  0  0  0  0  0  0  0  0  0  0  0
   -3.2718   -7.9810   -1.8608 H   0  0  0  0  0  0  0  0  0  0  0  0
   -2.0841   -6.9104   -2.6792 H   0  0  0  0  0  0  0  0  0  0  0  0
   -1.5295   -8.4175   -1.8745 H   0  0  0  0  0  0  0  0  0  0  0  0
  1  3  1  0  0  0  0
  1  7  1  0  0  0  0
  1  2  2  0  0  0  0
 42 43  1  0  0  0  0
 43 51  1  0  0  0  0
 43 44  2  0  0  0  0
  8  9  1  0  0  0  0
  9 17  1  0  0  0  0
  9 10  2  0  0  0  0
 18 19  1  0  0  0  0
 19 41  1  0  0  0  0
 19 20  2  0  0  0  0
 25 26  1  0  0  0  0
 25 27  1  0  0  0  0
 24 25  2  0  0  0  0
 42 45  1  0  0  0  0
  8 11  1  0  0  0  0
 51 52  1  0  0  0  0
 21 22  1  0  0  0  0
 22 23  1  0  0  0  0
 18 21  1  0  0  0  0
 23 24  1  0  0  0  0
 41 42  1  0  0  0  0
  7  8  1  0  0  0  0
 17 18  1  0  0  0  0
  3  4  1  0  0  0  0
  3  5  1  0  0  0  0
  3  6  1  0  0  0  0
 45 48  1  0  0  0  0
 45 49  1  0  0  0  0
 45 50  1  0  0  0  0
 11 14  1  0  0  0  0
 11 15  1  0  0  0  0
 11 16  1  0  0  0  0
 52 54  1  0  0  0  0
 52 55  1  0  0  0  0
 52 56  1  0  0  0  0
 22 32  1  0  0  0  0
 22 33  1  0  0  0  0
 21 30  1  0  0  0  0
 21 31  1  0  0  0  0
 23 34  1  0  0  0  0
 23 35  1  0  0  0  0
 42 47  1  0  0  0  0
  8 13  1  0  0  0  0
 18 29  1  0  0  0  0
 26 37  1  0  0  0  0
 26 38  1  0  0  0  0
 27 39  1  0  0  0  0
 27 40  1  0  0  0  0
 51 53  1  0  0  0  0
  7 12  1  0  0  0  0
 41 46  1  0  0  0  0
 17 28  1  0  0  0  0
 24 36  1  0  0  0  0
M  CHG  1  24   1
M  END
$$$$

  -OEChem-02062319033D

 56 55  0     1  0  0  0  0  0999 V2000
    0.7735   -5.8042   -2.0022 C   0  0  0  0  0  0  0  0  0  0  0  0
   -0.2086   -6.3825   -1.5519 O   0  0  0  0  0  0  0  0  0  0  0  0
    1.4751   -6.3646   -3.1946 C   0  0  0  0  0  0  0  0  0  0  0  0
    2.2765   -7.0687   -2.9186 H   0  0  0  0  0  0  0  0  0  0  0  0
    0.7988   -6.9360   -3.8504 H   0  0  0  0  0  0  0  0  0  0  0  0
    1.9556   -5.6216   -3.8511 H   0  0  0  0  0  0  0  0  0  0  0  0
    1.3322   -4.6359   -1.5106 N   0  0  0  0  0  0  0  0  0  0  0  0
    0.8124   -3.9290   -0.3698 C   0  0  2  0  0  0  0  0  0  0  0  0
    1.0666   -2.4424   -0.5818 C   0  0  0  0  0  0  0  0  0  0  0  0
    2.0598   -2.0076   -1.1610 O   0  0  0  0  0  0  0  0  0  0  0  0
    1.4560   -4.4118    0.9207 C   0  0  0  0  0  0  0  0  0  0  0  0
    2.1528   -4.2578   -1.9805 H   0  0  0  0  0  0  0  0  0  0  0  0
   -0.2667   -4.1160   -0.3467 H   0  0  0  0  0  0  0  0  0  0  0  0
    2.5374   -4.2329    0.9160 H   0  0  0  0  0  0  0  0  0  0  0  0
    1.0390   -3.8932    1.7903 H   0  0  0  0  0  0  0  0  0  0  0  0
    1.2976   -5.4871    1.0566 H   0  0  0  0  0  0  0  0  0  0  0  0
    0.0755   -1.6529   -0.0105 N   0  0  0  0  0  0  0  0  0  0  0  0
   -0.0220   -1.4285    1.4090 C   0  0  2  0  0  0  0  0  0  0  0  0
   -0.2108   -2.7870    2.0757 C   0  0  0  0  0  0  0  0  0  0  0  0
    0.4347   -3.1450    3.0587 O   0  0  0  0  0  0  0  0  0  0  0  0
   -1.1805   -0.4915    1.7656 C   0  0  0  0  0  0  0  0  0  0  0  0
   -0.9538    0.9373    1.2573 C   0  0  0  0  0  0  0  0  0  0  0  0
   -2.1099    1.8655    1.6151 C   0  0  0  0  0  0  0  0  0  0  0  0
   -1.9010    3.2202    1.1087 N   0  3  0  0  0  0  0  0  0  0  0  0
   -2.8533    4.2297    1.2600 C   0  0  0  0  0  0  0  0  0  0  0  0
   -2.5864    5.4968    0.7521 N   0  0  0  0  0  0  0  0  0  0  0  0
   -4.0630    3.9996    1.9070 N   0  0  0  0  0  0  0  0  0  0  0  0
   -0.5909   -1.1788   -0.6161 H   0  0  0  0  0  0  0  0  0  0  0  0
    0.9356   -1.0029    1.7298 H   0  0  0  0  0  0  0  0  0  0  0  0
   -1.3127   -0.4723    2.8541 H   0  0  0  0  0  0  0  0  0  0  0  0
   -2.1172   -0.8827    1.3470 H   0  0  0  0  0  0  0  0  0  0  0  0
   -0.0221    1.3337    1.6781 H   0  0  0  0  0  0  0  0  0  0  0  0
   -0.8426    0.9266    0.1669 H   0  0  0  0  0  0  0  0  0  0  0  0
   -3.0353    1.4905    1.1672 H   0  0  0  0  0  0  0  0  0  0  0  0
   -2.2425    1.9247    2.6997 H   0  0  0  0  0  0  0  0  0  0  0  0
   -1.0337    3.4487    0.6261 H   0  0  0  0  0  0  0  0  0  0  0  0
   -3.2589    6.2543    0.8457 H   0  0  0  0  0  0  0  0  0  0  0  0
   -1.7122    5.6993    0.2734 H   0  0  0  0  0  0  0  0  0  0  0  0
   -4.7599    4.7312    2.0198 H   0  0  0  0  0  0  0  0  0  0  0  0
   -4.2857    3.0830    2.2881 H   0  0  0  0  0  0  0  0  0  0  0  0
   -1.1482   -3.5679    1.4141 N   0  0  0  0  0  0  0  0  0  0  0  0
   -1.4741   -4.9163    1.8180 C   0  0  2  0  0  0  0  0  0  0  0  0
   -1.8307   -5.7087    0.5672 C   0  0  0  0  0  0  0  0  0  0  0  0
   -2.4037   -5.2125   -0.4005 O   0  0  0  0  0  0  0  0  0  0  0  0
   -2.6204   -4.9328    2.8171 C   0  0  0  0  0  0  0  0  0  0  0  0
   -1.6574   -3.1759    0.6275 H   0  0  0  0  0  0  0  0  0  0  0  0
   -0.5707   -5.3373    2.2725 H   0  0  0  0  0  0  0  0  0  0  0  0
   -3.5343   -4.5147    2.3796 H   0  0  0  0  0  0  0  0  0  0  0  0
   -2.8472   -5.9530    3.1439 H   0  0  0  0  0  0  0  0  0  0  0  0
   -2.3738   -4.3379    3.7031 H   0  0  0  0  0  0  0  0  0  0  0  0
   -1.4723   -7.0450    0.6762 N   0  0  0  0  0  0  0  0  0  0  0  0
   -1.7432   -8.0120   -0.3619 C   0  0  0  0  0  0  0  0  0  0  0  0
   -0.9650   -7.3610    1.4975 H   0  0  0  0  0  0  0  0  0  0  0  0
   -2.7087   -8.5010   -0.1654 H   0  0  0  0  0  0  0  0  0  0  0  0
   -1.7818   -7.5027   -1.3362 H   0  0  0  0  0  0  0  0  0  0  0  0
   -0.9450   -8.7688   -0.3752 H   0  0  0  0  0  0  0  0  0  0  0  0
  1  3  1  0  0  0  0
  1  7  1  0  0  0  0
  1  2  2  0  0  0  0
 42 43  1  0  0  0  0
 43 51  1  0  0  0  0
 43 44  2  0  0  0  0
  8  9  1  0  0  0  0
  9 17  1  0  0  0  0
  9 10  2  0  0  0  0
 18 19  1  0  0  0  0
 19 41  1  0  0  0  0
 19 20  2  0  0  0  0
 25 26  1  0  0  0  0
 25 27  1  0  0  0  0
 24 25  2  0  0  0  0
 42 45  1  0  0  0  0
  8 11  1  0  0  0  0
 51 52  1  0  0  0  0
 21 22  1  0  0  0  0
 22 23  1  0  0  0  0
 18 21  1  0  0  0  0
 23 24  1  0  0  0  0
 41 42  1  0  0  0  0
  7  8  1  0  0  0  0
 17 18  1  0  0  0  0
  3  4  1  0  0  0  0
  3  5  1  0  0  0  0
  3  6  1  0  0  0  0
 45 48  1  0  0  0  0
 45 49  1  0  0  0  0
 45 50  1  0  0  0  0
 11 14  1  0  0  0  0
 11 15  1  0  0  0  0
 11 16  1  0  0  0  0
 52 54  1  0  0  0  0
 52 55  1  0  0  0  0
 52 56  1  0  0  0  0
 22 32  1  0  0  0  0
 22 33  1  0  0  0  0
 21 30  1  0  0  0  0
 21 31  1  0  0  0  0
 23 34  1  0  0  0  0
 23 35  1  0  0  0  0
 42 47  1  0  0  0  0
  8 13  1  0  0  0  0
 18 29  1  0  0  0  0
 26 37  1  0  0  0  0
 26 38  1  0  0  0  0
 27 39  1  0  0  0  0
 27 40  1  0  0  0  0
 51 53  1  0  0  0  0
  7 12  1  0  0  0  0
 41 46  1  0  0  0  0
 17 28  1  0  0  0  0
 24 36  1  0  0  0  0
M  CHG  1  24   1
M  END
$$$$

  -OEChem-02062319033D

 56 55  0     1  0  0  0  0  0999 V2000
    0.7735   -5.8042   -2.0022 C   0  0  0  0  0  0  0  0  0  0  0  0
   -0.2086   -6.3825   -1.5519 O   0  0  0  0  0  0  0  0  0  0  0  0
    1.4751   -6.3646   -3.1946 C   0  0  0  0  0  0  0  0  0  0  0  0
    2.2765   -7.0687   -2.9186 H   0  0  0  0  0  0  0  0  0  0  0  0
    0.7988   -6.9360   -3.8504 H   0  0  0  0  0  0  0  0  0  0  0  0
    1.9556   -5.6216   -3.8511 H   0  0  0  0  0  0  0  0  0  0  0  0
    1.3322   -4.6359   -1.5106 N   0  0  0  0  0  0  0  0  0  0  0  0
    0.8124   -3.9290   -0.3698 C   0  0  2  0  0  0  0  0  0  0  0  0
    1.0666   -2.4424   -0.5818 C   0  0  0  0  0  0  0  0  0  0  0  0
    2.0598   -2.0076   -1.1610 O   0  0  0  0  0  0  0  0  0  0  0  0
    1.4560   -4.4118    0.9207 C   0  0  0  0  0  0  0  0  0  0  0  0
    2.1528   -4.2578   -1.9805 H   0  0  0  0  0  0  0  0  0  0  0  0
   -0.2667   -4.1160   -0.3467 H   0  0  0  0  0  0  0  0  0  0  0  0
    2.5374   -4.2329    0.9160 H   0  0  0  0  0  0  0  0  0  0  0  0
    1.0390   -3.8932    1.7903 H   0  0  0  0  0  0  0  0  0  0  0  0
    1.2976   -5.4871    1.0566 H   0  0  0  0  0  0  0  0  0  0  0  0
    0.0755   -1.6529   -0.0105 N   0  0  0  0  0  0  0  0  0  0  0  0
    0.1471   -1.1695    1.3444 C   0  0  2  0  0  0  0  0  0  0  0  0
    0.2162   -2.3857    2.2619 C   0  0  0  0  0  0  0  0  0  0  0  0
    1.0286   -2.4865    3.1789 O   0  0  0  0  0  0  0  0  0  0  0  0
   -1.0556   -0.2927    1.7074 C   0  0  0  0  0  0  0  0  0  0  0  0
   -1.0742    1.0263    0.9256 C   0  0  0  0  0  0  0  0  0  0  0  0
   -2.2734    1.8949    1.2908 C   0  0  0  0  0  0  0  0  0  0  0  0
   -2.3002    3.1402    0.5268 N   0  3  0  0  0  0  0  0  0  0  0  0
   -3.3372    4.0674    0.6450 C   0  0  0  0  0  0  0  0  0  0  0  0
   -3.2966    5.2321   -0.1141 N   0  0  0  0  0  0  0  0  0  0  0  0
   -4.4103    3.8551    1.5043 N   0  0  0  0  0  0  0  0  0  0  0  0
   -0.7197   -1.3680   -0.5781 H   0  0  0  0  0  0  0  0  0  0  0  0
    1.0816   -0.6033    1.4306 H   0  0  0  0  0  0  0  0  0  0  0  0
   -1.0388   -0.0766    2.7825 H   0  0  0  0  0  0  0  0  0  0  0  0
   -1.9870   -0.8421    1.5168 H   0  0  0  0  0  0  0  0  0  0  0  0
   -0.1480    1.5808    1.1182 H   0  0  0  0  0  0  0  0  0  0  0  0
   -1.1129    0.8162   -0.1495 H   0  0  0  0  0  0  0  0  0  0  0  0
   -3.1996    1.3567    1.0672 H   0  0  0  0  0  0  0  0  0  0  0  0
   -2.2623    2.1492    2.3551 H   0  0  0  0  0  0  0  0  0  0  0  0
   -1.5411    3.3508   -0.1187 H   0  0  0  0  0  0  0  0  0  0  0  0
   -4.0360    5.9279   -0.0513 H   0  0  0  0  0  0  0  0  0  0  0  0
   -2.5269    5.4187   -0.7522 H   0  0  0  0  0  0  0  0  0  0  0  0
   -5.1680    4.5270    1.5941 H   0  0  0  0  0  0  0  0  0  0  0  0
   -4.4669    3.0124    2.0714 H   0  0  0  0  0  0  0  0  0  0  0  0
   -0.7023   -3.3628    1.9040 N   0  0  0  0  0  0  0  0  0  0  0  0
   -0.8053   -4.6325    2.5857 C   0  0  2  0  0  0  0  0  0  0  0  0
   -1.2321   -5.6803    1.5663 C   0  0  0  0  0  0  0  0  0  0  0  0
   -1.9879   -5.4350    0.6283 O   0  0  0  0  0  0  0  0  0  0  0  0
   -1.7936   -4.5624    3.7395 C   0  0  0  0  0  0  0  0  0  0  0  0
   -1.3579   -3.1783    1.1505 H   0  0  0  0  0  0  0  0  0  0  0  0
    0.1958   -4.8726    2.9600 H   0  0  0  0  0  0  0  0  0  0  0  0
   -2.8024   -4.3227    3.3840 H   0  0  0  0  0  0  0  0  0  0  0  0
   -1.8492   -5.5172    4.2728 H   0  0  0  0  0  0  0  0  0  0  0  0
   -1.5012   -3.7878    4.4566 H   0  0  0  0  0  0  0  0  0  0  0  0
   -0.7043   -6.9317    1.8519 N   0  0  0  0  0  0  0  0  0  0  0  0
   -0.9966   -8.1013    1.0565 C   0  0  0  0  0  0  0  0  0  0  0  0
   -0.0549   -7.0353    2.6261 H   0  0  0  0  0  0  0  0  0  0  0  0
   -1.8603   -8.6305    1.4854 H   0  0  0  0  0  0  0  0  0  0  0  0
   -1.2293   -7.7949    0.0260 H   0  0  0  0  0  0  0  0  0  0  0  0
   -0.1227   -8.7692    1.0519 H   0  0  0  0  0  0  0  0  0  0  0  0
  1  3  1  0  0  0  0
  1  7  1  0  0  0  0
  1  2  2  0  0  0  0
 42 43  1  0  0  0  0
 43 51  1  0  0  0  0
 43 44  2  0  0  0  0
  8  9  1  0  0  0  0
  9 17  1  0  0  0  0
  9 10  2  0  0  0  0
 18 19  1  0  0  0  0
 19 41  1  0  0  0  0
 19 20  2  0  0  0  0
 25 26  1  0  0  0  0
 25 27  1  0  0  0  0
 24 25  2  0  0  0  0
 42 45  1  0  0  0  0
  8 11  1  0  0  0  0
 51 52  1  0  0  0  0
 21 22  1  0  0  0  0
 22 23  1  0  0  0  0
 18 21  1  0  0  0  0
 23 24  1  0  0  0  0
 41 42  1  0  0  0  0
  7  8  1  0  0  0  0
 17 18  1  0  0  0  0
  3  4  1  0  0  0  0
  3  5  1  0  0  0  0
  3  6  1  0  0  0  0
 45 48  1  0  0  0  0
 45 49  1  0  0  0  0
 45 50  1  0  0  0  0
 11 14  1  0  0  0  0
 11 15  1  0  0  0  0
 11 16  1  0  0  0  0
 52 54  1  0  0  0  0
 52 55  1  0  0  0  0
 52 56  1  0  0  0  0
 22 32  1  0  0  0  0
 22 33  1  0  0  0  0
 21 30  1  0  0  0  0
 21 31  1  0  0  0  0
 23 34  1  0  0  0  0
 23 35  1  0  0  0  0
 42 47  1  0  0  0  0
  8 13  1  0  0  0  0
 18 29  1  0  0  0  0
 26 37  1  0  0  0  0
 26 38  1  0  0  0  0
 27 39  1  0  0  0  0
 27 40  1  0  0  0  0
 51 53  1  0  0  0  0
  7 12  1  0  0  0  0
 41 46  1  0  0  0  0
 17 28  1  0  0  0  0
 24 36  1  0  0  0  0
M  CHG  1  24   1
M  END
$$$$

  -OEChem-02062319033D

 56 55  0     1  0  0  0  0  0999 V2000
    0.7735   -5.8042   -2.0022 C   0  0  0  0  0  0  0  0  0  0  0  0
   -0.2086   -6.3825   -1.5519 O   0  0  0  0  0  0  0  0  0  0  0  0
    1.4751   -6.3646   -3.1946 C   0  0  0  0  0  0  0  0  0  0  0  0
    2.2765   -7.0687   -2.9186 H   0  0  0  0  0  0  0  0  0  0  0  0
    0.7988   -6.9360   -3.8504 H   0  0  0  0  0  0  0  0  0  0  0  0
    1.9556   -5.6216   -3.8511 H   0  0  0  0  0  0  0  0  0  0  0  0
    1.3322   -4.6359   -1.5106 N   0  0  0  0  0  0  0  0  0  0  0  0
    0.8124   -3.9290   -0.3698 C   0  0  2  0  0  0  0  0  0  0  0  0
    1.0666   -2.4424   -0.5818 C   0  0  0  0  0  0  0  0  0  0  0  0
    2.0598   -2.0076   -1.1610 O   0  0  0  0  0  0  0  0  0  0  0  0
    1.4560   -4.4118    0.9207 C   0  0  0  0  0  0  0  0  0  0  0  0
    2.1528   -4.2578   -1.9805 H   0  0  0  0  0  0  0  0  0  0  0  0
   -0.2667   -4.1160   -0.3467 H   0  0  0  0  0  0  0  0  0  0  0  0
    2.5374   -4.2329    0.9160 H   0  0  0  0  0  0  0  0  0  0  0  0
    1.0390   -3.8932    1.7903 H   0  0  0  0  0  0  0  0  0  0  0  0
    1.2976   -5.4871    1.0566 H   0  0  0  0  0  0  0  0  0  0  0  0
    0.0755   -1.6529   -0.0105 N   0  0  0  0  0  0  0  0  0  0  0  0
    0.2735   -0.9132    1.2095 C   0  0  2  0  0  0  0  0  0  0  0  0
    0.6133   -1.9183    2.3048 C   0  0  0  0  0  0  0  0  0  0  0  0
    1.5499   -1.7651    3.0862 O   0  0  0  0  0  0  0  0  0  0  0  0
   -0.9648   -0.0981    1.5962 C   0  0  0  0  0  0  0  0  0  0  0  0
   -1.2486    1.0382    0.6065 C   0  0  0  0  0  0  0  0  0  0  0  0
   -2.4821    1.8461    0.9963 C   0  0  0  0  0  0  0  0  0  0  0  0
   -2.7628    2.9130    0.0382 N   0  3  0  0  0  0  0  0  0  0  0  0
   -3.8777    3.7456    0.1521 C   0  0  0  0  0  0  0  0  0  0  0  0
   -4.0818    4.7411   -0.7976 N   0  0  0  0  0  0  0  0  0  0  0  0
   -4.7896    3.6042    1.1930 N   0  0  0  0  0  0  0  0  0  0  0  0
   -0.8183   -1.5575   -0.4874 H   0  0  0  0  0  0  0  0  0  0  0  0
    1.1360   -0.2569    1.0465 H   0  0  0  0  0  0  0  0  0  0  0  0
   -0.8268    0.3215    2.6000 H   0  0  0  0  0  0  0  0  0  0  0  0
   -1.8406   -0.7578    1.6542 H   0  0  0  0  0  0  0  0  0  0  0  0
   -0.3782    1.7028    0.5503 H   0  0  0  0  0  0  0  0  0  0  0  0
   -1.4088    0.6224   -0.3950 H   0  0  0  0  0  0  0  0  0  0  0  0
   -3.3588    1.1914    1.0194 H   0  0  0  0  0  0  0  0  0  0  0  0
   -2.3559    2.3004    1.9837 H   0  0  0  0  0  0  0  0  0  0  0  0
   -2.1302    3.0649   -0.7454 H   0  0  0  0  0  0  0  0  0  0  0  0
   -4.8838    5.3644   -0.7433 H   0  0  0  0  0  0  0  0  0  0  0  0
   -3.4349    4.8718   -1.5714 H   0  0  0  0  0  0  0  0  0  0  0  0
   -5.6030    4.2078    1.2806 H   0  0  0  0  0  0  0  0  0  0  0  0
   -4.6662    2.8849    1.9018 H   0  0  0  0  0  0  0  0  0  0  0  0
   -0.2214   -3.0268    2.2739 N   0  0  0  0  0  0  0  0  0  0  0  0
   -0.0767   -4.1455    3.1767 C   0  0  2  0  0  0  0  0  0  0  0  0
   -0.5101   -5.4049    2.4381 C   0  0  0  0  0  0  0  0  0  0  0  0
   -1.4112   -5.4157    1.6021 O   0  0  0  0  0  0  0  0  0  0  0  0
   -0.8987   -3.9464    4.4405 C   0  0  0  0  0  0  0  0  0  0  0  0
   -0.9915   -3.0523    1.6120 H   0  0  0  0  0  0  0  0  0  0  0  0
    0.9878   -4.2154    3.4255 H   0  0  0  0  0  0  0  0  0  0  0  0
   -1.9681   -3.8741    4.2112 H   0  0  0  0  0  0  0  0  0  0  0  0
   -0.7656   -4.7817    5.1360 H   0  0  0  0  0  0  0  0  0  0  0  0
   -0.6060   -3.0246    4.9547 H   0  0  0  0  0  0  0  0  0  0  0  0
    0.1984   -6.5236    2.8538 N   0  0  0  0  0  0  0  0  0  0  0  0
   -0.0575   -7.8463    2.3333 C   0  0  0  0  0  0  0  0  0  0  0  0
    0.9554   -6.4156    3.5224 H   0  0  0  0  0  0  0  0  0  0  0  0
   -0.7843   -8.3607    2.9791 H   0  0  0  0  0  0  0  0  0  0  0  0
   -0.4643   -7.7669    1.3144 H   0  0  0  0  0  0  0  0  0  0  0  0
    0.8815   -8.4188    2.3096 H   0  0  0  0  0  0  0  0  0  0  0  0
  1  3  1  0  0  0  0
  1  7  1  0  0  0  0
  1  2  2  0  0  0  0
 42 43  1  0  0  0  0
 43 51  1  0  0  0  0
 43 44  2  0  0  0  0
  8  9  1  0  0  0  0
  9 17  1  0  0  0  0
  9 10  2  0  0  0  0
 18 19  1  0  0  0  0
 19 41  1  0  0  0  0
 19 20  2  0  0  0  0
 25 26  1  0  0  0  0
 25 27  1  0  0  0  0
 24 25  2  0  0  0  0
 42 45  1  0  0  0  0
  8 11  1  0  0  0  0
 51 52  1  0  0  0  0
 21 22  1  0  0  0  0
 22 23  1  0  0  0  0
 18 21  1  0  0  0  0
 23 24  1  0  0  0  0
 41 42  1  0  0  0  0
  7  8  1  0  0  0  0
 17 18  1  0  0  0  0
  3  4  1  0  0  0  0
  3  5  1  0  0  0  0
  3  6  1  0  0  0  0
 45 48  1  0  0  0  0
 45 49  1  0  0  0  0
 45 50  1  0  0  0  0
 11 14  1  0  0  0  0
 11 15  1  0  0  0  0
 11 16  1  0  0  0  0
 52 54  1  0  0  0  0
 52 55  1  0  0  0  0
 52 56  1  0  0  0  0
 22 32  1  0  0  0  0
 22 33  1  0  0  0  0
 21 30  1  0  0  0  0
 21 31  1  0  0  0  0
 23 34  1  0  0  0  0
 23 35  1  0  0  0  0
 42 47  1  0  0  0  0
  8 13  1  0  0  0  0
 18 29  1  0  0  0  0
 26 37  1  0  0  0  0
 26 38  1  0  0  0  0
 27 39  1  0  0  0  0
 27 40  1  0  0  0  0
 51 53  1  0  0  0  0
  7 12  1  0  0  0  0
 41 46  1  0  0  0  0
 17 28  1  0  0  0  0
 24 36  1  0  0  0  0
M  CHG  1  24   1
M  END
$$$$

  -OEChem-02062319033D

 56 55  0     1  0  0  0  0  0999 V2000
    0.7735   -5.8042   -2.0022 C   0  0  0  0  0  0  0  0  0  0  0  0
   -0.2086   -6.3825   -1.5519 O   0  0  0  0  0  0  0  0  0  0  0  0
    1.4751   -6.3646   -3.1946 C   0  0  0  0  0  0  0  0  0  0  0  0
    2.2765   -7.0687   -2.9186 H   0  0  0  0  0  0  0  0  0  0  0  0
    0.7988   -6.9360   -3.8504 H   0  0  0  0  0  0  0  0  0  0  0  0
    1.9556   -5.6216   -3.8511 H   0  0  0  0  0  0  0  0  0  0  0  0
    1.3322   -4.6359   -1.5106 N   0  0  0  0  0  0  0  0  0  0  0  0
    0.8124   -3.9290   -0.3698 C   0  0  2  0  0  0  0  0  0  0  0  0
    1.0666   -2.4424   -0.5818 C   0  0  0  0  0  0  0  0  0  0  0  0
    2.0598   -2.0076   -1.1610 O   0  0  0  0  0  0  0  0  0  0  0  0
    1.4560   -4.4118    0.9207 C   0  0  0  0  0  0  0  0  0  0  0  0
    2.1528   -4.2578   -1.9805 H   0  0  0  0  0  0  0  0  0  0  0  0
   -0.2667   -4.1160   -0.3467 H   0  0  0  0  0  0  0  0  0  0  0  0
    2.5374   -4.2329    0.9160 H   0  0  0  0  0  0  0  0  0  0  0  0
    1.0390   -3.8932    1.7903 H   0  0  0  0  0  0  0  0  0  0  0  0
    1.2976   -5.4871    1.0566 H   0  0  0  0  0  0  0  0  0  0  0  0
    0.0755   -1.6529   -0.0105 N   0  0  0  0  0  0  0  0  0  0  0  0
    0.3485   -0.6771    1.0132 C   0  0  2  0  0  0  0  0  0  0  0  0
    0.9534   -1.4167    2.2017 C   0  0  0  0  0  0  0  0  0  0  0  0
    1.9630   -1.0299    2.7868 O   0  0  0  0  0  0  0  0  0  0  0  0
   -0.9140    0.0790    1.4394 C   0  0  0  0  0  0  0  0  0  0  0  0
   -1.4653    0.9722    0.3217 C   0  0  0  0  0  0  0  0  0  0  0  0
   -2.7219    1.7223    0.7514 C   0  0  0  0  0  0  0  0  0  0  0  0
   -3.2574    2.5542   -0.3239 N   0  3  0  0  0  0  0  0  0  0  0  0
   -4.4380    3.2863   -0.1851 C   0  0  0  0  0  0  0  0  0  0  0  0
   -4.8885    4.0571   -1.2517 N   0  0  0  0  0  0  0  0  0  0  0  0
   -5.1750    3.2641    0.9944 N   0  0  0  0  0  0  0  0  0  0  0  0
   -0.8802   -1.7343   -0.3505 H   0  0  0  0  0  0  0  0  0  0  0  0
    1.0953    0.0125    0.6036 H   0  0  0  0  0  0  0  0  0  0  0  0
   -0.6913    0.6949    2.3191 H   0  0  0  0  0  0  0  0  0  0  0  0
   -1.6880   -0.6354    1.7498 H   0  0  0  0  0  0  0  0  0  0  0  0
   -0.6971    1.6913    0.0131 H   0  0  0  0  0  0  0  0  0  0  0  0
   -1.7101    0.3585   -0.5528 H   0  0  0  0  0  0  0  0  0  0  0  0
   -3.5020    1.0061    1.0271 H   0  0  0  0  0  0  0  0  0  0  0  0
   -2.5171    2.3680    1.6109 H   0  0  0  0  0  0  0  0  0  0  0  0
   -2.7609    2.6103   -1.2114 H   0  0  0  0  0  0  0  0  0  0  0  0
   -5.7445    4.6023   -1.1831 H   0  0  0  0  0  0  0  0  0  0  0  0
   -4.3741    4.0957   -2.1283 H   0  0  0  0  0  0  0  0  0  0  0  0
   -6.0353    3.7954    1.1006 H   0  0  0  0  0  0  0  0  0  0  0  0
   -4.8701    2.7093    1.7907 H   0  0  0  0  0  0  0  0  0  0  0  0
    0.2617   -2.5828    2.4984 N   0  0  0  0  0  0  0  0  0  0  0  0
    0.6621   -3.4885    3.5505 C   0  0  2  0  0  0  0  0  0  0  0  0
    0.2861   -4.9012    3.1233 C   0  0  0  0  0  0  0  0  0  0  0  0
   -0.7131   -5.1561    2.4543 O   0  0  0  0  0  0  0  0  0  0  0  0
    0.0032   -3.1269    4.8725 C   0  0  0  0  0  0  0  0  0  0  0  0
   -0.5831   -2.8065    1.9807 H   0  0  0  0  0  0  0  0  0  0  0  0
    1.7513   -3.4103    3.6375 H   0  0  0  0  0  0  0  0  0  0  0  0
   -1.0885   -3.1994    4.8047 H   0  0  0  0  0  0  0  0  0  0  0  0
    0.3297   -3.7966    5.6749 H   0  0  0  0  0  0  0  0  0  0  0  0
    0.2506   -2.1002    5.1633 H   0  0  0  0  0  0  0  0  0  0  0  0
    1.1742   -5.8484    3.6135 N   0  0  0  0  0  0  0  0  0  0  0  0
    1.0103   -7.2645    3.3815 C   0  0  0  0  0  0  0  0  0  0  0  0
    1.9972   -5.5441    4.1252 H   0  0  0  0  0  0  0  0  0  0  0  0
    0.4460   -7.7100    4.2139 H   0  0  0  0  0  0  0  0  0  0  0  0
    0.4611   -7.4207    2.4413 H   0  0  0  0  0  0  0  0  0  0  0  0
    1.9991   -7.7414    3.3122 H   0  0  0  0  0  0  0  0  0  0  0  0
  1  3  1  0  0  0  0
  1  7  1  0  0  0  0
  1  2  2  0  0  0  0
 42 43  1  0  0  0  0
 43 51  1  0  0  0  0
 43 44  2  0  0  0  0
  8  9  1  0  0  0  0
  9 17  1  0  0  0  0
  9 10  2  0  0  0  0
 18 19  1  0  0  0  0
 19 41  1  0  0  0  0
 19 20  2  0  0  0  0
 25 26  1  0  0  0  0
 25 27  1  0  0  0  0
 24 25  2  0  0  0  0
 42 45  1  0  0  0  0
  8 11  1  0  0  0  0
 51 52  1  0  0  0  0
 21 22  1  0  0  0  0
 22 23  1  0  0  0  0
 18 21  1  0  0  0  0
 23 24  1  0  0  0  0
 41 42  1  0  0  0  0
  7  8  1  0  0  0  0
 17 18  1  0  0  0  0
  3  4  1  0  0  0  0
  3  5  1  0  0  0  0
  3  6  1  0  0  0  0
 45 48  1  0  0  0  0
 45 49  1  0  0  0  0
 45 50  1  0  0  0  0
 11 14  1  0  0  0  0
 11 15  1  0  0  0  0
 11 16  1  0  0  0  0
 52 54  1  0  0  0  0
 52 55  1  0  0  0  0
 52 56  1  0  0  0  0
 22 32  1  0  0  0  0
 22 33  1  0  0  0  0
 21 30  1  0  0  0  0
 21 31  1  0  0  0  0
 23 34  1  0  0  0  0
 23 35  1  0  0  0  0
 42 47  1  0  0  0  0
  8 13  1  0  0  0  0
 18 29  1  0  0  0  0
 26 37  1  0  0  0  0
 26 38  1  0  0  0  0
 27 39  1  0  0  0  0
 27 40  1  0  0  0  0
 51 53  1  0  0  0  0
  7 12  1  0  0  0  0
 41 46  1  0  0  0  0
 17 28  1  0  0  0  0
 24 36  1  0  0  0  0
M  CHG  1  24   1
M  END
$$$$

  -OEChem-02062319033D

 56 55  0     1  0  0  0  0  0999 V2000
    0.7735   -5.8042   -2.0022 C   0  0  0  0  0  0  0  0  0  0  0  0
   -0.2086   -6.3825   -1.5519 O   0  0  0  0  0  0  0  0  0  0  0  0
    1.4751   -6.3646   -3.1946 C   0  0  0  0  0  0  0  0  0  0  0  0
    2.2765   -7.0687   -2.9186 H   0  0  0  0  0  0  0  0  0  0  0  0
    0.7988   -6.9360   -3.8504 H   0  0  0  0  0  0  0  0  0  0  0  0
    1.9556   -5.6216   -3.8511 H   0  0  0  0  0  0  0  0  0  0  0  0
    1.3322   -4.6359   -1.5106 N   0  0  0  0  0  0  0  0  0  0  0  0
    0.8124   -3.9290   -0.3698 C   0  0  2  0  0  0  0  0  0  0  0  0
    1.0666   -2.4424   -0.5818 C   0  0  0  0  0  0  0  0  0  0  0  0
    2.0598   -2.0076   -1.1610 O   0  0  0  0  0  0  0  0  0  0  0  0
    1.4560   -4.4118    0.9207 C   0  0  0  0  0  0  0  0  0  0  0  0
    2.1528   -4.2578   -1.9805 H   0  0  0  0  0  0  0  0  0  0  0  0
   -0.2667   -4.1160   -0.3467 H   0  0  0  0  0  0  0  0  0  0  0  0
    2.5374   -4.2329    0.9160 H   0  0  0  0  0  0  0  0  0  0  0  0
    1.0390   -3.8932    1.7903 H   0  0  0  0  0  0  0  0  0  0  0  0
    1.2976   -5.4871    1.0566 H   0  0  0  0  0  0  0  0  0  0  0  0
    0.0755   -1.6529   -0.0105 N   0  0  0  0  0  0  0  0  0  0  0  0
    0.3669   -0.4773    0.7690 C   0  0  2  0  0  0  0  0  0  0  0  0
    1.2135   -0.9150    1.9595 C   0  0  0  0  0  0  0  0  0  0  0  0
    2.2398   -0.3310    2.3012 O   0  0  0  0  0  0  0  0  0  0  0  0
   -0.9069    0.2265    1.2479 C   0  0  0  0  0  0  0  0  0  0  0  0
   -1.7095    0.8329    0.0906 C   0  0  0  0  0  0  0  0  0  0  0  0
   -2.9762    1.5321    0.5730 C   0  0  0  0  0  0  0  0  0  0  0  0
   -3.7501    2.0883   -0.5347 N   0  3  0  0  0  0  0  0  0  0  0  0
   -4.9799    2.7208   -0.3438 C   0  0  0  0  0  0  0  0  0  0  0  0
   -5.6616    3.2268   -1.4455 N   0  0  0  0  0  0  0  0  0  0  0  0
   -5.5403    2.8580    0.9220 N   0  0  0  0  0  0  0  0  0  0  0  0
   -0.9010   -1.8863   -0.1764 H   0  0  0  0  0  0  0  0  0  0  0  0
    0.9623    0.1867    0.1320 H   0  0  0  0  0  0  0  0  0  0  0  0
   -0.6414    1.0181    1.9589 H   0  0  0  0  0  0  0  0  0  0  0  0
   -1.5395   -0.4833    1.7972 H   0  0  0  0  0  0  0  0  0  0  0  0
   -1.0828    1.5471   -0.4568 H   0  0  0  0  0  0  0  0  0  0  0  0
   -1.9962    0.0423   -0.6123 H   0  0  0  0  0  0  0  0  0  0  0  0
   -3.6194    0.8133    1.0899 H   0  0  0  0  0  0  0  0  0  0  0  0
   -2.7347    2.3473    1.2620 H   0  0  0  0  0  0  0  0  0  0  0  0
   -3.3903    2.0181   -1.4849 H   0  0  0  0  0  0  0  0  0  0  0  0
   -6.5595    3.6933   -1.3408 H   0  0  0  0  0  0  0  0  0  0  0  0
   -5.2807    3.1434   -2.3849 H   0  0  0  0  0  0  0  0  0  0  0  0
   -6.4355    3.3178    1.0664 H   0  0  0  0  0  0  0  0  0  0  0  0
   -5.0647    2.4975    1.7459 H   0  0  0  0  0  0  0  0  0  0  0  0
    0.7141   -2.0612    2.5623 N   0  0  0  0  0  0  0  0  0  0  0  0
    1.3609   -2.7063    3.6817 C   0  0  2  0  0  0  0  0  0  0  0  0
    1.1024   -4.2034    3.5751 C   0  0  0  0  0  0  0  0  0  0  0  0
    0.0589   -4.6738    3.1269 O   0  0  0  0  0  0  0  0  0  0  0  0
    0.8506   -2.1596    5.0058 C   0  0  0  0  0  0  0  0  0  0  0  0
   -0.1606   -2.4575    2.2314 H   0  0  0  0  0  0  0  0  0  0  0  0
    2.4343   -2.5124    3.5814 H   0  0  0  0  0  0  0  0  0  0  0  0
   -0.2233   -2.3445    5.1242 H   0  0  0  0  0  0  0  0  0  0  0  0
    1.3621   -2.6292    5.8525 H   0  0  0  0  0  0  0  0  0  0  0  0
    1.0104   -1.0777    5.0683 H   0  0  0  0  0  0  0  0  0  0  0  0
    2.1566   -4.9522    4.0792 N   0  0  0  0  0  0  0  0  0  0  0  0
    2.1338   -6.3955    4.1296 C   0  0  0  0  0  0  0  0  0  0  0  0
    2.9994   -4.4803    4.3935 H   0  0  0  0  0  0  0  0  0  0  0  0
    1.7466   -6.7227    5.1058 H   0  0  0  0  0  0  0  0  0  0  0  0
    1.4838   -6.7799    3.3298 H   0  0  0  0  0  0  0  0  0  0  0  0
    3.1539   -6.7832    3.9912 H   0  0  0  0  0  0  0  0  0  0  0  0
  1  3  1  0  0  0  0
  1  7  1  0  0  0  0
  1  2  2  0  0  0  0
 42 43  1  0  0  0  0
 43 51  1  0  0  0  0
 43 44  2  0  0  0  0
  8  9  1  0  0  0  0
  9 17  1  0  0  0  0
  9 10  2  0  0  0  0
 18 19  1  0  0  0  0
 19 41  1  0  0  0  0
 19 20  2  0  0  0  0
 25 26  1  0  0  0  0
 25 27  1  0  0  0  0
 24 25  2  0  0  0  0
 42 45  1  0  0  0  0
  8 11  1  0  0  0  0
 51 52  1  0  0  0  0
 21 22  1  0  0  0  0
 22 23  1  0  0  0  0
 18 21  1  0  0  0  0
 23 24  1  0  0  0  0
 41 42  1  0  0  0  0
  7  8  1  0  0  0  0
 17 18  1  0  0  0  0
  3  4  1  0  0  0  0
  3  5  1  0  0  0  0
  3  6  1  0  0  0  0
 45 48  1  0  0  0  0
 45 49  1  0  0  0  0
 45 50  1  0  0  0  0
 11 14  1  0  0  0  0
 11 15  1  0  0  0  0
 11 16  1  0  0  0  0
 52 54  1  0  0  0  0
 52 55  1  0  0  0  0
 52 56  1  0  0  0  0
 22 32  1  0  0  0  0
 22 33  1  0  0  0  0
 21 30  1  0  0  0  0
 21 31  1  0  0  0  0
 23 34  1  0  0  0  0
 23 35  1  0  0  0  0
 42 47  1  0  0  0  0
  8 13  1  0  0  0  0
 18 29  1  0  0  0  0
 26 37  1  0  0  0  0
 26 38  1  0  0  0  0
 27 39  1  0  0  0  0
 27 40  1  0  0  0  0
 51 53  1  0  0  0  0
  7 12  1  0  0  0  0
 41 46  1  0  0  0  0
 17 28  1  0  0  0  0
 24 36  1  0  0  0  0
M  CHG  1  24   1
M  END
$$$$

  -OEChem-02062319033D

 56 55  0     1  0  0  0  0  0999 V2000
    0.7735   -5.8042   -2.0022 C   0  0  0  0  0  0  0  0  0  0  0  0
   -0.2086   -6.3825   -1.5519 O   0  0  0  0  0  0  0  0  0  0  0  0
    1.4751   -6.3646   -3.1946 C   0  0  0  0  0  0  0  0  0  0  0  0
    2.2765   -7.0687   -2.9186 H   0  0  0  0  0  0  0  0  0  0  0  0
    0.7988   -6.9360   -3.8504 H   0  0  0  0  0  0  0  0  0  0  0  0
    1.9556   -5.6216   -3.8511 H   0  0  0  0  0  0  0  0  0  0  0  0
    1.3322   -4.6359   -1.5106 N   0  0  0  0  0  0  0  0  0  0  0  0
    0.8124   -3.9290   -0.3698 C   0  0  2  0  0  0  0  0  0  0  0  0
    1.0666   -2.4424   -0.5818 C   0  0  0  0  0  0  0  0  0  0  0  0
    2.0598   -2.0076   -1.1610 O   0  0  0  0  0  0  0  0  0  0  0  0
    1.4560   -4.4118    0.9207 C   0  0  0  0  0  0  0  0  0  0  0  0
    2.1528   -4.2578   -1.9805 H   0  0  0  0  0  0  0  0  0  0  0  0
   -0.2667   -4.1160   -0.3467 H   0  0  0  0  0  0  0  0  0  0  0  0
    2.5374   -4.2329    0.9160 H   0  0  0  0  0  0  0  0  0  0  0  0
    1.0390   -3.8932    1.7903 H   0  0  0  0  0  0  0  0  0  0  0  0
    1.2976   -5.4871    1.0566 H   0  0  0  0  0  0  0  0  0  0  0  0
    0.0755   -1.6529   -0.0105 N   0  0  0  0  0  0  0  0  0  0  0  0
    0.3275   -0.3274    0.4936 C   0  0  2  0  0  0  0  0  0  0  0  0
    1.3757   -0.4475    1.5948 C   0  0  0  0  0  0  0  0  0  0  0  0
    2.3615    0.2838    1.6625 O   0  0  0  0  0  0  0  0  0  0  0  0
   -0.9439    0.3345    1.0346 C   0  0  0  0  0  0  0  0  0  0  0  0
   -1.9645    0.6298   -0.0710 C   0  0  0  0  0  0  0  0  0  0  0  0
   -3.2279    1.2884    0.4732 C   0  0  0  0  0  0  0  0  0  0  0  0
   -4.2075    1.5468   -0.5798 N   0  3  0  0  0  0  0  0  0  0  0  0
   -5.4666    2.0877   -0.3130 C   0  0  0  0  0  0  0  0  0  0  0  0
   -6.3486    2.3068   -1.3658 N   0  0  0  0  0  0  0  0  0  0  0  0
   -5.8605    2.4135    0.9807 N   0  0  0  0  0  0  0  0  0  0  0  0
   -0.8793   -2.0032    0.0228 H   0  0  0  0  0  0  0  0  0  0  0  0
    0.7458    0.2538   -0.3361 H   0  0  0  0  0  0  0  0  0  0  0  0
   -0.6805    1.2692    1.5440 H   0  0  0  0  0  0  0  0  0  0  0  0
   -1.4053   -0.3118    1.7930 H   0  0  0  0  0  0  0  0  0  0  0  0
   -1.5092    1.2801   -0.8274 H   0  0  0  0  0  0  0  0  0  0  0  0
   -2.2477   -0.3044   -0.5694 H   0  0  0  0  0  0  0  0  0  0  0  0
   -3.7031    0.6261    1.2033 H   0  0  0  0  0  0  0  0  0  0  0  0
   -2.9940    2.2397    0.9608 H   0  0  0  0  0  0  0  0  0  0  0  0
   -3.9755    1.3287   -1.5473 H   0  0  0  0  0  0  0  0  0  0  0  0
   -7.2732    2.6996   -1.2055 H   0  0  0  0  0  0  0  0  0  0  0  0
   -6.0927    2.0798   -2.3237 H   0  0  0  0  0  0  0  0  0  0  0  0
   -6.7762    2.8075    1.1804 H   0  0  0  0  0  0  0  0  0  0  0  0
   -5.2367    2.2639    1.7703 H   0  0  0  0  0  0  0  0  0  0  0  0
    1.1050   -1.4973    2.4613 N   0  0  0  0  0  0  0  0  0  0  0  0
    1.9719   -1.8523    3.5613 C   0  0  2  0  0  0  0  0  0  0  0  0
    1.8831   -3.3593    3.7627 C   0  0  0  0  0  0  0  0  0  0  0  0
    0.8521   -4.0016    3.5741 O   0  0  0  0  0  0  0  0  0  0  0  0
    1.5859   -1.1105    4.8316 C   0  0  0  0  0  0  0  0  0  0  0  0
    0.2473   -2.0292    2.3471 H   0  0  0  0  0  0  0  0  0  0  0  0
    2.9903   -1.5827    3.2612 H   0  0  0  0  0  0  0  0  0  0  0  0
    0.5685   -1.3678    5.1478 H   0  0  0  0  0  0  0  0  0  0  0  0
    2.2613   -1.3589    5.6569 H   0  0  0  0  0  0  0  0  0  0  0  0
    1.6215   -0.0268    4.6761 H   0  0  0  0  0  0  0  0  0  0  0  0
    3.0787   -3.8961    4.2193 N   0  0  0  0  0  0  0  0  0  0  0  0
    3.2367   -5.2985    4.5267 C   0  0  0  0  0  0  0  0  0  0  0  0
    3.8937   -3.2965    4.3090 H   0  0  0  0  0  0  0  0  0  0  0  0
    3.0290   -5.4661    5.5938 H   0  0  0  0  0  0  0  0  0  0  0  0
    2.5341   -5.8882    3.9195 H   0  0  0  0  0  0  0  0  0  0  0  0
    4.2673   -5.6094    4.3006 H   0  0  0  0  0  0  0  0  0  0  0  0
  1  3  1  0  0  0  0
  1  7  1  0  0  0  0
  1  2  2  0  0  0  0
 42 43  1  0  0  0  0
 43 51  1  0  0  0  0
 43 44  2  0  0  0  0
  8  9  1  0  0  0  0
  9 17  1  0  0  0  0
  9 10  2  0  0  0  0
 18 19  1  0  0  0  0
 19 41  1  0  0  0  0
 19 20  2  0  0  0  0
 25 26  1  0  0  0  0
 25 27  1  0  0  0  0
 24 25  2  0  0  0  0
 42 45  1  0  0  0  0
  8 11  1  0  0  0  0
 51 52  1  0  0  0  0
 21 22  1  0  0  0  0
 22 23  1  0  0  0  0
 18 21  1  0  0  0  0
 23 24  1  0  0  0  0
 41 42  1  0  0  0  0
  7  8  1  0  0  0  0
 17 18  1  0  0  0  0
  3  4  1  0  0  0  0
  3  5  1  0  0  0  0
  3  6  1  0  0  0  0
 45 48  1  0  0  0  0
 45 49  1  0  0  0  0
 45 50  1  0  0  0  0
 11 14  1  0  0  0  0
 11 15  1  0  0  0  0
 11 16  1  0  0  0  0
 52 54  1  0  0  0  0
 52 55  1  0  0  0  0
 52 56  1  0  0  0  0
 22 32  1  0  0  0  0
 22 33  1  0  0  0  0
 21 30  1  0  0  0  0
 21 31  1  0  0  0  0
 23 34  1  0  0  0  0
 23 35  1  0  0  0  0
 42 47  1  0  0  0  0
  8 13  1  0  0  0  0
 18 29  1  0  0  0  0
 26 37  1  0  0  0  0
 26 38  1  0  0  0  0
 27 39  1  0  0  0  0
 27 40  1  0  0  0  0
 51 53  1  0  0  0  0
  7 12  1  0  0  0  0
 41 46  1  0  0  0  0
 17 28  1  0  0  0  0
 24 36  1  0  0  0  0
M  CHG  1  24   1
M  END
$$$$

  -OEChem-02062319033D

 56 55  0     1  0  0  0  0  0999 V2000
    0.7735   -5.8042   -2.0022 C   0  0  0  0  0  0  0  0  0  0  0  0
   -0.2086   -6.3825   -1.5519 O   0  0  0  0  0  0  0  0  0  0  0  0
    1.4751   -6.3646   -3.1946 C   0  0  0  0  0  0  0  0  0  0  0  0
    2.2765   -7.0687   -2.9186 H   0  0  0  0  0  0  0  0  0  0  0  0
    0.7988   -6.9360   -3.8504 H   0  0  0  0  0  0  0  0  0  0  0  0
    1.9556   -5.6216   -3.8511 H   0  0  0  0  0  0  0  0  0  0  0  0
    1.3322   -4.6359   -1.5106 N   0  0  0  0  0  0  0  0  0  0  0  0
    0.8124   -3.9290   -0.3698 C   0  0  2  0  0  0  0  0  0  0  0  0
    1.0666   -2.4424   -0.5818 C   0  0  0  0  0  0  0  0  0  0  0  0
    2.0598   -2.0076   -1.1610 O   0  0  0  0  0  0  0  0  0  0  0  0
    1.4560   -4.4118    0.9207 C   0  0  0  0  0  0  0  0  0  0  0  0
    2.1528   -4.2578   -1.9805 H   0  0  0  0  0  0  0  0  0  0  0  0
   -0.2667   -4.1160   -0.3467 H   0  0  0  0  0  0  0  0  0  0  0  0
    2.5374   -4.2329    0.9160 H   0  0  0  0  0  0  0  0  0  0  0  0
    1.0390   -3.8932    1.7903 H   0  0  0  0  0  0  0  0  0  0  0  0
    1.2976   -5.4871    1.0566 H   0  0  0  0  0  0  0  0  0  0  0  0
    0.0755   -1.6529   -0.0105 N   0  0  0  0  0  0  0  0  0  0  0  0
    0.2331   -0.2376    0.2057 C   0  0  2  0  0  0  0  0  0  0  0  0
    1.4290   -0.0459    1.1323 C   0  0  0  0  0  0  0  0  0  0  0  0
    2.3197    0.7728    0.9143 O   0  0  0  0  0  0  0  0  0  0  0  0
   -1.0225    0.3954    0.8141 C   0  0  0  0  0  0  0  0  0  0  0  0
   -2.2130    0.3766   -0.1521 C   0  0  0  0  0  0  0  0  0  0  0  0
   -3.4598    1.0078    0.4587 C   0  0  0  0  0  0  0  0  0  0  0  0
   -4.5983    0.9669   -0.4563 N   0  3  0  0  0  0  0  0  0  0  0  0
   -5.8647    1.4300   -0.0948 C   0  0  0  0  0  0  0  0  0  0  0  0
   -6.9026    1.3597   -1.0181 N   0  0  0  0  0  0  0  0  0  0  0  0
   -6.1140    1.9609    1.1665 N   0  0  0  0  0  0  0  0  0  0  0  0
   -0.8167   -2.0771    0.2336 H   0  0  0  0  0  0  0  0  0  0  0  0
    0.4608    0.2092   -0.7689 H   0  0  0  0  0  0  0  0  0  0  0  0
   -0.8060    1.4310    1.1027 H   0  0  0  0  0  0  0  0  0  0  0  0
   -1.2946   -0.1327    1.7376 H   0  0  0  0  0  0  0  0  0  0  0  0
   -1.9470    0.9085   -1.0734 H   0  0  0  0  0  0  0  0  0  0  0  0
   -2.4475   -0.6582   -0.4269 H   0  0  0  0  0  0  0  0  0  0  0  0
   -3.7474    0.4573    1.3598 H   0  0  0  0  0  0  0  0  0  0  0  0
   -3.2773    2.0527    0.7278 H   0  0  0  0  0  0  0  0  0  0  0  0
   -4.4766    0.5890   -1.3943 H   0  0  0  0  0  0  0  0  0  0  0  0
   -7.8369    1.6887   -0.7865 H   0  0  0  0  0  0  0  0  0  0  0  0
   -6.7550    0.9773   -1.9489 H   0  0  0  0  0  0  0  0  0  0  0  0
   -7.0343    2.2995    1.4348 H   0  0  0  0  0  0  0  0  0  0  0  0
   -5.3744    2.0245    1.8622 H   0  0  0  0  0  0  0  0  0  0  0  0
    1.4078   -0.9298    2.2022 N   0  0  0  0  0  0  0  0  0  0  0  0
    2.4535   -0.9845    3.1977 C   0  0  2  0  0  0  0  0  0  0  0  0
    2.5749   -2.4262    3.6734 C   0  0  0  0  0  0  0  0  0  0  0  0
    1.6126   -3.1855    3.7655 O   0  0  0  0  0  0  0  0  0  0  0  0
    2.1589   -0.0511    4.3615 C   0  0  0  0  0  0  0  0  0  0  0  0
    0.6127   -1.5508    2.3198 H   0  0  0  0  0  0  0  0  0  0  0  0
    3.3814   -0.6847    2.6985 H   0  0  0  0  0  0  0  0  0  0  0  0
    1.2328   -0.3358    4.8740 H   0  0  0  0  0  0  0  0  0  0  0  0
    2.9660   -0.0723    5.1013 H   0  0  0  0  0  0  0  0  0  0  0  0
    2.0424    0.9810    4.0135 H   0  0  0  0  0  0  0  0  0  0  0  0
    3.8776   -2.7521    4.0241 N   0  0  0  0  0  0  0  0  0  0  0  0
    4.2436   -4.0483    4.5456 C   0  0  0  0  0  0  0  0  0  0  0  0
    4.6192   -2.0736    3.8775 H   0  0  0  0  0  0  0  0  0  0  0  0
    4.2057   -4.0258    5.6448 H   0  0  0  0  0  0  0  0  0  0  0  0
    3.5405   -4.8063    4.1701 H   0  0  0  0  0  0  0  0  0  0  0  0
    5.2633   -4.3002    4.2190 H   0  0  0  0  0  0  0  0  0  0  0  0
  1  3  1  0  0  0  0
  1  7  1  0  0  0  0
  1  2  2  0  0  0  0
 42 43  1  0  0  0  0
 43 51  1  0  0  0  0
 43 44  2  0  0  0  0
  8  9  1  0  0  0  0
  9 17  1  0  0  0  0
  9 10  2  0  0  0  0
 18 19  1  0  0  0  0
 19 41  1  0  0  0  0
 19 20  2  0  0  0  0
 25 26  1  0  0  0  0
 25 27  1  0  0  0  0
 24 25  2  0  0  0  0
 42 45  1  0  0  0  0
  8 11  1  0  0  0  0
 51 52  1  0  0  0  0
 21 22  1  0  0  0  0
 22 23  1  0  0  0  0
 18 21  1  0  0  0  0
 23 24  1  0  0  0  0
 41 42  1  0  0  0  0
  7  8  1  0  0  0  0
 17 18  1  0  0  0  0
  3  4  1  0  0  0  0
  3  5  1  0  0  0  0
  3  6  1  0  0  0  0
 45 48  1  0  0  0  0
 45 49  1  0  0  0  0
 45 50  1  0  0  0  0
 11 14  1  0  0  0  0
 11 15  1  0  0  0  0
 11 16  1  0  0  0  0
 52 54  1  0  0  0  0
 52 55  1  0  0  0  0
 52 56  1  0  0  0  0
 22 32  1  0  0  0  0
 22 33  1  0  0  0  0
 21 30  1  0  0  0  0
 21 31  1  0  0  0  0
 23 34  1  0  0  0  0
 23 35  1  0  0  0  0
 42 47  1  0  0  0  0
  8 13  1  0  0  0  0
 18 29  1  0  0  0  0
 26 37  1  0  0  0  0
 26 38  1  0  0  0  0
 27 39  1  0  0  0  0
 27 40  1  0  0  0  0
 51 53  1  0  0  0  0
  7 12  1  0  0  0  0
 41 46  1  0  0  0  0
 17 28  1  0  0  0  0
 24 36  1  0  0  0  0
M  CHG  1  24   1
M  END
$$$$
