@<TRIPOS>MOLECULE
default_name
   26    26     1     0     0
SMALL
No Charge or Current Charge


@<TRIPOS>ATOM
      1 N           27.6640    25.6380    23.9410 N.4        1 NHI       0.000000
      2 H1          28.2630    25.0200    23.4090 H          1 NHI       0.000000
      3 H2          26.7360    25.6170    23.5400 H          1 NHI       0.000000
      4 H3          27.6180    25.2930    24.8930 H          1 NHI       0.000000
      5 CA          28.2050    27.0210    23.9360 C.3        1 NHI       0.000000
      6 HA          28.3040    27.3700    22.9090 H          1 NHI       0.000000
      7 CB          27.2630    27.9910    24.6990 C.3        1 NHI       0.000000
      8 HB2         26.3760    28.1700    24.0880 H          1 NHI       0.000000
      9 HB3         26.9240    27.5030    25.6160 H          1 NHI       0.000000
     10 CG          27.8490    29.3350    25.1120 C.2        1 NHI       0.000000
     11 ND1         28.7850    29.5510    26.1190 N.pl3      1 NHI       0.000000
     12 HD1         29.2340    28.8240    26.6820 H          1 NHI       0.000000
     13 CE1         28.9800    30.8810    26.2410 C.2        1 NHI       0.000000
     14 HE1         29.6390    31.3640    26.9620 H          1 NHI       0.000000
     15 NE2         28.1970    31.5160    25.3440 N.pl3      1 NHI       0.000000
     16 HE2         28.1170    32.5280    25.2380 H          1 NHI       0.000000
     17 CD2         27.4780    30.5660    24.6340 C.2        1 NHI       0.000000
     18 HD2         26.7260    30.7700    23.8750 H          1 NHI       0.000000
     19 C           29.5950    26.9900    24.5550 C.2        1 NHI       0.000000
     20 O           29.6670    26.8420    25.7680 O.2        1 NHI       0.000000
     21 N           30.6640    27.1230    23.7620 N.am       2 NME      -0.415700
     22 H           30.5490    27.2650    22.7680 H          2 NME       0.271900
     23 CH3         32.0460    27.0730    24.2490 C.3        2 NME      -0.149000
     24 HH31        32.3310    26.0430    24.4820 H          2 NME       0.097600
     25 HH32        32.7320    27.4570    23.4900 H          2 NME       0.097600
     26 HH33        32.1610    27.6740    25.1550 H          2 NME       0.097600
@<TRIPOS>BOND
     1    19    20 2   
     2    19    21 am  
     3    17    18 1   
     4    15    16 1   
     5    15    17 1   
     6    13    14 1   
     7    13    15 1   
     8    11    12 1   
     9    11    13 2   
    10    10    11 1   
    11    10    17 2   
    12     7     8 1   
    13     7     9 1   
    14     7    10 1   
    15     5     6 1   
    16     5     7 1   
    17     5    19 1   
    18     1     2 1   
    19     1     3 1   
    20     1     4 1   
    21     1     5 1   
    22    23    24 1   
    23    23    25 1   
    24    23    26 1   
    25    21    22 1   
    26    21    23 1   
@<TRIPOS>SUBSTRUCTURE
     1 NHI         1 TEMP              0 ****  ****    0 ROOT
