@<TRIPOS>MOLECULE
default_name
   27    26     1     0     0
SMALL
No Charge or Current Charge


@<TRIPOS>ATOM
      1 N           27.4400    25.5670    24.0610 N.4        1 NLE       0.000000
      2 H1          27.7590    25.0410    24.8670 H          1 NLE       0.000000
      3 H2          27.7240    25.0520    23.2390 H          1 NLE       0.000000
      4 H3          26.4340    25.6550    24.0850 H          1 NLE       0.000000
      5 CA          28.0950    26.8980    24.0770 C.3        1 NLE       0.000000
      6 HA          27.8480    27.4240    23.1550 H          1 NLE       0.000000
      7 CB          27.5850    27.7300    25.2730 C.3        1 NLE       0.000000
      8 HB2         26.4950    27.7670    25.2270 H          1 NLE       0.000000
      9 HB3         27.8610    27.2150    26.1960 H          1 NLE       0.000000
     10 CG          28.1130    29.1780    25.3480 C.3        1 NLE       0.000000
     11 HG          29.1970    29.1650    25.4530 H          1 NLE       0.000000
     12 CD1         27.7410    29.9820    24.1000 C.3        1 NLE       0.000000
     13 HD11        26.6580    30.0120    23.9760 H          1 NLE       0.000000
     14 HD12        28.0990    31.0080    24.2140 H          1 NLE       0.000000
     15 HD13        28.2010    29.5680    23.2050 H          1 NLE       0.000000
     16 CD2         27.5240    29.8820    26.5680 C.3        1 NLE       0.000000
     17 HD21        27.7960    29.3460    27.4790 H          1 NLE       0.000000
     18 HD22        27.9250    30.8950    26.6390 H          1 NLE       0.000000
     19 HD23        26.4370    29.9390    26.4950 H          1 NLE       0.000000
     20 C           29.6080    26.6860    24.1110 C.2        1 NLE       0.000000
     21 O           30.0150    25.6290    24.5760 O.2        1 NLE       0.000000
     22 N           30.4140    27.6270    23.6080 N.am       2 NME      -0.415700
     23 H           30.0190    28.4820    23.2440 H          2 NME       0.271900
     24 CH3         31.8730    27.5120    23.5880 C.3        2 NME      -0.149000
     25 HH31        32.1730    26.5930    23.0790 H          2 NME       0.097600
     26 HH32        32.3160    28.3640    23.0690 H          2 NME       0.097600
     27 HH33        32.2600    27.4820    24.6100 H          2 NME       0.097600
@<TRIPOS>BOND
     1    20    21 2   
     2    20    22 am  
     3    16    17 1   
     4    16    18 1   
     5    16    19 1   
     6    12    13 1   
     7    12    14 1   
     8    12    15 1   
     9    10    11 1   
    10    10    12 1   
    11    10    16 1   
    12     7     8 1   
    13     7     9 1   
    14     7    10 1   
    15     5     6 1   
    16     5     7 1   
    17     5    20 1   
    18     1     2 1   
    19     1     3 1   
    20     1     4 1   
    21     1     5 1   
    22    24    25 1   
    23    24    26 1   
    24    24    27 1   
    25    22    23 1   
    26    22    24 1   
@<TRIPOS>SUBSTRUCTURE
     1 NLE         1 TEMP              0 ****  ****    0 ROOT
